MODEL 1
REMARK VINA RESULT:      -7.2      0.000      0.000
REMARK  17 active torsions:
REMARK  status: ('A' for Active; 'I' for Inactive)
REMARK    1  A    between atoms: C_19  and  C_9 
REMARK    2  A    between atoms: C_21  and  O_53 
REMARK    3  A    between atoms: S_55  and  C_22 
REMARK    4  A    between atoms: C_25  and  C_28 
REMARK    5  A    between atoms: O_52  and  C_26 
REMARK    6  A    between atoms: C_30  and  C_27 
REMARK    7  A    between atoms: C_33  and  C_27 
REMARK    8  A    between atoms: C_27  and  N_39 
REMARK    9  A    between atoms: C_28  and  O_46 
REMARK   10  A    between atoms: O_53  and  C_29 
REMARK       I    between atoms: N_45  and  C_30 
REMARK   11  A    between atoms: C_35  and  C_31 
REMARK   12  A    between atoms: O_48  and  C_31 
REMARK   13  A    between atoms: C_32  and  O_49 
REMARK   14  A    between atoms: O_54  and  C_32 
REMARK   15  A    between atoms: O_54  and  C_34 
REMARK   16  A    between atoms: C_35  and  N_41 
REMARK   17  A    between atoms: N_43  and  S_55 
ROOT
HETATM    1  C   UNK N   1      24.059  13.351   4.627  0.00  0.00     0.068 C 
HETATM    2  C   UNK N   1      26.332  13.200   5.509  0.00  0.00     0.159 C 
HETATM    3  C   UNK N   1      24.863  12.959   5.907  0.00  0.00     0.151 C 
HETATM    4  C   UNK N   1      24.875  14.508   4.130  0.00  0.00     0.164 C 
HETATM    5  C   UNK N   1      27.313  14.514   3.649  0.00  0.00     0.244 C 
HETATM    6  N   UNK N   1      26.235  14.091   4.382  0.00  0.00    -0.336 N 
HETATM    7  O   UNK N   1      27.147  15.026   2.558  0.00  0.00    -0.271 OA
ENDROOT
BRANCH   4   8
HETATM    8  C   UNK N   1      24.599  15.463   2.979  0.00  0.00     0.136 C 
HETATM    9  N   UNK N   1      24.472  16.742   3.071  0.00  0.00    -0.355 N 
ATOM     10  HN  UNK N   1      24.249  17.228   2.204  1.00  0.00     0.162 HD
BRANCH   9  11
HETATM   11  C   UNK N   1      24.608  17.573   4.239  0.00  0.00     0.105 A 
HETATM   12  C   UNK N   1      23.767  18.810   3.900  0.00  0.00     0.052 A 
HETATM   13  C   UNK N   1      23.363  17.952   5.058  0.00  0.00     0.046 A 
BRANCH  13  14
HETATM   14  C   UNK N   1      22.109  17.143   4.829  0.00  0.00    -0.029 C 
HETATM   15  C   UNK N   1      21.069  17.576   4.109  0.00  0.00     0.007 C 
ENDBRANCH  13  14
BRANCH  11  16
HETATM   16  C   UNK N   1      25.968  18.126   4.563  0.00  0.00     0.154 C 
HETATM   17  N   UNK N   1      26.141  18.797   5.650  0.00  0.00    -0.266 N 
ATOM     18  HN  UNK N   1      25.322  19.049   6.203  1.00  0.00     0.180 HD
BRANCH  17  19
HETATM   19  S   UNK N   1      27.725  19.302   6.220  0.00  0.00     0.236 S 
HETATM   20  O   UNK N   1      28.478  19.764   4.964  0.00  0.00    -0.205 OA
HETATM   21  O   UNK N   1      27.427  20.660   6.869  0.00  0.00    -0.205 OA
BRANCH  19  22
HETATM   22  C   UNK N   1      28.724  18.307   7.363  0.00  0.00     0.130 A 
HETATM   23  C   UNK N   1      27.861  17.224   7.985  0.00  0.00     0.023 A 
HETATM   24  C   UNK N   1      28.192  18.476   8.759  0.00  0.00     0.023 A 
ENDBRANCH  19  22
ENDBRANCH  17  19
BRANCH  16  25
HETATM   25  O   UNK N   1      27.009  17.843   3.755  0.00  0.00    -0.347 OA
HETATM   26  H   UNK N   1      27.725  17.343   3.417  0.00  0.00     0.219 HD
ENDBRANCH  16  25
ENDBRANCH  11  16
ENDBRANCH   9  11
BRANCH   8  27
HETATM   27  O   UNK N   1      24.386  14.903   1.769  0.00  0.00    -0.348 OA
HETATM   28  H   UNK N   1      23.945  14.375   1.134  0.00  0.00     0.219 HD
ENDBRANCH   8  27
ENDBRANCH   4   8
BRANCH   3  29
HETATM   29  O   UNK N   1      24.609  13.776   7.007  0.00  0.00    -0.328 OA
BRANCH  29  30
HETATM   30  C   UNK N   1      24.053  13.387   8.184  0.00  0.00     0.154 A 
HETATM   31  C   UNK N   1      22.734  13.753   8.499  0.00  0.00     0.030 A 
HETATM   32  C   UNK N   1      21.970  14.510   7.602  0.00  0.00     0.040 A 
HETATM   33  C   UNK N   1      22.188  13.379   9.755  0.00  0.00     0.013 A 
HETATM   34  C   UNK N   1      20.668  14.889   7.935  0.00  0.00     0.035 A 
HETATM   35  C   UNK N   1      20.124  14.522   9.165  0.00  0.00     0.025 A 
HETATM   36 Cl   UNK N   1      19.719  15.835   6.810  0.00  0.00    -0.084 Cl
HETATM   37  C   UNK N   1      20.879  13.773  10.069  0.00  0.00     0.017 A 
HETATM   38  C   UNK N   1      22.979  12.619  10.654  0.00  0.00     0.094 A 
HETATM   39  C   UNK N   1      24.249  12.233  10.249  0.00  0.00     0.127 A 
HETATM   40  N   UNK N   1      24.760  12.629   9.059  0.00  0.00    -0.344 N 
ATOM     41  HN  UNK N   1      25.709  12.348   8.813  1.00  0.00     0.167 HD
BRANCH  38  42
HETATM   42  O   UNK N   1      22.592  12.256  11.905  0.00  0.00    -0.354 OA
HETATM   43  C   UNK N   1      23.440  11.846  12.907  0.00  0.00     0.210 C 
ENDBRANCH  38  42
ENDBRANCH  29  30
ENDBRANCH   3  29
BRANCH   5  44
HETATM   44  C   UNK N   1      28.705  14.502   4.254  0.00  0.00     0.185 C 
BRANCH  44  45
HETATM   45  C   UNK N   1      29.593  13.359   3.646  0.00  0.00    -0.022 C 
HETATM   46  C   UNK N   1      28.751  12.280   3.000  0.00  0.00     0.017 C 
HETATM   47  C   UNK N   1      30.436  12.660   4.709  0.00  0.00     0.017 C 
HETATM   48  C   UNK N   1      30.515  13.911   2.572  0.00  0.00     0.017 C 
ENDBRANCH  44  45
BRANCH  44  49
HETATM   49  N   UNK N   1      29.266  15.794   3.892  0.00  0.00    -0.336 N 
HETATM   50  C   UNK N   1      30.070  16.478   4.627  0.00  0.00     0.259 C 
ATOM     51  HN  UNK N   1      29.001  16.188   2.988  1.00  0.00     0.164 HD
BRANCH  50  52
HETATM   52  O   UNK N   1      30.520  17.667   4.180  0.00  0.00    -0.327 OA
HETATM   53  H   UNK N   1      30.127  18.286   3.596  0.00  0.00     0.221 HD
ENDBRANCH  50  52
BRANCH  50  54
HETATM   54  O   UNK N   1      30.501  15.986   5.816  0.00  0.00    -0.307 OA
BRANCH  54  55
HETATM   55  C   UNK N   1      31.833  15.899   6.197  0.00  0.00     0.060 C 
HETATM   56  C   UNK N   1      32.774  15.531   5.050  0.00  0.00     0.046 C 
HETATM   57  C   UNK N   1      32.284  17.207   6.808  0.00  0.00     0.046 C 
HETATM   58  C   UNK N   1      31.944  14.817   7.250  0.00  0.00     0.046 C 
ENDBRANCH  54  55
ENDBRANCH  50  54
ENDBRANCH  44  49
ENDBRANCH   5  44
TORSDOF 17
ENDMDL
MODEL 2
REMARK VINA RESULT:      -6.8      2.753      4.356
REMARK  17 active torsions:
REMARK  status: ('A' for Active; 'I' for Inactive)
REMARK    1  A    between atoms: C_19  and  C_9 
REMARK    2  A    between atoms: C_21  and  O_53 
REMARK    3  A    between atoms: S_55  and  C_22 
REMARK    4  A    between atoms: C_25  and  C_28 
REMARK    5  A    between atoms: O_52  and  C_26 
REMARK    6  A    between atoms: C_30  and  C_27 
REMARK    7  A    between atoms: C_33  and  C_27 
REMARK    8  A    between atoms: C_27  and  N_39 
REMARK    9  A    between atoms: C_28  and  O_46 
REMARK   10  A    between atoms: O_53  and  C_29 
REMARK       I    between atoms: N_45  and  C_30 
REMARK   11  A    between atoms: C_35  and  C_31 
REMARK   12  A    between atoms: O_48  and  C_31 
REMARK   13  A    between atoms: C_32  and  O_49 
REMARK   14  A    between atoms: O_54  and  C_32 
REMARK   15  A    between atoms: O_54  and  C_34 
REMARK   16  A    between atoms: C_35  and  N_41 
REMARK   17  A    between atoms: N_43  and  S_55 
ROOT
HETATM    1  C   UNK N   1      23.486  11.632   3.102  0.00  0.00     0.068 C 
HETATM    2  C   UNK N   1      25.024  12.914   4.502  0.00  0.00     0.159 C 
HETATM    3  C   UNK N   1      23.946  11.816   4.583  0.00  0.00     0.151 C 
HETATM    4  C   UNK N   1      23.562  13.048   2.610  0.00  0.00     0.164 C 
HETATM    5  C   UNK N   1      25.531  14.559   2.717  0.00  0.00     0.244 C 
HETATM    6  N   UNK N   1      24.756  13.559   3.242  0.00  0.00    -0.336 N 
HETATM    7  O   UNK N   1      25.425  14.863   1.544  0.00  0.00    -0.271 OA
ENDROOT
BRANCH   4   8
HETATM    8  C   UNK N   1      23.128  13.632   1.274  0.00  0.00     0.136 C 
HETATM    9  N   UNK N   1      22.118  14.408   1.081  0.00  0.00    -0.355 N 
ATOM     10  HN  UNK N   1      21.946  14.677   0.113  1.00  0.00     0.162 HD
BRANCH   9  11
HETATM   11  C   UNK N   1      21.203  14.946   2.053  0.00  0.00     0.105 A 
HETATM   12  C   UNK N   1      20.032  15.453   1.203  0.00  0.00     0.052 A 
HETATM   13  C   UNK N   1      19.791  14.351   2.186  0.00  0.00     0.046 A 
BRANCH  13  14
HETATM   14  C   UNK N   1      19.546  12.998   1.562  0.00  0.00    -0.029 C 
HETATM   15  C   UNK N   1      18.336  12.441   1.453  0.00  0.00     0.007 C 
ENDBRANCH  13  14
BRANCH  11  16
HETATM   16  C   UNK N   1      21.634  16.148   2.845  0.00  0.00     0.154 C 
HETATM   17  N   UNK N   1      21.118  17.301   2.588  0.00  0.00    -0.266 N 
ATOM     18  HN  UNK N   1      20.522  17.396   1.766  1.00  0.00     0.180 HD
BRANCH  17  19
HETATM   19  S   UNK N   1      21.397  18.718   3.589  0.00  0.00     0.236 S 
HETATM   20  O   UNK N   1      21.118  18.258   5.028  0.00  0.00    -0.205 OA
HETATM   21  O   UNK N   1      22.929  18.801   3.627  0.00  0.00    -0.205 OA
BRANCH  19  22
HETATM   22  C   UNK N   1      20.726  20.357   3.188  0.00  0.00     0.130 A 
HETATM   23  C   UNK N   1      20.638  20.516   1.680  0.00  0.00     0.023 A 
HETATM   24  C   UNK N   1      21.769  21.151   2.452  0.00  0.00     0.023 A 
ENDBRANCH  19  22
ENDBRANCH  17  19
BRANCH  16  25
HETATM   25  O   UNK N   1      22.495  15.992   3.870  0.00  0.00    -0.347 OA
HETATM   26  H   UNK N   1      22.775  15.978   4.764  0.00  0.00     0.219 HD
ENDBRANCH  16  25
ENDBRANCH  11  16
ENDBRANCH   9  11
BRANCH   8  27
HETATM   27  O   UNK N   1      23.820  13.230   0.188  0.00  0.00    -0.348 OA
HETATM   28  H   UNK N   1      23.995  12.718  -0.578  0.00  0.00     0.219 HD
ENDBRANCH   8  27
ENDBRANCH   4   8
BRANCH   3  29
HETATM   29  O   UNK N   1      22.948  12.299   5.429  0.00  0.00    -0.328 OA
BRANCH  29  30
HETATM   30  C   UNK N   1      22.877  12.113   6.773  0.00  0.00     0.154 A 
HETATM   31  C   UNK N   1      22.063  12.943   7.560  0.00  0.00     0.030 A 
HETATM   32  C   UNK N   1      21.302  13.962   6.973  0.00  0.00     0.040 A 
HETATM   33  C   UNK N   1      22.040  12.764   8.969  0.00  0.00     0.013 A 
HETATM   34  C   UNK N   1      20.514  14.797   7.767  0.00  0.00     0.035 A 
HETATM   35  C   UNK N   1      20.485  14.625   9.151  0.00  0.00     0.025 A 
HETATM   36 Cl   UNK N   1      19.568  16.069   7.026  0.00  0.00    -0.084 Cl
HETATM   37  C   UNK N   1      21.242  13.617   9.747  0.00  0.00     0.017 A 
HETATM   38  C   UNK N   1      22.822  11.732   9.547  0.00  0.00     0.094 A 
HETATM   39  C   UNK N   1      23.549  10.905   8.703  0.00  0.00     0.127 A 
HETATM   40  N   UNK N   1      23.580  11.115   7.365  0.00  0.00    -0.344 N 
ATOM     41  HN  UNK N   1      24.151  10.502   6.784  1.00  0.00     0.167 HD
BRANCH  38  42
HETATM   42  O   UNK N   1      22.932  11.503  10.882  0.00  0.00    -0.354 OA
HETATM   43  C   UNK N   1      23.942  11.978  11.684  0.00  0.00     0.210 C 
ENDBRANCH  38  42
ENDBRANCH  29  30
ENDBRANCH   3  29
BRANCH   5  44
HETATM   44  C   UNK N   1      26.406  15.407   3.622  0.00  0.00     0.185 C 
BRANCH  44  45
HETATM   45  C   UNK N   1      27.922  15.017   3.496  0.00  0.00    -0.022 C 
HETATM   46  C   UNK N   1      28.101  13.688   2.794  0.00  0.00     0.017 C 
HETATM   47  C   UNK N   1      28.593  14.871   4.859  0.00  0.00     0.017 C 
HETATM   48  C   UNK N   1      28.678  16.058   2.685  0.00  0.00     0.017 C 
ENDBRANCH  44  45
BRANCH  44  49
HETATM   49  N   UNK N   1      26.215  16.765   3.138  0.00  0.00    -0.336 N 
HETATM   50  C   UNK N   1      26.235  17.818   3.877  0.00  0.00     0.259 C 
ATOM     51  HN  UNK N   1      26.053  16.892   2.138  1.00  0.00     0.164 HD
BRANCH  50  52
HETATM   52  O   UNK N   1      26.041  19.024   3.308  0.00  0.00    -0.327 OA
HETATM   53  H   UNK N   1      26.106  19.292   2.412  0.00  0.00     0.221 HD
ENDBRANCH  50  52
BRANCH  50  54
HETATM   54  O   UNK N   1      26.498  17.722   5.204  0.00  0.00    -0.307 OA
BRANCH  54  55
HETATM   55  C   UNK N   1      27.530  18.384   5.853  0.00  0.00     0.060 C 
HETATM   56  C   UNK N   1      28.788  18.543   4.998  0.00  0.00     0.046 C 
HETATM   57  C   UNK N   1      27.065  19.749   6.310  0.00  0.00     0.046 C 
HETATM   58  C   UNK N   1      27.904  17.574   7.076  0.00  0.00     0.046 C 
ENDBRANCH  54  55
ENDBRANCH  50  54
ENDBRANCH  44  49
ENDBRANCH   5  44
TORSDOF 17
ENDMDL
MODEL 3
REMARK VINA RESULT:      -6.7      3.538      8.516
REMARK  17 active torsions:
REMARK  status: ('A' for Active; 'I' for Inactive)
REMARK    1  A    between atoms: C_19  and  C_9 
REMARK    2  A    between atoms: C_21  and  O_53 
REMARK    3  A    between atoms: S_55  and  C_22 
REMARK    4  A    between atoms: C_25  and  C_28 
REMARK    5  A    between atoms: O_52  and  C_26 
REMARK    6  A    between atoms: C_30  and  C_27 
REMARK    7  A    between atoms: C_33  and  C_27 
REMARK    8  A    between atoms: C_27  and  N_39 
REMARK    9  A    between atoms: C_28  and  O_46 
REMARK   10  A    between atoms: O_53  and  C_29 
REMARK       I    between atoms: N_45  and  C_30 
REMARK   11  A    between atoms: C_35  and  C_31 
REMARK   12  A    between atoms: O_48  and  C_31 
REMARK   13  A    between atoms: C_32  and  O_49 
REMARK   14  A    between atoms: O_54  and  C_32 
REMARK   15  A    between atoms: O_54  and  C_34 
REMARK   16  A    between atoms: C_35  and  N_41 
REMARK   17  A    between atoms: N_43  and  S_55 
ROOT
HETATM    1  C   UNK N   1      25.399  12.338   6.177  0.00  0.00     0.068 C 
HETATM    2  C   UNK N   1      24.731  13.743   4.294  0.00  0.00     0.159 C 
HETATM    3  C   UNK N   1      25.797  13.634   5.400  0.00  0.00     0.151 C 
HETATM    4  C   UNK N   1      23.903  12.425   6.113  0.00  0.00     0.164 C 
HETATM    5  C   UNK N   1      22.509  12.663   4.070  0.00  0.00     0.244 C 
HETATM    6  N   UNK N   1      23.652  12.922   4.780  0.00  0.00    -0.336 N 
HETATM    7  O   UNK N   1      21.775  11.752   4.403  0.00  0.00    -0.271 OA
ENDROOT
BRANCH   4   8
HETATM    8  C   UNK N   1      22.854  11.549   6.782  0.00  0.00     0.136 C 
HETATM    9  N   UNK N   1      22.058  11.912   7.728  0.00  0.00    -0.355 N 
ATOM     10  HN  UNK N   1      21.441  11.186   8.090  1.00  0.00     0.162 HD
BRANCH   9  11
HETATM   11  C   UNK N   1      21.926  13.208   8.340  0.00  0.00     0.105 A 
HETATM   12  C   UNK N   1      21.232  12.908   9.674  0.00  0.00     0.052 A 
HETATM   13  C   UNK N   1      22.610  13.493   9.688  0.00  0.00     0.046 A 
BRANCH  13  14
HETATM   14  C   UNK N   1      23.691  12.537  10.133  0.00  0.00    -0.029 C 
HETATM   15  C   UNK N   1      24.996  12.819  10.081  0.00  0.00     0.007 C 
ENDBRANCH  13  14
BRANCH  11  16
HETATM   16  C   UNK N   1      21.032  14.218   7.676  0.00  0.00     0.154 C 
HETATM   17  N   UNK N   1      20.422  15.099   8.393  0.00  0.00    -0.266 N 
ATOM     18  HN  UNK N   1      20.457  15.011   9.408  1.00  0.00     0.180 HD
BRANCH  17  19
HETATM   19  S   UNK N   1      19.529  16.444   7.699  0.00  0.00     0.236 S 
HETATM   20  O   UNK N   1      20.550  17.209   6.844  0.00  0.00    -0.205 OA
HETATM   21  O   UNK N   1      18.710  15.764   6.594  0.00  0.00    -0.205 OA
BRANCH  19  22
HETATM   22  C   UNK N   1      18.431  17.509   8.678  0.00  0.00     0.130 A 
HETATM   23  C   UNK N   1      17.670  16.666   9.686  0.00  0.00     0.023 A 
HETATM   24  C   UNK N   1      17.003  17.123   8.412  0.00  0.00     0.023 A 
ENDBRANCH  19  22
ENDBRANCH  17  19
BRANCH  16  25
HETATM   25  O   UNK N   1      20.944  14.244   6.331  0.00  0.00    -0.347 OA
HETATM   26  H   UNK N   1      20.735  14.597   5.489  0.00  0.00     0.219 HD
ENDBRANCH  16  25
ENDBRANCH  11  16
ENDBRANCH   9  11
BRANCH   8  27
HETATM   27  O   UNK N   1      22.816  10.256   6.400  0.00  0.00    -0.348 OA
HETATM   28  H   UNK N   1      23.078   9.356   6.389  0.00  0.00     0.219 HD
ENDBRANCH   8  27
ENDBRANCH   4   8
BRANCH   3  29
HETATM   29  O   UNK N   1      25.704  14.799   6.160  0.00  0.00    -0.328 OA
BRANCH  29  30
HETATM   30  C   UNK N   1      25.943  16.063   5.722  0.00  0.00     0.154 A 
HETATM   31  C   UNK N   1      27.262  16.520   5.568  0.00  0.00     0.030 A 
HETATM   32  C   UNK N   1      28.347  15.679   5.848  0.00  0.00     0.040 A 
HETATM   33  C   UNK N   1      27.492  17.860   5.157  0.00  0.00     0.013 A 
HETATM   34  C   UNK N   1      29.654  16.152   5.715  0.00  0.00     0.035 A 
HETATM   35  C   UNK N   1      29.887  17.465   5.308  0.00  0.00     0.025 A 
HETATM   36 Cl   UNK N   1      31.004  15.096   6.067  0.00  0.00    -0.084 Cl
HETATM   37  C   UNK N   1      28.813  18.313   5.032  0.00  0.00     0.017 A 
HETATM   38  C   UNK N   1      26.381  18.699   4.885  0.00  0.00     0.094 A 
HETATM   39  C   UNK N   1      25.107  18.160   4.991  0.00  0.00     0.127 A 
HETATM   40  N   UNK N   1      24.912  16.889   5.415  0.00  0.00    -0.344 N 
ATOM     41  HN  UNK N   1      23.958  16.542   5.508  1.00  0.00     0.167 HD
BRANCH  38  42
HETATM   42  O   UNK N   1      26.471  20.012   4.547  0.00  0.00    -0.354 OA
HETATM   43  C   UNK N   1      26.348  20.510   3.271  0.00  0.00     0.210 C 
ENDBRANCH  38  42
ENDBRANCH  29  30
ENDBRANCH   3  29
BRANCH   5  44
HETATM   44  C   UNK N   1      22.062  13.605   2.967  0.00  0.00     0.185 C 
BRANCH  44  45
HETATM   45  C   UNK N   1      22.429  13.050   1.545  0.00  0.00    -0.022 C 
HETATM   46  C   UNK N   1      23.175  11.736   1.632  0.00  0.00     0.017 C 
HETATM   47  C   UNK N   1      23.338  14.004   0.773  0.00  0.00     0.017 C 
HETATM   48  C   UNK N   1      21.173  12.798   0.727  0.00  0.00     0.017 C 
ENDBRANCH  44  45
BRANCH  44  49
HETATM   49  N   UNK N   1      20.616  13.661   3.106  0.00  0.00    -0.336 N 
HETATM   50  C   UNK N   1      19.956  14.684   3.520  0.00  0.00     0.259 C 
ATOM     51  HN  UNK N   1      20.085  12.825   2.855  1.00  0.00     0.164 HD
BRANCH  50  52
HETATM   52  O   UNK N   1      18.614  14.610   3.607  0.00  0.00    -0.327 OA
HETATM   53  H   UNK N   1      18.044  14.726   4.343  0.00  0.00     0.221 HD
ENDBRANCH  50  52
BRANCH  50  54
HETATM   54  O   UNK N   1      20.598  15.842   3.817  0.00  0.00    -0.307 OA
BRANCH  54  55
HETATM   55  C   UNK N   1      20.626  16.961   2.997  0.00  0.00     0.060 C 
HETATM   56  C   UNK N   1      20.514  16.631   1.508  0.00  0.00     0.046 C 
HETATM   57  C   UNK N   1      19.514  17.913   3.379  0.00  0.00     0.046 C 
HETATM   58  C   UNK N   1      21.950  17.663   3.215  0.00  0.00     0.046 C 
ENDBRANCH  54  55
ENDBRANCH  50  54
ENDBRANCH  44  49
ENDBRANCH   5  44
TORSDOF 17
ENDMDL
MODEL 4
REMARK VINA RESULT:      -6.7      3.915      8.495
REMARK  17 active torsions:
REMARK  status: ('A' for Active; 'I' for Inactive)
REMARK    1  A    between atoms: C_19  and  C_9 
REMARK    2  A    between atoms: C_21  and  O_53 
REMARK    3  A    between atoms: S_55  and  C_22 
REMARK    4  A    between atoms: C_25  and  C_28 
REMARK    5  A    between atoms: O_52  and  C_26 
REMARK    6  A    between atoms: C_30  and  C_27 
REMARK    7  A    between atoms: C_33  and  C_27 
REMARK    8  A    between atoms: C_27  and  N_39 
REMARK    9  A    between atoms: C_28  and  O_46 
REMARK   10  A    between atoms: O_53  and  C_29 
REMARK       I    between atoms: N_45  and  C_30 
REMARK   11  A    between atoms: C_35  and  C_31 
REMARK   12  A    between atoms: O_48  and  C_31 
REMARK   13  A    between atoms: C_32  and  O_49 
REMARK   14  A    between atoms: O_54  and  C_32 
REMARK   15  A    between atoms: O_54  and  C_34 
REMARK   16  A    between atoms: C_35  and  N_41 
REMARK   17  A    between atoms: N_43  and  S_55 
ROOT
HETATM    1  C   UNK N   1      21.118  17.745   5.178  0.00  0.00     0.068 C 
HETATM    2  C   UNK N   1      22.520  16.220   6.473  0.00  0.00     0.159 C 
HETATM    3  C   UNK N   1      22.594  17.510   5.635  0.00  0.00     0.151 C 
HETATM    4  C   UNK N   1      20.667  16.331   4.961  0.00  0.00     0.164 C 
HETATM    5  C   UNK N   1      20.772  14.464   6.597  0.00  0.00     0.244 C 
HETATM    6  N   UNK N   1      21.286  15.610   6.048  0.00  0.00    -0.336 N 
HETATM    7  O   UNK N   1      19.611  14.159   6.401  0.00  0.00    -0.271 OA
ENDROOT
BRANCH   4   8
HETATM    8  C   UNK N   1      19.359  15.812   4.383  0.00  0.00     0.136 C 
HETATM    9  N   UNK N   1      19.222  15.186   3.265  0.00  0.00    -0.355 N 
ATOM     10  HN  UNK N   1      18.266  14.941   3.009  1.00  0.00     0.162 HD
BRANCH   9  11
HETATM   11  C   UNK N   1      20.243  14.784   2.333  0.00  0.00     0.105 A 
HETATM   12  C   UNK N   1      19.483  14.636   1.009  0.00  0.00     0.052 A 
HETATM   13  C   UNK N   1      20.560  15.670   1.116  0.00  0.00     0.046 A 
BRANCH  13  14
HETATM   14  C   UNK N   1      20.059  17.094   1.145  0.00  0.00    -0.029 C 
HETATM   15  C   UNK N   1      20.774  18.121   1.614  0.00  0.00     0.007 C 
ENDBRANCH  13  14
BRANCH  11  16
HETATM   16  C   UNK N   1      20.902  13.449   2.534  0.00  0.00     0.154 C 
HETATM   17  N   UNK N   1      20.665  12.489   1.706  0.00  0.00    -0.266 N 
ATOM     18  HN  UNK N   1      19.935  12.618   1.006  1.00  0.00     0.180 HD
BRANCH  17  19
HETATM   19  S   UNK N   1      21.542  10.966   1.731  0.00  0.00     0.236 S 
HETATM   20  O   UNK N   1      22.985  11.337   2.105  0.00  0.00    -0.205 OA
HETATM   21  O   UNK N   1      21.077  10.337   3.052  0.00  0.00    -0.205 OA
BRANCH  19  22
HETATM   22  C   UNK N   1      21.410   9.729   0.409  0.00  0.00     0.130 A 
HETATM   23  C   UNK N   1      20.001   9.737  -0.157  0.00  0.00     0.023 A 
HETATM   24  C   UNK N   1      20.428   8.669   0.820  0.00  0.00     0.023 A 
ENDBRANCH  19  22
ENDBRANCH  17  19
BRANCH  16  25
HETATM   25  O   UNK N   1      21.797  13.294   3.529  0.00  0.00    -0.347 OA
HETATM   26  H   UNK N   1      22.273  13.525   4.302  0.00  0.00     0.219 HD
ENDBRANCH  16  25
ENDBRANCH  11  16
ENDBRANCH   9  11
BRANCH   8  27
HETATM   27  O   UNK N   1      18.236  16.110   5.070  0.00  0.00    -0.348 OA
HETATM   28  H   UNK N   1      17.402  15.945   5.464  0.00  0.00     0.219 HD
ENDBRANCH   8  27
ENDBRANCH   4   8
BRANCH   3  29
HETATM   29  O   UNK N   1      23.476  17.253   4.586  0.00  0.00    -0.328 OA
BRANCH  29  30
HETATM   30  C   UNK N   1      24.697  16.666   4.691  0.00  0.00     0.154 A 
HETATM   31  C   UNK N   1      25.113  15.725   3.736  0.00  0.00     0.030 A 
HETATM   32  C   UNK N   1      24.287  15.389   2.656  0.00  0.00     0.040 A 
HETATM   33  C   UNK N   1      26.372  15.085   3.890  0.00  0.00     0.013 A 
HETATM   34  C   UNK N   1      24.700  14.435   1.725  0.00  0.00     0.035 A 
HETATM   35  C   UNK N   1      25.936  13.805   1.868  0.00  0.00     0.025 A 
HETATM   36 Cl   UNK N   1      23.662  14.020   0.379  0.00  0.00    -0.084 Cl
HETATM   37  C   UNK N   1      26.765  14.128   2.944  0.00  0.00     0.017 A 
HETATM   38  C   UNK N   1      27.192  15.431   4.994  0.00  0.00     0.094 A 
HETATM   39  C   UNK N   1      26.748  16.420   5.860  0.00  0.00     0.127 A 
HETATM   40  N   UNK N   1      25.530  16.993   5.711  0.00  0.00    -0.344 N 
ATOM     41  HN  UNK N   1      25.229  17.694   6.387  1.00  0.00     0.167 HD
BRANCH  38  42
HETATM   42  O   UNK N   1      28.384  14.846   5.283  0.00  0.00    -0.354 OA
HETATM   43  C   UNK N   1      29.598  15.490   5.295  0.00  0.00     0.210 C 
ENDBRANCH  38  42
ENDBRANCH  29  30
ENDBRANCH   3  29
BRANCH   5  44
HETATM   44  C   UNK N   1      21.681  13.483   7.314  0.00  0.00     0.185 C 
BRANCH  44  45
HETATM   45  C   UNK N   1      21.661  13.702   8.869  0.00  0.00    -0.022 C 
HETATM   46  C   UNK N   1      23.059  13.814   9.437  0.00  0.00     0.017 C 
HETATM   47  C   UNK N   1      20.996  12.540   9.603  0.00  0.00     0.017 C 
HETATM   48  C   UNK N   1      20.930  14.988   9.219  0.00  0.00     0.017 C 
ENDBRANCH  44  45
BRANCH  44  49
HETATM   49  N   UNK N   1      21.119  12.178   7.002  0.00  0.00    -0.336 N 
HETATM   50  C   UNK N   1      21.643  11.327   6.192  0.00  0.00     0.259 C 
ATOM     51  HN  UNK N   1      20.245  11.919   7.460  1.00  0.00     0.164 HD
BRANCH  50  52
HETATM   52  O   UNK N   1      21.023  10.149   5.984  0.00  0.00    -0.327 OA
HETATM   53  H   UNK N   1      20.153   9.873   6.200  0.00  0.00     0.221 HD
ENDBRANCH  50  52
BRANCH  50  54
HETATM   54  O   UNK N   1      22.832  11.590   5.593  0.00  0.00    -0.307 OA
BRANCH  54  55
HETATM   55  C   UNK N   1      24.061  11.127   6.043  0.00  0.00     0.060 C 
HETATM   56  C   UNK N   1      24.015  10.544   7.456  0.00  0.00     0.046 C 
HETATM   57  C   UNK N   1      24.601  10.082   5.092  0.00  0.00     0.046 C 
HETATM   58  C   UNK N   1      25.020  12.299   6.059  0.00  0.00     0.046 C 
ENDBRANCH  54  55
ENDBRANCH  50  54
ENDBRANCH  44  49
ENDBRANCH   5  44
TORSDOF 17
ENDMDL
MODEL 5
REMARK VINA RESULT:      -6.7      3.712      7.508
REMARK  17 active torsions:
REMARK  status: ('A' for Active; 'I' for Inactive)
REMARK    1  A    between atoms: C_19  and  C_9 
REMARK    2  A    between atoms: C_21  and  O_53 
REMARK    3  A    between atoms: S_55  and  C_22 
REMARK    4  A    between atoms: C_25  and  C_28 
REMARK    5  A    between atoms: O_52  and  C_26 
REMARK    6  A    between atoms: C_30  and  C_27 
REMARK    7  A    between atoms: C_33  and  C_27 
REMARK    8  A    between atoms: C_27  and  N_39 
REMARK    9  A    between atoms: C_28  and  O_46 
REMARK   10  A    between atoms: O_53  and  C_29 
REMARK       I    between atoms: N_45  and  C_30 
REMARK   11  A    between atoms: C_35  and  C_31 
REMARK   12  A    between atoms: O_48  and  C_31 
REMARK   13  A    between atoms: C_32  and  O_49 
REMARK   14  A    between atoms: O_54  and  C_32 
REMARK   15  A    between atoms: O_54  and  C_34 
REMARK   16  A    between atoms: C_35  and  N_41 
REMARK   17  A    between atoms: N_43  and  S_55 
ROOT
HETATM    1  C   UNK N   1      21.540  16.623   6.432  0.00  0.00     0.068 C 
HETATM    2  C   UNK N   1      22.989  14.694   6.051  0.00  0.00     0.159 C 
HETATM    3  C   UNK N   1      23.043  16.200   6.366  0.00  0.00     0.151 C 
HETATM    4  C   UNK N   1      20.962  15.758   5.351  0.00  0.00     0.164 C 
HETATM    5  C   UNK N   1      21.151  13.288   5.157  0.00  0.00     0.244 C 
HETATM    6  N   UNK N   1      21.668  14.508   5.508  0.00  0.00    -0.336 N 
HETATM    7  O   UNK N   1      19.955  13.160   4.977  0.00  0.00    -0.271 OA
ENDROOT
BRANCH   4   8
HETATM    8  C   UNK N   1      19.553  15.741   4.777  0.00  0.00     0.136 C 
HETATM    9  N   UNK N   1      19.211  16.146   3.602  0.00  0.00    -0.355 N 
ATOM     10  HN  UNK N   1      18.215  16.100   3.391  1.00  0.00     0.162 HD
BRANCH   9  11
HETATM   11  C   UNK N   1      20.052  16.651   2.548  0.00  0.00     0.105 A 
HETATM   12  C   UNK N   1      21.415  16.010   2.836  0.00  0.00     0.052 A 
HETATM   13  C   UNK N   1      20.710  15.674   1.558  0.00  0.00     0.046 A 
BRANCH  13  14
HETATM   14  C   UNK N   1      20.158  14.270   1.499  0.00  0.00    -0.029 C 
HETATM   15  C   UNK N   1      19.546  13.760   0.426  0.00  0.00     0.007 C 
ENDBRANCH  13  14
BRANCH  11  16
HETATM   16  C   UNK N   1      20.335  18.126   2.512  0.00  0.00     0.154 C 
HETATM   17  N   UNK N   1      21.527  18.553   2.757  0.00  0.00    -0.266 N 
ATOM     18  HN  UNK N   1      22.222  17.889   3.096  1.00  0.00     0.180 HD
BRANCH  17  19
HETATM   19  S   UNK N   1      22.006  20.230   2.535  0.00  0.00     0.236 S 
HETATM   20  O   UNK N   1      21.637  20.567   1.083  0.00  0.00    -0.205 OA
HETATM   21  O   UNK N   1      20.900  20.992   3.277  0.00  0.00    -0.205 OA
BRANCH  19  22
HETATM   22  C   UNK N   1      23.621  20.871   3.061  0.00  0.00     0.130 A 
HETATM   23  C   UNK N   1      24.725  20.152   2.306  0.00  0.00     0.023 A 
HETATM   24  C   UNK N   1      24.397  19.770   3.729  0.00  0.00     0.023 A 
ENDBRANCH  19  22
ENDBRANCH  17  19
BRANCH  16  25
HETATM   25  O   UNK N   1      19.360  18.981   2.143  0.00  0.00    -0.347 OA
HETATM   26  H   UNK N   1      18.891  19.556   1.573  0.00  0.00     0.219 HD
ENDBRANCH  16  25
ENDBRANCH  11  16
ENDBRANCH   9  11
BRANCH   8  27
HETATM   27  O   UNK N   1      18.568  15.342   5.608  0.00  0.00    -0.348 OA
HETATM   28  H   UNK N   1      17.907  15.440   6.265  0.00  0.00     0.219 HD
ENDBRANCH   8  27
ENDBRANCH   4   8
BRANCH   3  29
HETATM   29  O   UNK N   1      23.754  16.800   5.327  0.00  0.00    -0.328 OA
BRANCH  29  30
HETATM   30  C   UNK N   1      25.094  16.712   5.118  0.00  0.00     0.154 A 
HETATM   31  C   UNK N   1      25.588  16.128   3.940  0.00  0.00     0.030 A 
HETATM   32  C   UNK N   1      24.713  15.642   2.961  0.00  0.00     0.040 A 
HETATM   33  C   UNK N   1      26.992  16.000   3.762  0.00  0.00     0.013 A 
HETATM   34  C   UNK N   1      25.215  15.042   1.805  0.00  0.00     0.035 A 
HETATM   35  C   UNK N   1      26.592  14.916   1.622  0.00  0.00     0.025 A 
HETATM   36 Cl   UNK N   1      24.115  14.437   0.587  0.00  0.00    -0.084 Cl
HETATM   37  C   UNK N   1      27.473  15.392   2.594  0.00  0.00     0.017 A 
HETATM   38  C   UNK N   1      27.864  16.491   4.768  0.00  0.00     0.094 A 
HETATM   39  C   UNK N   1      27.307  17.119   5.873  0.00  0.00     0.127 A 
HETATM   40  N   UNK N   1      25.965  17.200   6.036  0.00  0.00    -0.344 N 
ATOM     41  HN  UNK N   1      25.597  17.643   6.878  1.00  0.00     0.167 HD
BRANCH  38  42
HETATM   42  O   UNK N   1      29.216  16.371   4.741  0.00  0.00    -0.354 OA
HETATM   43  C   UNK N   1      30.105  17.393   4.979  0.00  0.00     0.210 C 
ENDBRANCH  38  42
ENDBRANCH  29  30
ENDBRANCH   3  29
BRANCH   5  44
HETATM   44  C   UNK N   1      22.075  12.129   4.830  0.00  0.00     0.185 C 
BRANCH  44  45
HETATM   45  C   UNK N   1      22.096  11.061   5.981  0.00  0.00    -0.022 C 
HETATM   46  C   UNK N   1      21.224   9.868   5.654  0.00  0.00     0.017 C 
HETATM   47  C   UNK N   1      21.568  11.625   7.297  0.00  0.00     0.017 C 
HETATM   48  C   UNK N   1      23.506  10.539   6.201  0.00  0.00     0.017 C 
ENDBRANCH  44  45
BRANCH  44  49
HETATM   49  N   UNK N   1      21.500  11.538   3.632  0.00  0.00    -0.336 N 
HETATM   50  C   UNK N   1      22.096  11.453   2.496  0.00  0.00     0.259 C 
ATOM     51  HN  UNK N   1      20.553  11.162   3.699  1.00  0.00     0.164 HD
BRANCH  50  52
HETATM   52  O   UNK N   1      21.454  10.883   1.457  0.00  0.00    -0.327 OA
HETATM   53  H   UNK N   1      21.040  10.045   1.383  0.00  0.00     0.221 HD
ENDBRANCH  50  52
BRANCH  50  54
HETATM   54  O   UNK N   1      23.375  11.884   2.356  0.00  0.00    -0.307 OA
BRANCH  54  55
HETATM   55  C   UNK N   1      24.486  11.055   2.302  0.00  0.00     0.060 C 
HETATM   56  C   UNK N   1      24.195   9.615   2.728  0.00  0.00     0.046 C 
HETATM   57  C   UNK N   1      25.063  11.051   0.904  0.00  0.00     0.046 C 
HETATM   58  C   UNK N   1      25.529  11.613   3.247  0.00  0.00     0.046 C 
ENDBRANCH  54  55
ENDBRANCH  50  54
ENDBRANCH  44  49
ENDBRANCH   5  44
TORSDOF 17
ENDMDL
MODEL 6
REMARK VINA RESULT:      -6.5      3.682      8.173
REMARK  17 active torsions:
REMARK  status: ('A' for Active; 'I' for Inactive)
REMARK    1  A    between atoms: C_19  and  C_9 
REMARK    2  A    between atoms: C_21  and  O_53 
REMARK    3  A    between atoms: S_55  and  C_22 
REMARK    4  A    between atoms: C_25  and  C_28 
REMARK    5  A    between atoms: O_52  and  C_26 
REMARK    6  A    between atoms: C_30  and  C_27 
REMARK    7  A    between atoms: C_33  and  C_27 
REMARK    8  A    between atoms: C_27  and  N_39 
REMARK    9  A    between atoms: C_28  and  O_46 
REMARK   10  A    between atoms: O_53  and  C_29 
REMARK       I    between atoms: N_45  and  C_30 
REMARK   11  A    between atoms: C_35  and  C_31 
REMARK   12  A    between atoms: O_48  and  C_31 
REMARK   13  A    between atoms: C_32  and  O_49 
REMARK   14  A    between atoms: O_54  and  C_32 
REMARK   15  A    between atoms: O_54  and  C_34 
REMARK   16  A    between atoms: C_35  and  N_41 
REMARK   17  A    between atoms: N_43  and  S_55 
ROOT
HETATM    1  C   UNK N   1      21.058  18.050   4.958  0.00  0.00     0.068 C 
HETATM    2  C   UNK N   1      22.861  16.662   5.849  0.00  0.00     0.159 C 
HETATM    3  C   UNK N   1      22.607  18.016   5.158  0.00  0.00     0.151 C 
HETATM    4  C   UNK N   1      20.786  16.606   4.655  0.00  0.00     0.164 C 
HETATM    5  C   UNK N   1      21.430  14.645   6.038  0.00  0.00     0.244 C 
HETATM    6  N   UNK N   1      21.675  15.902   5.549  0.00  0.00    -0.336 N 
HETATM    7  O   UNK N   1      20.308  14.177   5.986  0.00  0.00    -0.271 OA
ENDROOT
BRANCH   4   8
HETATM    8  C   UNK N   1      19.489  15.937   4.226  0.00  0.00     0.136 C 
HETATM    9  N   UNK N   1      19.286  15.327   3.110  0.00  0.00    -0.355 N 
ATOM     10  HN  UNK N   1      18.343  14.967   2.967  1.00  0.00     0.162 HD
BRANCH   9  11
HETATM   11  C   UNK N   1      20.217  15.085   2.039  0.00  0.00     0.105 A 
HETATM   12  C   UNK N   1      19.340  15.126   0.782  0.00  0.00     0.052 A 
HETATM   13  C   UNK N   1      20.421  16.148   0.946  0.00  0.00     0.046 A 
BRANCH  13  14
HETATM   14  C   UNK N   1      19.923  17.544   1.235  0.00  0.00    -0.029 C 
HETATM   15  C   UNK N   1      20.729  18.592   1.429  0.00  0.00     0.007 C 
ENDBRANCH  13  14
BRANCH  11  16
HETATM   16  C   UNK N   1      20.894  13.744   1.976  0.00  0.00     0.154 C 
HETATM   17  N   UNK N   1      20.534  12.889   1.081  0.00  0.00    -0.266 N 
ATOM     18  HN  UNK N   1      19.710  13.092   0.516  1.00  0.00     0.180 HD
BRANCH  17  19
HETATM   19  S   UNK N   1      21.400  11.387   0.791  0.00  0.00     0.236 S 
HETATM   20  O   UNK N   1      21.329  10.617   2.118  0.00  0.00    -0.205 OA
HETATM   21  O   UNK N   1      20.393  10.580  -0.041  0.00  0.00    -0.205 OA
BRANCH  19  22
HETATM   22  C   UNK N   1      23.022  11.324  -0.021  0.00  0.00     0.130 A 
HETATM   23  C   UNK N   1      24.065  11.968   0.875  0.00  0.00     0.023 A 
HETATM   24  C   UNK N   1      23.491  12.726  -0.297  0.00  0.00     0.023 A 
ENDBRANCH  19  22
ENDBRANCH  17  19
BRANCH  16  25
HETATM   25  O   UNK N   1      21.925  13.482   2.803  0.00  0.00    -0.347 OA
HETATM   26  H   UNK N   1      22.797  13.235   3.040  0.00  0.00     0.219 HD
ENDBRANCH  16  25
ENDBRANCH  11  16
ENDBRANCH   9  11
BRANCH   8  27
HETATM   27  O   UNK N   1      18.438  16.069   5.062  0.00  0.00    -0.348 OA
HETATM   28  H   UNK N   1      17.580  15.893   5.397  0.00  0.00     0.219 HD
ENDBRANCH   8  27
ENDBRANCH   4   8
BRANCH   3  29
HETATM   29  O   UNK N   1      23.331  17.996   3.966  0.00  0.00    -0.328 OA
BRANCH  29  30
HETATM   30  C   UNK N   1      24.596  17.528   3.804  0.00  0.00     0.154 A 
HETATM   31  C   UNK N   1      25.689  18.260   4.295  0.00  0.00     0.030 A 
HETATM   32  C   UNK N   1      25.493  19.471   4.970  0.00  0.00     0.040 A 
HETATM   33  C   UNK N   1      27.007  17.778   4.072  0.00  0.00     0.013 A 
HETATM   34  C   UNK N   1      26.589  20.202   5.433  0.00  0.00     0.035 A 
HETATM   35  C   UNK N   1      27.885  19.734   5.220  0.00  0.00     0.025 A 
HETATM   36 Cl   UNK N   1      26.336  21.715   6.275  0.00  0.00    -0.084 Cl
HETATM   37  C   UNK N   1      28.092  18.531   4.544  0.00  0.00     0.017 A 
HETATM   38  C   UNK N   1      27.187  16.553   3.379  0.00  0.00     0.094 A 
HETATM   39  C   UNK N   1      26.059  15.849   2.983  0.00  0.00     0.127 A 
HETATM   40  N   UNK N   1      24.814  16.343   3.179  0.00  0.00    -0.344 N 
ATOM     41  HN  UNK N   1      24.013  15.807   2.846  1.00  0.00     0.167 HD
BRANCH  38  42
HETATM   42  O   UNK N   1      28.394  16.023   3.051  0.00  0.00    -0.354 OA
HETATM   43  C   UNK N   1      29.019  15.002   3.726  0.00  0.00     0.210 C 
ENDBRANCH  38  42
ENDBRANCH  29  30
ENDBRANCH   3  29
BRANCH   5  44
HETATM   44  C   UNK N   1      22.577  13.764   6.495  0.00  0.00     0.185 C 
BRANCH  44  45
HETATM   45  C   UNK N   1      22.492  13.451   8.032  0.00  0.00    -0.022 C 
HETATM   46  C   UNK N   1      21.782  12.141   8.298  0.00  0.00     0.017 C 
HETATM   47  C   UNK N   1      21.712  14.519   8.793  0.00  0.00     0.017 C 
HETATM   48  C   UNK N   1      23.883  13.337   8.633  0.00  0.00     0.017 C 
ENDBRANCH  44  45
BRANCH  44  49
HETATM   49  N   UNK N   1      22.407  12.532   5.741  0.00  0.00    -0.336 N 
HETATM   50  C   UNK N   1      23.209  12.114   4.826  0.00  0.00     0.259 C 
ATOM     51  HN  UNK N   1      21.591  11.956   5.954  1.00  0.00     0.164 HD
BRANCH  50  52
HETATM   52  O   UNK N   1      22.939  10.954   4.196  0.00  0.00    -0.327 OA
HETATM   53  H   UNK N   1      23.416  10.498   3.530  0.00  0.00     0.221 HD
ENDBRANCH  50  52
BRANCH  50  54
HETATM   54  O   UNK N   1      24.338  12.805   4.534  0.00  0.00    -0.307 OA
BRANCH  54  55
HETATM   55  C   UNK N   1      25.621  12.404   4.882  0.00  0.00     0.060 C 
HETATM   56  C   UNK N   1      25.659  11.097   5.673  0.00  0.00     0.046 C 
HETATM   57  C   UNK N   1      26.474  12.258   3.641  0.00  0.00     0.046 C 
HETATM   58  C   UNK N   1      26.225  13.487   5.751  0.00  0.00     0.046 C 
ENDBRANCH  54  55
ENDBRANCH  50  54
ENDBRANCH  44  49
ENDBRANCH   5  44
TORSDOF 17
ENDMDL
MODEL 7
REMARK VINA RESULT:      -6.5     14.079     17.256
REMARK  17 active torsions:
REMARK  status: ('A' for Active; 'I' for Inactive)
REMARK    1  A    between atoms: C_19  and  C_9 
REMARK    2  A    between atoms: C_21  and  O_53 
REMARK    3  A    between atoms: S_55  and  C_22 
REMARK    4  A    between atoms: C_25  and  C_28 
REMARK    5  A    between atoms: O_52  and  C_26 
REMARK    6  A    between atoms: C_30  and  C_27 
REMARK    7  A    between atoms: C_33  and  C_27 
REMARK    8  A    between atoms: C_27  and  N_39 
REMARK    9  A    between atoms: C_28  and  O_46 
REMARK   10  A    between atoms: O_53  and  C_29 
REMARK       I    between atoms: N_45  and  C_30 
REMARK   11  A    between atoms: C_35  and  C_31 
REMARK   12  A    between atoms: O_48  and  C_31 
REMARK   13  A    between atoms: C_32  and  O_49 
REMARK   14  A    between atoms: O_54  and  C_32 
REMARK   15  A    between atoms: O_54  and  C_34 
REMARK   16  A    between atoms: C_35  and  N_41 
REMARK   17  A    between atoms: N_43  and  S_55 
ROOT
HETATM    1  C   UNK N   1      25.526  23.250  -6.178  0.00  0.00     0.068 C 
HETATM    2  C   UNK N   1      27.519  24.106  -5.054  0.00  0.00     0.159 C 
HETATM    3  C   UNK N   1      26.047  24.459  -5.336  0.00  0.00     0.151 C 
HETATM    4  C   UNK N   1      26.745  22.935  -6.994  0.00  0.00     0.164 C 
HETATM    5  C   UNK N   1      29.030  22.465  -6.139  0.00  0.00     0.244 C 
HETATM    6  N   UNK N   1      27.831  23.125  -6.061  0.00  0.00    -0.336 N 
HETATM    7  O   UNK N   1      29.134  21.463  -6.820  0.00  0.00    -0.271 OA
ENDROOT
BRANCH   4   8
HETATM    8  C   UNK N   1      26.916  21.940  -8.131  0.00  0.00     0.136 C 
HETATM    9  N   UNK N   1      27.522  22.163  -9.246  0.00  0.00    -0.355 N 
ATOM     10  HN  UNK N   1      27.510  21.396  -9.917  1.00  0.00     0.162 HD
BRANCH   9  11
HETATM   11  C   UNK N   1      28.214  23.353  -9.667  0.00  0.00     0.105 A 
HETATM   12  C   UNK N   1      27.732  23.559 -11.108  0.00  0.00     0.052 A 
HETATM   13  C   UNK N   1      27.413  24.600 -10.080  0.00  0.00     0.046 A 
BRANCH  13  14
HETATM   14  C   UNK N   1      25.959  24.655  -9.676  0.00  0.00    -0.029 C 
HETATM   15  C   UNK N   1      25.265  25.791  -9.562  0.00  0.00     0.007 C 
ENDBRANCH  13  14
BRANCH  11  16
HETATM   16  C   UNK N   1      29.712  23.300  -9.781  0.00  0.00     0.154 C 
HETATM   17  N   UNK N   1      30.325  22.177  -9.623  0.00  0.00    -0.266 N 
ATOM     18  HN  UNK N   1      29.790  21.371  -9.299  1.00  0.00     0.180 HD
BRANCH  17  19
HETATM   19  S   UNK N   1      32.041  21.971  -9.942  0.00  0.00     0.236 S 
HETATM   20  O   UNK N   1      32.293  22.690 -11.276  0.00  0.00    -0.205 OA
HETATM   21  O   UNK N   1      32.680  22.974  -8.972  0.00  0.00    -0.205 OA
BRANCH  19  22
HETATM   22  C   UNK N   1      32.888  20.374  -9.785  0.00  0.00     0.130 A 
HETATM   23  C   UNK N   1      32.289  19.380 -10.764  0.00  0.00     0.023 A 
HETATM   24  C   UNK N   1      31.909  19.340  -9.304  0.00  0.00     0.023 A 
ENDBRANCH  19  22
ENDBRANCH  17  19
BRANCH  16  25
HETATM   25  O   UNK N   1      30.390  24.412 -10.126  0.00  0.00    -0.347 OA
HETATM   26  H   UNK N   1      30.703  25.087 -10.695  0.00  0.00     0.219 HD
ENDBRANCH  16  25
ENDBRANCH  11  16
ENDBRANCH   9  11
BRANCH   8  27
HETATM   27  O   UNK N   1      26.305  20.746  -7.984  0.00  0.00    -0.348 OA
HETATM   28  H   UNK N   1      25.838  20.070  -7.532  0.00  0.00     0.219 HD
ENDBRANCH   8  27
ENDBRANCH   4   8
BRANCH   3  29
HETATM   29  O   UNK N   1      26.054  25.669  -6.029  0.00  0.00    -0.328 OA
BRANCH  29  30
HETATM   30  C   UNK N   1      26.274  26.898  -5.494  0.00  0.00     0.154 A 
HETATM   31  C   UNK N   1      27.148  27.798  -6.124  0.00  0.00     0.030 A 
HETATM   32  C   UNK N   1      27.793  27.450  -7.318  0.00  0.00     0.040 A 
HETATM   33  C   UNK N   1      27.404  29.059  -5.523  0.00  0.00     0.013 A 
HETATM   34  C   UNK N   1      28.678  28.343  -7.925  0.00  0.00     0.035 A 
HETATM   35  C   UNK N   1      28.932  29.584  -7.341  0.00  0.00     0.025 A 
HETATM   36 Cl   UNK N   1      29.480  27.901  -9.416  0.00  0.00    -0.084 Cl
HETATM   37  C   UNK N   1      28.299  29.939  -6.149  0.00  0.00     0.017 A 
HETATM   38  C   UNK N   1      26.749  29.392  -4.310  0.00  0.00     0.094 A 
HETATM   39  C   UNK N   1      25.845  28.482  -3.779  0.00  0.00     0.127 A 
HETATM   40  N   UNK N   1      25.641  27.273  -4.353  0.00  0.00    -0.344 N 
ATOM     41  HN  UNK N   1      24.991  26.622  -3.914  1.00  0.00     0.167 HD
BRANCH  38  42
HETATM   42  O   UNK N   1      26.958  30.536  -3.609  0.00  0.00    -0.354 OA
HETATM   43  C   UNK N   1      27.670  30.626  -2.436  0.00  0.00     0.210 C 
ENDBRANCH  38  42
ENDBRANCH  29  30
ENDBRANCH   3  29
BRANCH   5  44
HETATM   44  C   UNK N   1      30.277  23.065  -5.516  0.00  0.00     0.185 C 
BRANCH  44  45
HETATM   45  C   UNK N   1      31.217  21.959  -4.918  0.00  0.00    -0.022 C 
HETATM   46  C   UNK N   1      30.464  21.018  -4.003  0.00  0.00     0.017 C 
HETATM   47  C   UNK N   1      32.344  22.555  -4.078  0.00  0.00     0.017 C 
HETATM   48  C   UNK N   1      31.824  21.115  -6.027  0.00  0.00     0.017 C 
ENDBRANCH  44  45
BRANCH  44  49
HETATM   49  N   UNK N   1      30.951  23.726  -6.622  0.00  0.00    -0.336 N 
HETATM   50  C   UNK N   1      31.064  25.000  -6.758  0.00  0.00     0.259 C 
ATOM     51  HN  UNK N   1      31.364  23.134  -7.344  1.00  0.00     0.164 HD
BRANCH  50  52
HETATM   52  O   UNK N   1      31.712  25.491  -7.833  0.00  0.00    -0.327 OA
HETATM   53  H   UNK N   1      31.657  26.332  -8.245  0.00  0.00     0.221 HD
ENDBRANCH  50  52
BRANCH  50  54
HETATM   54  O   UNK N   1      30.583  25.838  -5.806  0.00  0.00    -0.307 OA
BRANCH  54  55
HETATM   55  C   UNK N   1      31.362  26.479  -4.852  0.00  0.00     0.060 C 
HETATM   56  C   UNK N   1      32.841  26.093  -4.912  0.00  0.00     0.046 C 
HETATM   57  C   UNK N   1      31.235  27.979  -5.000  0.00  0.00     0.046 C 
HETATM   58  C   UNK N   1      30.838  26.087  -3.487  0.00  0.00     0.046 C 
ENDBRANCH  54  55
ENDBRANCH  50  54
ENDBRANCH  44  49
ENDBRANCH   5  44
TORSDOF 17
ENDMDL
MODEL 8
REMARK VINA RESULT:      -6.4      3.959      8.648
REMARK  17 active torsions:
REMARK  status: ('A' for Active; 'I' for Inactive)
REMARK    1  A    between atoms: C_19  and  C_9 
REMARK    2  A    between atoms: C_21  and  O_53 
REMARK    3  A    between atoms: S_55  and  C_22 
REMARK    4  A    between atoms: C_25  and  C_28 
REMARK    5  A    between atoms: O_52  and  C_26 
REMARK    6  A    between atoms: C_30  and  C_27 
REMARK    7  A    between atoms: C_33  and  C_27 
REMARK    8  A    between atoms: C_27  and  N_39 
REMARK    9  A    between atoms: C_28  and  O_46 
REMARK   10  A    between atoms: O_53  and  C_29 
REMARK       I    between atoms: N_45  and  C_30 
REMARK   11  A    between atoms: C_35  and  C_31 
REMARK   12  A    between atoms: O_48  and  C_31 
REMARK   13  A    between atoms: C_32  and  O_49 
REMARK   14  A    between atoms: O_54  and  C_32 
REMARK   15  A    between atoms: O_54  and  C_34 
REMARK   16  A    between atoms: C_35  and  N_41 
REMARK   17  A    between atoms: N_43  and  S_55 
ROOT
HETATM    1  C   UNK N   1      24.229  17.821   5.304  0.00  0.00     0.068 C 
HETATM    2  C   UNK N   1      24.605  15.438   5.687  0.00  0.00     0.159 C 
HETATM    3  C   UNK N   1      25.126  16.624   4.854  0.00  0.00     0.151 C 
HETATM    4  C   UNK N   1      22.915  17.123   5.501  0.00  0.00     0.164 C 
HETATM    5  C   UNK N   1      22.480  15.139   6.931  0.00  0.00     0.244 C 
HETATM    6  N   UNK N   1      23.291  15.862   6.095  0.00  0.00    -0.336 N 
HETATM    7  O   UNK N   1      21.519  15.666   7.458  0.00  0.00    -0.271 OA
ENDROOT
BRANCH   4   8
HETATM    8  C   UNK N   1      21.547  17.709   5.819  0.00  0.00     0.136 C 
HETATM    9  N   UNK N   1      20.518  17.688   5.045  0.00  0.00    -0.355 N 
ATOM     10  HN  UNK N   1      19.688  18.163   5.398  1.00  0.00     0.162 HD
BRANCH   9  11
HETATM   11  C   UNK N   1      20.385  17.079   3.747  0.00  0.00     0.105 A 
HETATM   12  C   UNK N   1      19.302  17.923   3.062  0.00  0.00     0.052 A 
HETATM   13  C   UNK N   1      20.681  17.902   2.481  0.00  0.00     0.046 A 
BRANCH  13  14
HETATM   14  C   UNK N   1      21.452  19.189   2.655  0.00  0.00    -0.029 C 
HETATM   15  C   UNK N   1      21.139  20.329   2.032  0.00  0.00     0.007 C 
ENDBRANCH  13  14
BRANCH  11  16
HETATM   16  C   UNK N   1      19.862  15.672   3.672  0.00  0.00     0.154 C 
HETATM   17  N   UNK N   1      19.516  15.180   2.532  0.00  0.00    -0.266 N 
ATOM     18  HN  UNK N   1      19.484  15.799   1.723  1.00  0.00     0.180 HD
BRANCH  17  19
HETATM   19  S   UNK N   1      19.095  13.488   2.310  0.00  0.00     0.236 S 
HETATM   20  O   UNK N   1      18.227  13.124   3.524  0.00  0.00    -0.205 OA
HETATM   21  O   UNK N   1      18.016  13.555   1.220  0.00  0.00    -0.205 OA
BRANCH  19  22
HETATM   22  C   UNK N   1      20.312  12.219   1.858  0.00  0.00     0.130 A 
HETATM   23  C   UNK N   1      21.124  12.694   0.666  0.00  0.00     0.023 A 
HETATM   24  C   UNK N   1      20.001  11.704   0.481  0.00  0.00     0.023 A 
ENDBRANCH  19  22
ENDBRANCH  17  19
BRANCH  16  25
HETATM   25  O   UNK N   1      19.838  14.914   4.786  0.00  0.00    -0.347 OA
HETATM   26  H   UNK N   1      19.984  14.703   5.687  0.00  0.00     0.219 HD
ENDBRANCH  16  25
ENDBRANCH  11  16
ENDBRANCH   9  11
BRANCH   8  27
HETATM   27  O   UNK N   1      21.435  18.382   6.983  0.00  0.00    -0.348 OA
HETATM   28  H   UNK N   1      21.700  18.679   7.832  0.00  0.00     0.219 HD
ENDBRANCH   8  27
ENDBRANCH   4   8
BRANCH   3  29
HETATM   29  O   UNK N   1      24.967  16.271   3.515  0.00  0.00    -0.328 OA
BRANCH  29  30
HETATM   30  C   UNK N   1      25.242  15.058   2.968  0.00  0.00     0.154 A 
HETATM   31  C   UNK N   1      26.565  14.708   2.652  0.00  0.00     0.030 A 
HETATM   32  C   UNK N   1      27.619  15.593   2.909  0.00  0.00     0.040 A 
HETATM   33  C   UNK N   1      26.826  13.456   2.035  0.00  0.00     0.013 A 
HETATM   34  C   UNK N   1      28.928  15.245   2.569  0.00  0.00     0.035 A 
HETATM   35  C   UNK N   1      29.192  14.016   1.966  0.00  0.00     0.025 A 
HETATM   36 Cl   UNK N   1      30.239  16.357   2.892  0.00  0.00    -0.084 Cl
HETATM   37  C   UNK N   1      28.148  13.128   1.700  0.00  0.00     0.017 A 
HETATM   38  C   UNK N   1      25.745  12.574   1.775  0.00  0.00     0.094 A 
HETATM   39  C   UNK N   1      24.473  12.956   2.177  0.00  0.00     0.127 A 
HETATM   40  N   UNK N   1      24.244  14.168   2.735  0.00  0.00    -0.344 N 
ATOM     41  HN  UNK N   1      23.289  14.422   2.988  1.00  0.00     0.167 HD
BRANCH  38  42
HETATM   42  O   UNK N   1      25.860  11.381   1.135  0.00  0.00    -0.354 OA
HETATM   43  C   UNK N   1      25.876  10.152   1.751  0.00  0.00     0.210 C 
ENDBRANCH  38  42
ENDBRANCH  29  30
ENDBRANCH   3  29
BRANCH   5  44
HETATM   44  C   UNK N   1      22.672  13.640   7.077  0.00  0.00     0.185 C 
BRANCH  44  45
HETATM   45  C   UNK N   1      23.075  13.248   8.543  0.00  0.00    -0.022 C 
HETATM   46  C   UNK N   1      23.073  11.747   8.742  0.00  0.00     0.017 C 
HETATM   47  C   UNK N   1      22.105  13.814   9.577  0.00  0.00     0.017 C 
HETATM   48  C   UNK N   1      24.477  13.740   8.864  0.00  0.00     0.017 C 
ENDBRANCH  44  45
BRANCH  44  49
HETATM   49  N   UNK N   1      21.366  13.078   6.768  0.00  0.00    -0.336 N 
HETATM   50  C   UNK N   1      21.114  12.319   5.762  0.00  0.00     0.259 C 
ATOM     51  HN  UNK N   1      20.594  13.303   7.397  1.00  0.00     0.164 HD
BRANCH  50  52
HETATM   52  O   UNK N   1      19.858  11.863   5.581  0.00  0.00    -0.327 OA
HETATM   53  H   UNK N   1      19.032  12.274   5.745  0.00  0.00     0.221 HD
ENDBRANCH  50  52
BRANCH  50  54
HETATM   54  O   UNK N   1      22.107  11.940   4.919  0.00  0.00    -0.307 OA
BRANCH  54  55
HETATM   55  C   UNK N   1      22.695  10.682   4.908  0.00  0.00     0.060 C 
HETATM   56  C   UNK N   1      22.105   9.723   5.942  0.00  0.00     0.046 C 
HETATM   57  C   UNK N   1      22.574  10.065   3.532  0.00  0.00     0.046 C 
HETATM   58  C   UNK N   1      24.165  10.855   5.226  0.00  0.00     0.046 C 
ENDBRANCH  54  55
ENDBRANCH  50  54
ENDBRANCH  44  49
ENDBRANCH   5  44
TORSDOF 17
ENDMDL
MODEL 9
REMARK VINA RESULT:      -6.4      3.864      8.152
REMARK  17 active torsions:
REMARK  status: ('A' for Active; 'I' for Inactive)
REMARK    1  A    between atoms: C_19  and  C_9 
REMARK    2  A    between atoms: C_21  and  O_53 
REMARK    3  A    between atoms: S_55  and  C_22 
REMARK    4  A    between atoms: C_25  and  C_28 
REMARK    5  A    between atoms: O_52  and  C_26 
REMARK    6  A    between atoms: C_30  and  C_27 
REMARK    7  A    between atoms: C_33  and  C_27 
REMARK    8  A    between atoms: C_27  and  N_39 
REMARK    9  A    between atoms: C_28  and  O_46 
REMARK   10  A    between atoms: O_53  and  C_29 
REMARK       I    between atoms: N_45  and  C_30 
REMARK   11  A    between atoms: C_35  and  C_31 
REMARK   12  A    between atoms: O_48  and  C_31 
REMARK   13  A    between atoms: C_32  and  O_49 
REMARK   14  A    between atoms: O_54  and  C_32 
REMARK   15  A    between atoms: O_54  and  C_34 
REMARK   16  A    between atoms: C_35  and  N_41 
REMARK   17  A    between atoms: N_43  and  S_55 
ROOT
HETATM    1  C   UNK N   1      20.390  16.079   5.888  0.00  0.00     0.068 C 
HETATM    2  C   UNK N   1      22.459  15.667   7.121  0.00  0.00     0.159 C 
HETATM    3  C   UNK N   1      21.709  16.774   6.356  0.00  0.00     0.151 C 
HETATM    4  C   UNK N   1      20.897  14.700   5.585  0.00  0.00     0.164 C 
HETATM    5  C   UNK N   1      22.158  13.204   7.116  0.00  0.00     0.244 C 
HETATM    6  N   UNK N   1      21.850  14.453   6.641  0.00  0.00    -0.336 N 
HETATM    7  O   UNK N   1      21.424  12.263   6.883  0.00  0.00    -0.271 OA
ENDROOT
BRANCH   4   8
HETATM    8  C   UNK N   1      20.171  13.520   4.957  0.00  0.00     0.136 C 
HETATM    9  N   UNK N   1      20.500  12.926   3.862  0.00  0.00    -0.355 N 
ATOM     10  HN  UNK N   1      19.880  12.174   3.562  1.00  0.00     0.162 HD
BRANCH   9  11
HETATM   11  C   UNK N   1      21.631  13.182   3.009  0.00  0.00     0.105 A 
HETATM   12  C   UNK N   1      21.063  13.004   1.595  0.00  0.00     0.052 A 
HETATM   13  C   UNK N   1      21.584  14.346   2.005  0.00  0.00     0.046 A 
BRANCH  13  14
HETATM   14  C   UNK N   1      20.518  15.396   2.208  0.00  0.00    -0.029 C 
HETATM   15  C   UNK N   1      20.174  16.292   1.278  0.00  0.00     0.007 C 
ENDBRANCH  13  14
BRANCH  11  16
HETATM   16  C   UNK N   1      22.792  12.230   3.065  0.00  0.00     0.154 C 
HETATM   17  N   UNK N   1      23.418  11.923   1.980  0.00  0.00    -0.266 N 
ATOM     18  HN  UNK N   1      23.031  12.232   1.089  1.00  0.00     0.180 HD
BRANCH  17  19
HETATM   19  S   UNK N   1      24.909  10.992   1.967  0.00  0.00     0.236 S 
HETATM   20  O   UNK N   1      25.947  11.880   2.670  0.00  0.00    -0.205 OA
HETATM   21  O   UNK N   1      24.659   9.951   3.067  0.00  0.00    -0.205 OA
BRANCH  19  22
HETATM   22  C   UNK N   1      25.532  10.148   0.486  0.00  0.00     0.130 A 
HETATM   23  C   UNK N   1      24.367   9.586  -0.309  0.00  0.00     0.023 A 
HETATM   24  C   UNK N   1      25.198   8.685   0.572  0.00  0.00     0.023 A 
ENDBRANCH  19  22
ENDBRANCH  17  19
BRANCH  16  25
HETATM   25  O   UNK N   1      23.219  11.772   4.258  0.00  0.00    -0.347 OA
HETATM   26  H   UNK N   1      23.653  11.806   5.088  0.00  0.00     0.219 HD
ENDBRANCH  16  25
ENDBRANCH  11  16
ENDBRANCH   9  11
BRANCH   8  27
HETATM   27  O   UNK N   1      19.034  13.120   5.564  0.00  0.00    -0.348 OA
HETATM   28  H   UNK N   1      18.504  12.602   6.137  0.00  0.00     0.219 HD
ENDBRANCH   8  27
ENDBRANCH   4   8
BRANCH   3  29
HETATM   29  O   UNK N   1      22.541  17.170   5.311  0.00  0.00    -0.328 OA
BRANCH  29  30
HETATM   30  C   UNK N   1      22.314  18.197   4.450  0.00  0.00     0.154 A 
HETATM   31  C   UNK N   1      23.391  18.920   3.912  0.00  0.00     0.030 A 
HETATM   32  C   UNK N   1      24.711  18.587   4.241  0.00  0.00     0.040 A 
HETATM   33  C   UNK N   1      23.131  20.021   3.053  0.00  0.00     0.013 A 
HETATM   34  C   UNK N   1      25.773  19.328   3.719  0.00  0.00     0.035 A 
HETATM   35  C   UNK N   1      25.525  20.409   2.872  0.00  0.00     0.025 A 
HETATM   36 Cl   UNK N   1      27.419  18.907   4.135  0.00  0.00    -0.084 Cl
HETATM   37  C   UNK N   1      24.213  20.752   2.542  0.00  0.00     0.017 A 
HETATM   38  C   UNK N   1      21.787  20.349   2.736  0.00  0.00     0.094 A 
HETATM   39  C   UNK N   1      20.776  19.548   3.248  0.00  0.00     0.127 A 
HETATM   40  N   UNK N   1      21.047  18.523   4.091  0.00  0.00    -0.344 N 
ATOM     41  HN  UNK N   1      20.272  17.978   4.469  1.00  0.00     0.167 HD
BRANCH  38  42
HETATM   42  O   UNK N   1      21.410  21.412   1.980  0.00  0.00    -0.354 OA
HETATM   43  C   UNK N   1      20.619  21.344   0.858  0.00  0.00     0.210 C 
ENDBRANCH  38  42
ENDBRANCH  29  30
ENDBRANCH   3  29
BRANCH   5  44
HETATM   44  C   UNK N   1      23.493  12.950   7.793  0.00  0.00     0.185 C 
BRANCH  44  45
HETATM   45  C   UNK N   1      23.318  12.175   9.148  0.00  0.00    -0.022 C 
HETATM   46  C   UNK N   1      23.347  10.676   8.943  0.00  0.00     0.017 C 
HETATM   47  C   UNK N   1      21.983  12.486   9.819  0.00  0.00     0.017 C 
HETATM   48  C   UNK N   1      24.444  12.518  10.110  0.00  0.00     0.017 C 
ENDBRANCH  44  45
BRANCH  44  49
HETATM   49  N   UNK N   1      24.221  12.116   6.850  0.00  0.00    -0.336 N 
HETATM   50  C   UNK N   1      25.322  12.448   6.275  0.00  0.00     0.259 C 
ATOM     51  HN  UNK N   1      23.829  11.200   6.629  1.00  0.00     0.164 HD
BRANCH  50  52
HETATM   52  O   UNK N   1      25.901  11.586   5.415  0.00  0.00    -0.327 OA
HETATM   53  H   UNK N   1      25.755  10.670   5.281  0.00  0.00     0.221 HD
ENDBRANCH  50  52
BRANCH  50  54
HETATM   54  O   UNK N   1      25.922  13.629   6.567  0.00  0.00    -0.307 OA
BRANCH  54  55
HETATM   55  C   UNK N   1      26.187  14.629   5.641  0.00  0.00     0.060 C 
HETATM   56  C   UNK N   1      27.495  14.425   4.877  0.00  0.00     0.046 C 
HETATM   57  C   UNK N   1      25.046  14.737   4.653  0.00  0.00     0.046 C 
HETATM   58  C   UNK N   1      26.292  15.940   6.393  0.00  0.00     0.046 C 
ENDBRANCH  54  55
ENDBRANCH  50  54
ENDBRANCH  44  49
ENDBRANCH   5  44
TORSDOF 17
ENDMDL
