MODEL 1
REMARK VINA RESULT:      -5.0      0.000      0.000
REMARK  4 active torsions:
REMARK  status: ('A' for Active; 'I' for Inactive)
REMARK    1  A    between atoms: C_3  and  C_4 
REMARK    2  A    between atoms: C_4  and  C_5 
REMARK    3  A    between atoms: C_4  and  N_8 
REMARK    4  A    between atoms: N_8  and  C_9 
ROOT
HETATM    1  N   UNK N   1      35.990  12.990  13.820  0.00  0.00    -0.351 N 
HETATM    2  H   UNK N   1      36.869  12.555  13.735  0.00  0.00     0.163 HD
ENDROOT
BRANCH   1   3
HETATM    3  C   UNK N   1      35.139  12.580  14.919  0.00  0.00     0.093 C 
BRANCH   3   4
HETATM    4  C   UNK N   1      35.842  12.953  16.222  0.00  0.00     0.009 A 
HETATM    5  C   UNK N   1      34.834  13.382  17.268  0.00  0.00     0.007 A 
HETATM    6  C   UNK N   1      35.446  11.996  17.326  0.00  0.00     0.007 A 
ENDBRANCH   3   4
BRANCH   3   7
HETATM    7  C   UNK N   1      34.887  11.072  14.901  0.00  0.00     0.009 A 
HETATM    8  C   UNK N   1      34.405  10.653  13.524  0.00  0.00     0.007 A 
HETATM    9  C   UNK N   1      33.417  10.775  14.662  0.00  0.00     0.007 A 
ENDBRANCH   3   7
ENDBRANCH   1   3
BRANCH   1  10
HETATM   10  C   UNK N   1      35.647  13.975  12.859  0.00  0.00     0.215 A 
HETATM   11  N   UNK N   1      36.401  14.962  12.606  0.00  0.00    -0.354 N 
HETATM   12  C   UNK N   1      35.823  15.773  11.572  0.00  0.00     0.150 A 
ATOM     13  HN  UNK N   1      37.289  15.152  13.069  1.00  0.00     0.163 HD
HETATM   14  C   UNK N   1      34.520  15.009  11.241  0.00  0.00     0.198 A 
HETATM   15  O   UNK N   1      34.539  13.943  12.116  0.00  0.00    -0.321 OA
ENDBRANCH   1  10
TORSDOF 4
ENDMDL
MODEL 2
REMARK VINA RESULT:      -4.9      1.242      2.718
REMARK  4 active torsions:
REMARK  status: ('A' for Active; 'I' for Inactive)
REMARK    1  A    between atoms: C_3  and  C_4 
REMARK    2  A    between atoms: C_4  and  C_5 
REMARK    3  A    between atoms: C_4  and  N_8 
REMARK    4  A    between atoms: N_8  and  C_9 
ROOT
HETATM    1  N   UNK N   1      36.671  13.094  15.068  0.00  0.00    -0.351 N 
HETATM    2  H   UNK N   1      37.392  13.586  15.523  0.00  0.00     0.163 HD
ENDROOT
BRANCH   1   3
HETATM    3  C   UNK N   1      36.031  12.015  15.793  0.00  0.00     0.093 C 
BRANCH   3   4
HETATM    4  C   UNK N   1      35.494  11.016  14.772  0.00  0.00     0.009 A 
HETATM    5  C   UNK N   1      34.908   9.804  15.466  0.00  0.00     0.007 A 
HETATM    6  C   UNK N   1      33.992  10.877  14.911  0.00  0.00     0.007 A 
ENDBRANCH   3   4
BRANCH   3   7
HETATM    7  C   UNK N   1      34.872  12.527  16.650  0.00  0.00     0.009 A 
HETATM    8  C   UNK N   1      35.325  13.734  17.451  0.00  0.00     0.007 A 
HETATM    9  C   UNK N   1      35.194  12.388  18.128  0.00  0.00     0.007 A 
ENDBRANCH   3   7
ENDBRANCH   1   3
BRANCH   1  10
HETATM   10  C   UNK N   1      36.332  13.491  13.749  0.00  0.00     0.215 A 
HETATM   11  N   UNK N   1      37.164  13.440  12.795  0.00  0.00    -0.354 N 
HETATM   12  C   UNK N   1      36.541  13.866  11.573  0.00  0.00     0.150 A 
ATOM     13  HN  UNK N   1      38.135  13.141  12.882  1.00  0.00     0.163 HD
HETATM   14  C   UNK N   1      35.096  14.172  12.028  0.00  0.00     0.198 A 
HETATM   15  O   UNK N   1      35.121  13.914  13.382  0.00  0.00    -0.321 OA
ENDBRANCH   1  10
TORSDOF 4
ENDMDL
MODEL 3
REMARK VINA RESULT:      -4.7      5.139      8.285
REMARK  4 active torsions:
REMARK  status: ('A' for Active; 'I' for Inactive)
REMARK    1  A    between atoms: C_3  and  C_4 
REMARK    2  A    between atoms: C_4  and  C_5 
REMARK    3  A    between atoms: C_4  and  N_8 
REMARK    4  A    between atoms: N_8  and  C_9 
ROOT
HETATM    1  N   UNK N   1      33.405  17.257   9.064  0.00  0.00    -0.351 N 
HETATM    2  H   UNK N   1      32.997  17.982   9.588  0.00  0.00     0.163 HD
ENDROOT
BRANCH   1   3
HETATM    3  C   UNK N   1      32.857  16.984   7.750  0.00  0.00     0.093 C 
BRANCH   3   4
HETATM    4  C   UNK N   1      33.871  17.457   6.711  0.00  0.00     0.009 A 
HETATM    5  C   UNK N   1      34.191  16.346   5.733  0.00  0.00     0.007 A 
HETATM    6  C   UNK N   1      33.247  17.462   5.332  0.00  0.00     0.007 A 
ENDBRANCH   3   4
BRANCH   3   7
HETATM    7  C   UNK N   1      31.535  17.722   7.530  0.00  0.00     0.009 A 
HETATM    8  C   UNK N   1      30.641  17.536   8.743  0.00  0.00     0.007 A 
HETATM    9  C   UNK N   1      30.375  16.742   7.483  0.00  0.00     0.007 A 
ENDBRANCH   3   7
ENDBRANCH   1   3
BRANCH   1  10
HETATM   10  C   UNK N   1      34.489  16.552   9.646  0.00  0.00     0.215 A 
HETATM   11  N   UNK N   1      35.048  16.939  10.717  0.00  0.00    -0.354 N 
HETATM   12  C   UNK N   1      36.086  16.021  11.092  0.00  0.00     0.150 A 
ATOM     13  HN  UNK N   1      34.797  17.780  11.235  1.00  0.00     0.163 HD
HETATM   14  C   UNK N   1      36.001  14.952   9.978  0.00  0.00     0.198 A 
HETATM   15  O   UNK N   1      34.994  15.417   9.159  0.00  0.00    -0.321 OA
ENDBRANCH   1  10
TORSDOF 4
ENDMDL
MODEL 4
REMARK VINA RESULT:      -4.5      7.686      9.764
REMARK  4 active torsions:
REMARK  status: ('A' for Active; 'I' for Inactive)
REMARK    1  A    between atoms: C_3  and  C_4 
REMARK    2  A    between atoms: C_4  and  C_5 
REMARK    3  A    between atoms: C_4  and  N_8 
REMARK    4  A    between atoms: N_8  and  C_9 
ROOT
HETATM    1  N   UNK N   1      31.707  16.758   7.737  0.00  0.00    -0.351 N 
HETATM    2  H   UNK N   1      31.846  15.814   7.981  0.00  0.00     0.163 HD
ENDROOT
BRANCH   1   3
HETATM    3  C   UNK N   1      32.683  17.377   6.863  0.00  0.00     0.093 C 
BRANCH   3   4
HETATM    4  C   UNK N   1      32.576  16.711   5.493  0.00  0.00     0.009 A 
HETATM    5  C   UNK N   1      31.563  17.430   4.627  0.00  0.00     0.007 A 
HETATM    6  C   UNK N   1      33.046  17.658   4.409  0.00  0.00     0.007 A 
ENDBRANCH   3   4
BRANCH   3   7
HETATM    7  C   UNK N   1      34.106  17.201   7.396  0.00  0.00     0.009 A 
HETATM    8  C   UNK N   1      34.095  17.282   8.911  0.00  0.00     0.007 A 
HETATM    9  C   UNK N   1      34.577  18.462   8.098  0.00  0.00     0.007 A 
ENDBRANCH   3   7
ENDBRANCH   1   3
BRANCH   1  10
HETATM   10  C   UNK N   1      30.566  17.415   8.265  0.00  0.00     0.215 A 
HETATM   11  N   UNK N   1      30.519  17.826   9.463  0.00  0.00    -0.354 N 
HETATM   12  C   UNK N   1      29.266  18.481   9.711  0.00  0.00     0.150 A 
ATOM     13  HN  UNK N   1      31.263  17.709  10.150  1.00  0.00     0.163 HD
HETATM   14  C   UNK N   1      28.563  18.381   8.338  0.00  0.00     0.198 A 
HETATM   15  O   UNK N   1      29.468  17.692   7.560  0.00  0.00    -0.321 OA
ENDBRANCH   1  10
TORSDOF 4
ENDMDL
MODEL 5
REMARK VINA RESULT:      -4.5      5.450      8.366
REMARK  4 active torsions:
REMARK  status: ('A' for Active; 'I' for Inactive)
REMARK    1  A    between atoms: C_3  and  C_4 
REMARK    2  A    between atoms: C_4  and  C_5 
REMARK    3  A    between atoms: C_4  and  N_8 
REMARK    4  A    between atoms: N_8  and  C_9 
ROOT
HETATM    1  N   UNK N   1      34.333  17.737   7.811  0.00  0.00    -0.351 N 
HETATM    2  H   UNK N   1      34.978  18.285   7.308  0.00  0.00     0.163 HD
ENDROOT
BRANCH   1   3
HETATM    3  C   UNK N   1      32.943  17.788   7.404  0.00  0.00     0.093 C 
BRANCH   3   4
HETATM    4  C   UNK N   1      32.085  17.438   8.617  0.00  0.00     0.009 A 
HETATM    5  C   UNK N   1      30.872  18.342   8.692  0.00  0.00     0.007 A 
HETATM    6  C   UNK N   1      30.732  16.924   8.174  0.00  0.00     0.007 A 
ENDBRANCH   3   4
BRANCH   3   7
HETATM    7  C   UNK N   1      32.652  16.792   6.281  0.00  0.00     0.009 A 
HETATM    8  C   UNK N   1      33.814  16.769   5.305  0.00  0.00     0.007 A 
HETATM    9  C   UNK N   1      32.544  17.505   4.944  0.00  0.00     0.007 A 
ENDBRANCH   3   7
ENDBRANCH   1   3
BRANCH   1  10
HETATM   10  C   UNK N   1      34.831  16.953   8.883  0.00  0.00     0.215 A 
HETATM   11  N   UNK N   1      34.958  15.695   8.795  0.00  0.00    -0.354 N 
HETATM   12  C   UNK N   1      35.515  15.169  10.010  0.00  0.00     0.150 A 
ATOM     13  HN  UNK N   1      34.703  15.138   7.981  1.00  0.00     0.163 HD
HETATM   14  C   UNK N   1      35.717  16.444  10.861  0.00  0.00     0.198 A 
HETATM   15  O   UNK N   1      35.239  17.453  10.051  0.00  0.00    -0.321 OA
ENDBRANCH   1  10
TORSDOF 4
ENDMDL
MODEL 6
REMARK VINA RESULT:      -4.5     10.874     14.007
REMARK  4 active torsions:
REMARK  status: ('A' for Active; 'I' for Inactive)
REMARK    1  A    between atoms: C_3  and  C_4 
REMARK    2  A    between atoms: C_4  and  C_5 
REMARK    3  A    between atoms: C_4  and  N_8 
REMARK    4  A    between atoms: N_8  and  C_9 
ROOT
HETATM    1  N   UNK N   1      28.213  19.259   4.333  0.00  0.00    -0.351 N 
HETATM    2  H   UNK N   1      28.587  19.815   3.612  0.00  0.00     0.163 HD
ENDROOT
BRANCH   1   3
HETATM    3  C   UNK N   1      26.841  19.503   4.729  0.00  0.00     0.093 C 
BRANCH   3   4
HETATM    4  C   UNK N   1      25.949  19.248   3.517  0.00  0.00     0.009 A 
HETATM    5  C   UNK N   1      24.617  19.951   3.675  0.00  0.00     0.007 A 
HETATM    6  C   UNK N   1      25.685  20.541   2.776  0.00  0.00     0.007 A 
ENDBRANCH   3   4
BRANCH   3   7
HETATM    7  C   UNK N   1      26.641  20.944   5.202  0.00  0.00     0.009 A 
HETATM    8  C   UNK N   1      27.743  21.316   6.178  0.00  0.00     0.007 A 
HETATM    9  C   UNK N   1      26.360  20.986   6.694  0.00  0.00     0.007 A 
ENDBRANCH   3   7
ENDBRANCH   1   3
BRANCH   1  10
HETATM   10  C   UNK N   1      29.056  18.276   4.911  0.00  0.00     0.215 A 
HETATM   11  N   UNK N   1      30.148  17.923   4.372  0.00  0.00    -0.354 N 
HETATM   12  C   UNK N   1      30.807  16.943   5.188  0.00  0.00     0.150 A 
ATOM     13  HN  UNK N   1      30.506  18.282   3.488  1.00  0.00     0.163 HD
HETATM   14  C   UNK N   1      29.839  16.804   6.386  0.00  0.00     0.198 A 
HETATM   15  O   UNK N   1      28.809  17.664   6.070  0.00  0.00    -0.321 OA
ENDBRANCH   1  10
TORSDOF 4
ENDMDL
MODEL 7
REMARK VINA RESULT:      -4.4      7.001      9.137
REMARK  4 active torsions:
REMARK  status: ('A' for Active; 'I' for Inactive)
REMARK    1  A    between atoms: C_3  and  C_4 
REMARK    2  A    between atoms: C_4  and  C_5 
REMARK    3  A    between atoms: C_4  and  N_8 
REMARK    4  A    between atoms: N_8  and  C_9 
ROOT
HETATM    1  N   UNK N   1      31.416  16.601   7.789  0.00  0.00    -0.351 N 
HETATM    2  H   UNK N   1      31.353  15.655   7.524  0.00  0.00     0.163 HD
ENDROOT
BRANCH   1   3
HETATM    3  C   UNK N   1      30.208  17.399   7.731  0.00  0.00     0.093 C 
BRANCH   3   4
HETATM    4  C   UNK N   1      29.540  17.340   9.103  0.00  0.00     0.009 A 
HETATM    5  C   UNK N   1      29.634  18.681   9.801  0.00  0.00     0.007 A 
HETATM    6  C   UNK N   1      28.337  18.258   9.142  0.00  0.00     0.007 A 
ENDBRANCH   3   4
BRANCH   3   7
HETATM    7  C   UNK N   1      29.235  16.868   6.678  0.00  0.00     0.009 A 
HETATM    8  C   UNK N   1      29.977  16.626   5.376  0.00  0.00     0.007 A 
HETATM    9  C   UNK N   1      29.101  17.849   5.527  0.00  0.00     0.007 A 
ENDBRANCH   3   7
ENDBRANCH   1   3
BRANCH   1  10
HETATM   10  C   UNK N   1      32.683  17.086   8.203  0.00  0.00     0.215 A 
HETATM   11  N   UNK N   1      33.331  16.554   9.154  0.00  0.00    -0.354 N 
HETATM   12  C   UNK N   1      34.589  17.224   9.330  0.00  0.00     0.150 A 
ATOM     13  HN  UNK N   1      33.006  15.766   9.713  1.00  0.00     0.163 HD
HETATM   14  C   UNK N   1      34.551  18.296   8.216  0.00  0.00     0.198 A 
HETATM   15  O   UNK N   1      33.323  18.103   7.622  0.00  0.00    -0.321 OA
ENDBRANCH   1  10
TORSDOF 4
ENDMDL
MODEL 8
REMARK VINA RESULT:      -4.3      1.801      2.253
REMARK  4 active torsions:
REMARK  status: ('A' for Active; 'I' for Inactive)
REMARK    1  A    between atoms: C_3  and  C_4 
REMARK    2  A    between atoms: C_4  and  C_5 
REMARK    3  A    between atoms: C_4  and  N_8 
REMARK    4  A    between atoms: N_8  and  C_9 
ROOT
HETATM    1  N   UNK N   1      36.874  14.011  13.034  0.00  0.00    -0.351 N 
HETATM    2  H   UNK N   1      37.699  14.480  13.294  0.00  0.00     0.163 HD
ENDROOT
BRANCH   1   3
HETATM    3  C   UNK N   1      36.646  12.691  13.587  0.00  0.00     0.093 C 
BRANCH   3   4
HETATM    4  C   UNK N   1      36.891  12.764  15.093  0.00  0.00     0.009 A 
HETATM    5  C   UNK N   1      36.904  14.204  15.562  0.00  0.00     0.007 A 
HETATM    6  C   UNK N   1      35.680  13.341  15.795  0.00  0.00     0.007 A 
ENDBRANCH   3   4
BRANCH   3   7
HETATM    7  C   UNK N   1      37.592  11.656  12.977  0.00  0.00     0.009 A 
HETATM    8  C   UNK N   1      37.239  11.444  11.516  0.00  0.00     0.007 A 
HETATM    9  C   UNK N   1      36.827  10.417  12.547  0.00  0.00     0.007 A 
ENDBRANCH   3   7
ENDBRANCH   1   3
BRANCH   1  10
HETATM   10  C   UNK N   1      35.991  14.675  12.145  0.00  0.00     0.215 A 
HETATM   11  N   UNK N   1      36.363  15.654  11.431  0.00  0.00    -0.354 N 
HETATM   12  C   UNK N   1      35.278  16.104  10.605  0.00  0.00     0.150 A 
ATOM     13  HN  UNK N   1      37.297  16.063  11.441  1.00  0.00     0.163 HD
HETATM   14  C   UNK N   1      34.144  15.125  10.987  0.00  0.00     0.198 A 
HETATM   15  O   UNK N   1      34.719  14.322  11.948  0.00  0.00    -0.321 OA
ENDBRANCH   1  10
TORSDOF 4
ENDMDL
MODEL 9
REMARK VINA RESULT:      -4.3      1.462      2.541
REMARK  4 active torsions:
REMARK  status: ('A' for Active; 'I' for Inactive)
REMARK    1  A    between atoms: C_3  and  C_4 
REMARK    2  A    between atoms: C_4  and  C_5 
REMARK    3  A    between atoms: C_4  and  N_8 
REMARK    4  A    between atoms: N_8  and  C_9 
ROOT
HETATM    1  N   UNK N   1      35.378  13.097  13.383  0.00  0.00    -0.351 N 
HETATM    2  H   UNK N   1      34.597  12.499  13.407  0.00  0.00     0.163 HD
ENDROOT
BRANCH   1   3
HETATM    3  C   UNK N   1      36.459  12.829  14.311  0.00  0.00     0.093 C 
BRANCH   3   4
HETATM    4  C   UNK N   1      37.357  11.763  13.690  0.00  0.00     0.009 A 
HETATM    5  C   UNK N   1      37.817  10.774  14.741  0.00  0.00     0.007 A 
HETATM    6  C   UNK N   1      36.701  10.401  13.785  0.00  0.00     0.007 A 
ENDBRANCH   3   4
BRANCH   3   7
HETATM    7  C   UNK N   1      35.932  12.320  15.654  0.00  0.00     0.009 A 
HETATM    8  C   UNK N   1      34.557  12.906  15.916  0.00  0.00     0.007 A 
HETATM    9  C   UNK N   1      35.763  13.468  16.634  0.00  0.00     0.007 A 
ENDBRANCH   3   7
ENDBRANCH   1   3
BRANCH   1  10
HETATM   10  C   UNK N   1      35.367  14.159  12.443  0.00  0.00     0.215 A 
HETATM   11  N   UNK N   1      36.393  14.868  12.216  0.00  0.00    -0.354 N 
HETATM   12  C   UNK N   1      36.107  15.840  11.198  0.00  0.00     0.150 A 
ATOM     13  HN  UNK N   1      37.291  14.764  12.687  1.00  0.00     0.163 HD
HETATM   14  C   UNK N   1      34.635  15.523  10.844  0.00  0.00     0.198 A 
HETATM   15  O   UNK N   1      34.313  14.488  11.695  0.00  0.00    -0.321 OA
ENDBRANCH   1  10
TORSDOF 4
ENDMDL
