MODEL 1
REMARK VINA RESULT:      -7.9      0.000      0.000
REMARK  8 active torsions:
REMARK  status: ('A' for Active; 'I' for Inactive)
REMARK    1  A    between atoms: C_8  and  C_10 
REMARK    2  A    between atoms: C_10  and  C_11 
REMARK    3  A    between atoms: C_18  and  C_13 
REMARK    4  A    between atoms: C_19  and  O_28 
REMARK    5  A    between atoms: C_20  and  O_27 
REMARK    6  A    between atoms: C_21  and  O_26 
REMARK    7  A    between atoms: C_22  and  C_24 
REMARK    8  A    between atoms: C_24  and  O_25 
ROOT
HETATM    1  C   UNK N   1      30.444  14.914   5.073  0.00  0.00    -0.014 A 
HETATM    2  C   UNK N   1      31.129  15.394   6.196  0.00  0.00     0.020 A 
HETATM    3  C   UNK N   1      32.527  15.311   6.279  0.00  0.00    -0.026 A 
HETATM    4  C   UNK N   1      33.242  14.716   5.233  0.00  0.00     0.013 A 
HETATM    5  C   UNK N   1      32.575  14.210   4.122  0.00  0.00     0.043 A 
HETATM    6  C   UNK N   1      31.187  14.312   4.025  0.00  0.00     0.123 A 
HETATM    7  F   UNK N   1      30.597  13.827   2.908  0.00  0.00    -0.206 F 
ENDROOT
BRANCH   3   8
HETATM    8  C   UNK N   1      33.254  15.913   7.453  0.00  0.00     0.186 C 
HETATM    9  C   UNK N   1      33.701  17.372   7.192  0.00  0.00     0.182 C 
HETATM   10  C   UNK N   1      34.772  17.803   8.198  0.00  0.00     0.181 C 
HETATM   11  C   UNK N   1      34.660  16.986   9.479  0.00  0.00     0.180 C 
HETATM   12  C   UNK N   1      34.827  15.492   9.120  0.00  0.00     0.177 C 
HETATM   13  O   UNK N   1      34.368  15.126   7.824  0.00  0.00    -0.368 OA
BRANCH   9  14
HETATM   14  O   UNK N   1      34.209  17.538   5.902  0.00  0.00    -0.390 OA
HETATM   15  H   UNK N   1      34.658  17.091   5.167  0.00  0.00     0.210 HD
ENDBRANCH   9  14
BRANCH  10  16
HETATM   16  O   UNK N   1      34.654  19.168   8.457  0.00  0.00    -0.390 OA
HETATM   17  H   UNK N   1      33.916  19.546   8.961  0.00  0.00     0.210 HD
ENDBRANCH  10  16
BRANCH  11  18
HETATM   18  O   UNK N   1      35.649  17.368  10.388  0.00  0.00    -0.390 OA
HETATM   19  H   UNK N   1      36.258  18.096  10.193  0.00  0.00     0.210 HD
ENDBRANCH  11  18
BRANCH  12  20
HETATM   20  C   UNK N   1      34.262  14.563  10.185  0.00  0.00     0.198 C 
BRANCH  20  21
HETATM   21  O   UNK N   1      33.420  15.269  11.044  0.00  0.00    -0.398 OA
HETATM   22  H   UNK N   1      32.617  14.849  11.392  0.00  0.00     0.209 HD
ENDBRANCH  20  21
ENDBRANCH  12  20
ENDBRANCH   3   8
BRANCH   1  23
HETATM   23  C   UNK N   1      28.943  15.110   5.055  0.00  0.00     0.088 C 
BRANCH  23  24
HETATM   24  C   UNK N   1      28.461  16.494   5.333  0.00  0.00    -0.012 A 
HETATM   25  C   UNK N   1      28.168  17.481   4.376  0.00  0.00     0.027 A 
HETATM   26  C   UNK N   1      27.807  18.713   4.985  0.00  0.00    -0.018 A 
HETATM   27  C   UNK N   1      27.810  18.683   6.378  0.00  0.00     0.015 A 
HETATM   28  C   UNK N   1      27.484  19.888   4.311  0.00  0.00     0.013 A 
HETATM   29  C   UNK N   1      27.497  19.797   7.149  0.00  0.00     0.019 A 
HETATM   30  S   UNK N   1      28.255  17.165   6.845  0.00  0.00    -0.094 SA
HETATM   31  C   UNK N   1      27.168  20.985   6.476  0.00  0.00     0.001 A 
HETATM   32  C   UNK N   1      27.163  21.031   5.065  0.00  0.00     0.001 A 
ENDBRANCH  23  24
ENDBRANCH   1  23
TORSDOF 8
ENDMDL
MODEL 2
REMARK VINA RESULT:      -7.7      5.599     10.093
REMARK  8 active torsions:
REMARK  status: ('A' for Active; 'I' for Inactive)
REMARK    1  A    between atoms: C_8  and  C_10 
REMARK    2  A    between atoms: C_10  and  C_11 
REMARK    3  A    between atoms: C_18  and  C_13 
REMARK    4  A    between atoms: C_19  and  O_28 
REMARK    5  A    between atoms: C_20  and  O_27 
REMARK    6  A    between atoms: C_21  and  O_26 
REMARK    7  A    between atoms: C_22  and  C_24 
REMARK    8  A    between atoms: C_24  and  O_25 
ROOT
HETATM    1  C   UNK N   1      35.631  12.276  12.089  0.00  0.00    -0.014 A 
HETATM    2  C   UNK N   1      34.928  13.157  11.259  0.00  0.00     0.020 A 
HETATM    3  C   UNK N   1      35.605  14.041  10.405  0.00  0.00    -0.026 A 
HETATM    4  C   UNK N   1      37.004  14.058  10.404  0.00  0.00     0.013 A 
HETATM    5  C   UNK N   1      37.719  13.208  11.242  0.00  0.00     0.043 A 
HETATM    6  C   UNK N   1      37.050  12.311  12.075  0.00  0.00     0.123 A 
HETATM    7  F   UNK N   1      37.800  11.489  12.847  0.00  0.00    -0.206 F 
ENDROOT
BRANCH   3   8
HETATM    8  C   UNK N   1      34.832  14.918   9.454  0.00  0.00     0.186 C 
HETATM    9  C   UNK N   1      35.082  16.426   9.700  0.00  0.00     0.182 C 
HETATM   10  C   UNK N   1      33.998  17.275   9.029  0.00  0.00     0.181 C 
HETATM   11  C   UNK N   1      33.381  16.522   7.857  0.00  0.00     0.180 C 
HETATM   12  C   UNK N   1      32.780  15.201   8.388  0.00  0.00     0.177 C 
HETATM   13  O   UNK N   1      33.447  14.642   9.513  0.00  0.00    -0.368 OA
BRANCH   9  14
HETATM   14  O   UNK N   1      35.109  16.734  11.062  0.00  0.00    -0.390 OA
HETATM   15  H   UNK N   1      34.770  16.481  11.935  0.00  0.00     0.210 HD
ENDBRANCH   9  14
BRANCH  10  16
HETATM   16  O   UNK N   1      34.538  18.493   8.619  0.00  0.00    -0.390 OA
HETATM   17  H   UNK N   1      34.058  19.333   8.693  0.00  0.00     0.210 HD
ENDBRANCH  10  16
BRANCH  11  18
HETATM   18  O   UNK N   1      32.380  17.291   7.258  0.00  0.00    -0.390 OA
HETATM   19  H   UNK N   1      31.442  17.120   7.432  0.00  0.00     0.210 HD
ENDBRANCH  11  18
BRANCH  12  20
HETATM   20  C   UNK N   1      32.582  14.162   7.294  0.00  0.00     0.198 C 
BRANCH  20  21
HETATM   21  O   UNK N   1      31.389  14.401   6.612  0.00  0.00    -0.398 OA
HETATM   22  H   UNK N   1      31.339  15.114   5.956  0.00  0.00     0.209 HD
ENDBRANCH  20  21
ENDBRANCH  12  20
ENDBRANCH   3   8
BRANCH   1  23
HETATM   23  C   UNK N   1      34.807  11.320  12.923  0.00  0.00     0.088 C 
BRANCH  23  24
HETATM   24  C   UNK N   1      34.864  11.524  14.400  0.00  0.00    -0.012 A 
HETATM   25  C   UNK N   1      34.875  12.759  15.070  0.00  0.00     0.027 A 
HETATM   26  C   UNK N   1      35.015  12.594  16.474  0.00  0.00    -0.018 A 
HETATM   27  C   UNK N   1      35.101  11.266  16.887  0.00  0.00     0.015 A 
HETATM   28  C   UNK N   1      35.084  13.623  17.410  0.00  0.00     0.013 A 
HETATM   29  C   UNK N   1      35.254  10.908  18.221  0.00  0.00     0.019 A 
HETATM   30  S   UNK N   1      35.011  10.317  15.540  0.00  0.00    -0.094 SA
HETATM   31  C   UNK N   1      35.323  11.940  19.171  0.00  0.00     0.001 A 
HETATM   32  C   UNK N   1      35.239  13.291  18.768  0.00  0.00     0.001 A 
ENDBRANCH  23  24
ENDBRANCH   1  23
TORSDOF 8
ENDMDL
MODEL 3
REMARK VINA RESULT:      -7.7     12.007     14.776
REMARK  8 active torsions:
REMARK  status: ('A' for Active; 'I' for Inactive)
REMARK    1  A    between atoms: C_8  and  C_10 
REMARK    2  A    between atoms: C_10  and  C_11 
REMARK    3  A    between atoms: C_18  and  C_13 
REMARK    4  A    between atoms: C_19  and  O_28 
REMARK    5  A    between atoms: C_20  and  O_27 
REMARK    6  A    between atoms: C_21  and  O_26 
REMARK    7  A    between atoms: C_22  and  C_24 
REMARK    8  A    between atoms: C_24  and  O_25 
ROOT
HETATM    1  C   UNK N   1      26.669  24.290  -6.506  0.00  0.00    -0.014 A 
HETATM    2  C   UNK N   1      27.513  23.746  -5.530  0.00  0.00     0.020 A 
HETATM    3  C   UNK N   1      28.568  22.892  -5.883  0.00  0.00    -0.026 A 
HETATM    4  C   UNK N   1      28.761  22.559  -7.228  0.00  0.00     0.013 A 
HETATM    5  C   UNK N   1      27.915  23.069  -8.208  0.00  0.00     0.043 A 
HETATM    6  C   UNK N   1      26.880  23.938  -7.864  0.00  0.00     0.123 A 
HETATM    7  F   UNK N   1      26.107  24.424  -8.864  0.00  0.00    -0.206 F 
ENDROOT
BRANCH   3   8
HETATM    8  C   UNK N   1      29.521  22.388  -4.829  0.00  0.00     0.186 C 
HETATM    9  C   UNK N   1      29.508  23.260  -3.551  0.00  0.00     0.182 C 
HETATM   10  C   UNK N   1      30.748  22.991  -2.694  0.00  0.00     0.181 C 
HETATM   11  C   UNK N   1      31.293  21.595  -2.969  0.00  0.00     0.180 C 
HETATM   12  C   UNK N   1      31.643  21.497  -4.472  0.00  0.00     0.177 C 
HETATM   13  O   UNK N   1      30.837  22.291  -5.334  0.00  0.00    -0.368 OA
BRANCH   9  14
HETATM   14  O   UNK N   1      29.462  24.624  -3.849  0.00  0.00    -0.390 OA
HETATM   15  H   UNK N   1      28.970  25.310  -4.327  0.00  0.00     0.210 HD
ENDBRANCH   9  14
BRANCH  10  16
HETATM   16  O   UNK N   1      30.435  23.153  -1.344  0.00  0.00    -0.390 OA
HETATM   17  H   UNK N   1      30.623  22.476  -0.676  0.00  0.00     0.210 HD
ENDBRANCH  10  16
BRANCH  11  18
HETATM   18  O   UNK N   1      32.435  21.357  -2.201  0.00  0.00    -0.390 OA
HETATM   19  H   UNK N   1      33.262  21.056  -2.607  0.00  0.00     0.210 HD
ENDBRANCH  11  18
BRANCH  12  20
HETATM   20  C   UNK N   1      31.725  20.059  -4.966  0.00  0.00     0.198 C 
BRANCH  20  21
HETATM   21  O   UNK N   1      32.616  19.329  -4.179  0.00  0.00    -0.398 OA
HETATM   22  H   UNK N   1      32.328  18.966  -3.327  0.00  0.00     0.209 HD
ENDBRANCH  20  21
ENDBRANCH  12  20
ENDBRANCH   3   8
BRANCH   1  23
HETATM   23  C   UNK N   1      25.602  25.250  -6.026  0.00  0.00     0.088 C 
BRANCH  23  24
HETATM   24  C   UNK N   1      26.059  26.638  -5.725  0.00  0.00    -0.012 A 
HETATM   25  C   UNK N   1      27.035  27.364  -6.429  0.00  0.00     0.027 A 
HETATM   26  C   UNK N   1      27.286  28.627  -5.830  0.00  0.00    -0.018 A 
HETATM   27  C   UNK N   1      26.517  28.883  -4.695  0.00  0.00     0.015 A 
HETATM   28  C   UNK N   1      28.212  29.568  -6.273  0.00  0.00     0.013 A 
HETATM   29  C   UNK N   1      26.632  30.060  -3.966  0.00  0.00     0.019 A 
HETATM   30  S   UNK N   1      25.553  27.569  -4.438  0.00  0.00    -0.094 SA
HETATM   31  C   UNK N   1      27.563  31.014  -4.408  0.00  0.00     0.001 A 
HETATM   32  C   UNK N   1      28.350  30.769  -5.555  0.00  0.00     0.001 A 
ENDBRANCH  23  24
ENDBRANCH   1  23
TORSDOF 8
ENDMDL
MODEL 4
REMARK VINA RESULT:      -7.6      7.196     10.743
REMARK  8 active torsions:
REMARK  status: ('A' for Active; 'I' for Inactive)
REMARK    1  A    between atoms: C_8  and  C_10 
REMARK    2  A    between atoms: C_10  and  C_11 
REMARK    3  A    between atoms: C_18  and  C_13 
REMARK    4  A    between atoms: C_19  and  O_28 
REMARK    5  A    between atoms: C_20  and  O_27 
REMARK    6  A    between atoms: C_21  and  O_26 
REMARK    7  A    between atoms: C_22  and  C_24 
REMARK    8  A    between atoms: C_24  and  O_25 
ROOT
HETATM    1  C   UNK N   1      26.126  18.812   4.563  0.00  0.00    -0.014 A 
HETATM    2  C   UNK N   1      24.766  18.618   4.293  0.00  0.00     0.020 A 
HETATM    3  C   UNK N   1      24.068  19.489   3.444  0.00  0.00    -0.026 A 
HETATM    4  C   UNK N   1      24.737  20.582   2.881  0.00  0.00     0.013 A 
HETATM    5  C   UNK N   1      26.082  20.804   3.160  0.00  0.00     0.043 A 
HETATM    6  C   UNK N   1      26.786  19.927   3.985  0.00  0.00     0.123 A 
HETATM    7  F   UNK N   1      28.099  20.179   4.198  0.00  0.00    -0.206 F 
ENDROOT
BRANCH   3   8
HETATM    8  C   UNK N   1      22.628  19.215   3.093  0.00  0.00     0.186 C 
HETATM    9  C   UNK N   1      21.965  20.392   2.339  0.00  0.00     0.182 C 
HETATM   10  C   UNK N   1      20.439  20.270   2.369  0.00  0.00     0.181 C 
HETATM   11  C   UNK N   1      20.025  18.815   2.552  0.00  0.00     0.180 C 
HETATM   12  C   UNK N   1      20.635  18.298   3.875  0.00  0.00     0.177 C 
HETATM   13  O   UNK N   1      21.873  18.892   4.243  0.00  0.00    -0.368 OA
BRANCH   9  14
HETATM   14  O   UNK N   1      22.323  21.628   2.883  0.00  0.00    -0.390 OA
HETATM   15  H   UNK N   1      21.982  22.481   3.195  0.00  0.00     0.210 HD
ENDBRANCH   9  14
BRANCH  10  16
HETATM   16  O   UNK N   1      19.898  20.806   1.201  0.00  0.00    -0.390 OA
HETATM   17  H   UNK N   1      20.365  21.460   0.658  0.00  0.00     0.210 HD
ENDBRANCH  10  16
BRANCH  11  18
HETATM   18  O   UNK N   1      18.633  18.707   2.598  0.00  0.00    -0.390 OA
HETATM   19  H   UNK N   1      18.068  19.212   1.994  0.00  0.00     0.210 HD
ENDBRANCH  11  18
BRANCH  12  20
HETATM   20  C   UNK N   1      20.715  16.779   3.933  0.00  0.00     0.198 C 
BRANCH  20  21
HETATM   21  O   UNK N   1      19.546  16.214   3.424  0.00  0.00    -0.398 OA
HETATM   22  H   UNK N   1      18.680  16.553   3.702  0.00  0.00     0.209 HD
ENDBRANCH  20  21
ENDBRANCH  12  20
ENDBRANCH   3   8
BRANCH   1  23
HETATM   23  C   UNK N   1      26.801  17.779   5.440  0.00  0.00     0.088 C 
BRANCH  23  24
HETATM   24  C   UNK N   1      28.204  17.426   5.075  0.00  0.00    -0.012 A 
HETATM   25  C   UNK N   1      29.344  17.615   5.874  0.00  0.00     0.027 A 
HETATM   26  C   UNK N   1      30.533  17.243   5.191  0.00  0.00    -0.018 A 
HETATM   27  C   UNK N   1      30.323  16.768   3.898  0.00  0.00     0.015 A 
HETATM   28  C   UNK N   1      31.825  17.334   5.701  0.00  0.00     0.013 A 
HETATM   29  C   UNK N   1      31.366  16.368   3.071  0.00  0.00     0.019 A 
HETATM   30  S   UNK N   1      28.700  16.813   3.607  0.00  0.00    -0.094 SA
HETATM   31  C   UNK N   1      32.673  16.456   3.580  0.00  0.00     0.001 A 
HETATM   32  C   UNK N   1      32.901  16.937   4.887  0.00  0.00     0.001 A 
ENDBRANCH  23  24
ENDBRANCH   1  23
TORSDOF 8
ENDMDL
MODEL 5
REMARK VINA RESULT:      -7.5      7.273     10.683
REMARK  8 active torsions:
REMARK  status: ('A' for Active; 'I' for Inactive)
REMARK    1  A    between atoms: C_8  and  C_10 
REMARK    2  A    between atoms: C_10  and  C_11 
REMARK    3  A    between atoms: C_18  and  C_13 
REMARK    4  A    between atoms: C_19  and  O_28 
REMARK    5  A    between atoms: C_20  and  O_27 
REMARK    6  A    between atoms: C_21  and  O_26 
REMARK    7  A    between atoms: C_22  and  C_24 
REMARK    8  A    between atoms: C_24  and  O_25 
ROOT
HETATM    1  C   UNK N   1      26.055  18.332   4.028  0.00  0.00    -0.014 A 
HETATM    2  C   UNK N   1      24.680  18.228   3.787  0.00  0.00     0.020 A 
HETATM    3  C   UNK N   1      23.945  19.326   3.316  0.00  0.00    -0.026 A 
HETATM    4  C   UNK N   1      24.593  20.549   3.111  0.00  0.00     0.013 A 
HETATM    5  C   UNK N   1      25.954  20.677   3.371  0.00  0.00     0.043 A 
HETATM    6  C   UNK N   1      26.694  19.581   3.816  0.00  0.00     0.123 A 
HETATM    7  F   UNK N   1      28.019  19.760   4.025  0.00  0.00    -0.206 F 
ENDROOT
BRANCH   3   8
HETATM    8  C   UNK N   1      22.484  19.171   2.977  0.00  0.00     0.186 C 
HETATM    9  C   UNK N   1      21.919  20.395   2.216  0.00  0.00     0.182 C 
HETATM   10  C   UNK N   1      20.388  20.402   2.257  0.00  0.00     0.181 C 
HETATM   11  C   UNK N   1      19.853  18.990   2.455  0.00  0.00     0.180 C 
HETATM   12  C   UNK N   1      20.426  18.434   3.779  0.00  0.00     0.177 C 
HETATM   13  O   UNK N   1      21.713  18.924   4.134  0.00  0.00    -0.368 OA
BRANCH   9  14
HETATM   14  O   UNK N   1      22.383  21.600   2.747  0.00  0.00    -0.390 OA
HETATM   15  H   UNK N   1      22.719  22.482   2.524  0.00  0.00     0.210 HD
ENDBRANCH   9  14
BRANCH  10  16
HETATM   16  O   UNK N   1      19.886  20.972   1.087  0.00  0.00    -0.390 OA
HETATM   17  H   UNK N   1      19.213  21.670   1.089  0.00  0.00     0.210 HD
ENDBRANCH  10  16
BRANCH  11  18
HETATM   18  O   UNK N   1      18.458  19.000   2.511  0.00  0.00    -0.390 OA
HETATM   19  H   UNK N   1      17.987  18.942   3.356  0.00  0.00     0.210 HD
ENDBRANCH  11  18
BRANCH  12  20
HETATM   20  C   UNK N   1      20.377  16.914   3.851  0.00  0.00     0.198 C 
BRANCH  20  21
HETATM   21  O   UNK N   1      19.576  16.408   2.828  0.00  0.00    -0.398 OA
HETATM   22  H   UNK N   1      18.613  16.521   2.863  0.00  0.00     0.209 HD
ENDBRANCH  20  21
ENDBRANCH  12  20
ENDBRANCH   3   8
BRANCH   1  23
HETATM   23  C   UNK N   1      26.767  17.072   4.473  0.00  0.00     0.088 C 
BRANCH  23  24
HETATM   24  C   UNK N   1      27.817  17.248   5.518  0.00  0.00    -0.012 A 
HETATM   25  C   UNK N   1      27.667  17.921   6.742  0.00  0.00     0.027 A 
HETATM   26  C   UNK N   1      28.888  17.970   7.468  0.00  0.00    -0.018 A 
HETATM   27  C   UNK N   1      29.957  17.343   6.829  0.00  0.00     0.015 A 
HETATM   28  C   UNK N   1      29.075  18.586   8.703  0.00  0.00     0.013 A 
HETATM   29  C   UNK N   1      31.232  17.300   7.379  0.00  0.00     0.019 A 
HETATM   30  S   UNK N   1      29.401  16.746   5.395  0.00  0.00    -0.094 SA
HETATM   31  C   UNK N   1      31.428  17.918   8.625  0.00  0.00     0.001 A 
HETATM   32  C   UNK N   1      30.356  18.559   9.283  0.00  0.00     0.001 A 
ENDBRANCH  23  24
ENDBRANCH   1  23
TORSDOF 8
ENDMDL
MODEL 6
REMARK VINA RESULT:      -7.5      7.175     10.411
REMARK  8 active torsions:
REMARK  status: ('A' for Active; 'I' for Inactive)
REMARK    1  A    between atoms: C_8  and  C_10 
REMARK    2  A    between atoms: C_10  and  C_11 
REMARK    3  A    between atoms: C_18  and  C_13 
REMARK    4  A    between atoms: C_19  and  O_28 
REMARK    5  A    between atoms: C_20  and  O_27 
REMARK    6  A    between atoms: C_21  and  O_26 
REMARK    7  A    between atoms: C_22  and  C_24 
REMARK    8  A    between atoms: C_24  and  O_25 
ROOT
HETATM    1  C   UNK N   1      26.033  18.339   3.736  0.00  0.00    -0.014 A 
HETATM    2  C   UNK N   1      24.741  17.859   3.982  0.00  0.00     0.020 A 
HETATM    3  C   UNK N   1      23.623  18.697   3.854  0.00  0.00    -0.026 A 
HETATM    4  C   UNK N   1      23.808  20.038   3.500  0.00  0.00     0.013 A 
HETATM    5  C   UNK N   1      25.087  20.538   3.278  0.00  0.00     0.043 A 
HETATM    6  C   UNK N   1      26.199  19.702   3.380  0.00  0.00     0.123 A 
HETATM    7  F   UNK N   1      27.416  20.239   3.126  0.00  0.00    -0.206 F 
ENDROOT
BRANCH   3   8
HETATM    8  C   UNK N   1      22.234  18.141   4.035  0.00  0.00     0.186 C 
HETATM    9  C   UNK N   1      21.955  17.702   5.493  0.00  0.00     0.182 C 
HETATM   10  C   UNK N   1      20.735  16.779   5.560  0.00  0.00     0.181 C 
HETATM   11  C   UNK N   1      19.808  17.034   4.378  0.00  0.00     0.180 C 
HETATM   12  C   UNK N   1      20.601  16.785   3.075  0.00  0.00     0.177 C 
HETATM   13  O   UNK N   1      21.994  17.065   3.152  0.00  0.00    -0.368 OA
BRANCH   9  14
HETATM   14  O   UNK N   1      23.047  17.037   6.055  0.00  0.00    -0.390 OA
HETATM   15  H   UNK N   1      23.863  16.552   5.855  0.00  0.00     0.210 HD
ENDBRANCH   9  14
BRANCH  10  16
HETATM   16  O   UNK N   1      20.070  16.963   6.772  0.00  0.00    -0.390 OA
HETATM   17  H   UNK N   1      20.000  17.827   7.208  0.00  0.00     0.210 HD
ENDBRANCH  10  16
BRANCH  11  18
HETATM   18  O   UNK N   1      18.705  16.179   4.431  0.00  0.00    -0.390 OA
HETATM   19  H   UNK N   1      17.936  16.313   3.856  0.00  0.00     0.210 HD
ENDBRANCH  11  18
BRANCH  12  20
HETATM   20  C   UNK N   1      19.972  17.458   1.863  0.00  0.00     0.198 C 
BRANCH  20  21
HETATM   21  O   UNK N   1      18.870  18.220   2.253  0.00  0.00    -0.398 OA
HETATM   22  H   UNK N   1      18.312  18.646   1.583  0.00  0.00     0.209 HD
ENDBRANCH  20  21
ENDBRANCH  12  20
ENDBRANCH   3   8
BRANCH   1  23
HETATM   23  C   UNK N   1      27.163  17.337   3.840  0.00  0.00     0.088 C 
BRANCH  23  24
HETATM   24  C   UNK N   1      28.021  17.442   5.056  0.00  0.00    -0.012 A 
HETATM   25  C   UNK N   1      27.693  18.104   6.251  0.00  0.00     0.027 A 
HETATM   26  C   UNK N   1      28.768  18.079   7.179  0.00  0.00    -0.018 A 
HETATM   27  C   UNK N   1      29.900  17.406   6.722  0.00  0.00     0.015 A 
HETATM   28  C   UNK N   1      28.766  18.666   8.441  0.00  0.00     0.013 A 
HETATM   29  C   UNK N   1      31.056  17.288   7.484  0.00  0.00     0.019 A 
HETATM   30  S   UNK N   1      29.576  16.860   5.199  0.00  0.00    -0.094 SA
HETATM   31  C   UNK N   1      31.061  17.877   8.759  0.00  0.00     0.001 A 
HETATM   32  C   UNK N   1      29.923  18.563   9.235  0.00  0.00     0.001 A 
ENDBRANCH  23  24
ENDBRANCH   1  23
TORSDOF 8
ENDMDL
MODEL 7
REMARK VINA RESULT:      -7.5      2.216      2.835
REMARK  8 active torsions:
REMARK  status: ('A' for Active; 'I' for Inactive)
REMARK    1  A    between atoms: C_8  and  C_10 
REMARK    2  A    between atoms: C_10  and  C_11 
REMARK    3  A    between atoms: C_18  and  C_13 
REMARK    4  A    between atoms: C_19  and  O_28 
REMARK    5  A    between atoms: C_20  and  O_27 
REMARK    6  A    between atoms: C_21  and  O_26 
REMARK    7  A    between atoms: C_22  and  C_24 
REMARK    8  A    between atoms: C_24  and  O_25 
ROOT
HETATM    1  C   UNK N   1      30.066  16.654   4.846  0.00  0.00    -0.014 A 
HETATM    2  C   UNK N   1      30.863  16.920   5.967  0.00  0.00     0.020 A 
HETATM    3  C   UNK N   1      31.973  16.118   6.270  0.00  0.00    -0.026 A 
HETATM    4  C   UNK N   1      32.270  15.021   5.454  0.00  0.00     0.013 A 
HETATM    5  C   UNK N   1      31.474  14.726   4.352  0.00  0.00     0.043 A 
HETATM    6  C   UNK N   1      30.383  15.536   4.033  0.00  0.00     0.123 A 
HETATM    7  F   UNK N   1      29.662  15.215   2.933  0.00  0.00    -0.206 F 
ENDROOT
BRANCH   3   8
HETATM    8  C   UNK N   1      32.871  16.472   7.427  0.00  0.00     0.186 C 
HETATM    9  C   UNK N   1      33.600  17.822   7.222  0.00  0.00     0.182 C 
HETATM   10  C   UNK N   1      34.789  17.950   8.179  0.00  0.00     0.181 C 
HETATM   11  C   UNK N   1      34.574  17.086   9.415  0.00  0.00     0.180 C 
HETATM   12  C   UNK N   1      34.404  15.619   8.959  0.00  0.00     0.177 C 
HETATM   13  O   UNK N   1      33.812  15.448   7.678  0.00  0.00    -0.368 OA
BRANCH   9  14
HETATM   14  O   UNK N   1      34.064  17.970   5.914  0.00  0.00    -0.390 OA
HETATM   15  H   UNK N   1      34.252  18.613   5.212  0.00  0.00     0.210 HD
ENDBRANCH   9  14
BRANCH  10  16
HETATM   16  O   UNK N   1      34.975  19.289   8.525  0.00  0.00    -0.390 OA
HETATM   17  H   UNK N   1      34.631  19.672   9.347  0.00  0.00     0.210 HD
ENDBRANCH  10  16
BRANCH  11  18
HETATM   18  O   UNK N   1      35.668  17.190  10.278  0.00  0.00    -0.390 OA
HETATM   19  H   UNK N   1      36.376  16.528  10.275  0.00  0.00     0.210 HD
ENDBRANCH  11  18
BRANCH  12  20
HETATM   20  C   UNK N   1      33.713  14.753  10.004  0.00  0.00     0.198 C 
BRANCH  20  21
HETATM   21  O   UNK N   1      33.683  15.412  11.233  0.00  0.00    -0.398 OA
HETATM   22  H   UNK N   1      33.383  16.333  11.285  0.00  0.00     0.209 HD
ENDBRANCH  20  21
ENDBRANCH  12  20
ENDBRANCH   3   8
BRANCH   1  23
HETATM   23  C   UNK N   1      28.932  17.618   4.572  0.00  0.00     0.088 C 
BRANCH  23  24
HETATM   24  C   UNK N   1      27.574  17.168   4.995  0.00  0.00    -0.012 A 
HETATM   25  C   UNK N   1      27.286  16.152   5.923  0.00  0.00     0.027 A 
HETATM   26  C   UNK N   1      25.888  15.924   6.036  0.00  0.00    -0.018 A 
HETATM   27  C   UNK N   1      25.109  16.748   5.225  0.00  0.00     0.015 A 
HETATM   28  C   UNK N   1      25.284  14.971   6.851  0.00  0.00     0.013 A 
HETATM   29  C   UNK N   1      23.722  16.663   5.190  0.00  0.00     0.019 A 
HETATM   30  S   UNK N   1      26.130  17.732   4.383  0.00  0.00    -0.094 SA
HETATM   31  C   UNK N   1      23.105  15.704   6.011  0.00  0.00     0.001 A 
HETATM   32  C   UNK N   1      23.882  14.861   6.836  0.00  0.00     0.001 A 
ENDBRANCH  23  24
ENDBRANCH   1  23
TORSDOF 8
ENDMDL
MODEL 8
REMARK VINA RESULT:      -7.5      6.035     10.376
REMARK  8 active torsions:
REMARK  status: ('A' for Active; 'I' for Inactive)
REMARK    1  A    between atoms: C_8  and  C_10 
REMARK    2  A    between atoms: C_10  and  C_11 
REMARK    3  A    between atoms: C_18  and  C_13 
REMARK    4  A    between atoms: C_19  and  O_28 
REMARK    5  A    between atoms: C_20  and  O_27 
REMARK    6  A    between atoms: C_21  and  O_26 
REMARK    7  A    between atoms: C_22  and  C_24 
REMARK    8  A    between atoms: C_24  and  O_25 
ROOT
HETATM    1  C   UNK N   1      35.903  11.155  12.139  0.00  0.00    -0.014 A 
HETATM    2  C   UNK N   1      35.952  12.291  11.322  0.00  0.00     0.020 A 
HETATM    3  C   UNK N   1      34.984  12.509  10.331  0.00  0.00    -0.026 A 
HETATM    4  C   UNK N   1      33.970  11.564  10.141  0.00  0.00     0.013 A 
HETATM    5  C   UNK N   1      33.921  10.416  10.927  0.00  0.00     0.043 A 
HETATM    6  C   UNK N   1      34.868  10.207  11.929  0.00  0.00     0.123 A 
HETATM    7  F   UNK N   1      34.753   9.085  12.680  0.00  0.00    -0.206 F 
ENDROOT
BRANCH   3   8
HETATM    8  C   UNK N   1      35.001  13.781   9.521  0.00  0.00     0.186 C 
HETATM    9  C   UNK N   1      34.632  15.026  10.363  0.00  0.00     0.182 C 
HETATM   10  C   UNK N   1      34.251  16.202   9.459  0.00  0.00     0.181 C 
HETATM   11  C   UNK N   1      34.903  16.054   8.090  0.00  0.00     0.180 C 
HETATM   12  C   UNK N   1      34.431  14.720   7.467  0.00  0.00     0.177 C 
HETATM   13  O   UNK N   1      34.146  13.685   8.400  0.00  0.00    -0.368 OA
BRANCH   9  14
HETATM   14  O   UNK N   1      33.570  14.772  11.233  0.00  0.00    -0.390 OA
HETATM   15  H   UNK N   1      33.054  15.128  11.973  0.00  0.00     0.210 HD
ENDBRANCH   9  14
BRANCH  10  16
HETATM   16  O   UNK N   1      34.619  17.403  10.066  0.00  0.00    -0.390 OA
HETATM   17  H   UNK N   1      34.014  17.916  10.624  0.00  0.00     0.210 HD
ENDBRANCH  10  16
BRANCH  11  18
HETATM   18  O   UNK N   1      34.540  17.118   7.261  0.00  0.00    -0.390 OA
HETATM   19  H   UNK N   1      34.290  16.973   6.335  0.00  0.00     0.210 HD
ENDBRANCH  11  18
BRANCH  12  20
HETATM   20  C   UNK N   1      35.354  14.226   6.362  0.00  0.00     0.198 C 
BRANCH  20  21
HETATM   21  O   UNK N   1      36.019  15.301   5.772  0.00  0.00    -0.398 OA
HETATM   22  H   UNK N   1      35.515  16.055   5.427  0.00  0.00     0.209 HD
ENDBRANCH  20  21
ENDBRANCH  12  20
ENDBRANCH   3   8
BRANCH   1  23
HETATM   23  C   UNK N   1      36.957  11.046  13.219  0.00  0.00     0.088 C 
BRANCH  23  24
HETATM   24  C   UNK N   1      36.494  11.305  14.614  0.00  0.00    -0.012 A 
HETATM   25  C   UNK N   1      36.044  12.533  15.126  0.00  0.00     0.027 A 
HETATM   26  C   UNK N   1      35.753  12.449  16.515  0.00  0.00    -0.018 A 
HETATM   27  C   UNK N   1      35.962  11.186  17.066  0.00  0.00     0.015 A 
HETATM   28  C   UNK N   1      35.311  13.497  17.318  0.00  0.00     0.013 A 
HETATM   29  C   UNK N   1      35.744  10.913  18.411  0.00  0.00     0.019 A 
HETATM   30  S   UNK N   1      36.500  10.197  15.859  0.00  0.00    -0.094 SA
HETATM   31  C   UNK N   1      35.297  11.966  19.226  0.00  0.00     0.001 A 
HETATM   32  C   UNK N   1      35.083  13.251  18.683  0.00  0.00     0.001 A 
ENDBRANCH  23  24
ENDBRANCH   1  23
TORSDOF 8
ENDMDL
MODEL 9
REMARK VINA RESULT:      -7.3      7.267     10.379
REMARK  8 active torsions:
REMARK  status: ('A' for Active; 'I' for Inactive)
REMARK    1  A    between atoms: C_8  and  C_10 
REMARK    2  A    between atoms: C_10  and  C_11 
REMARK    3  A    between atoms: C_18  and  C_13 
REMARK    4  A    between atoms: C_19  and  O_28 
REMARK    5  A    between atoms: C_20  and  O_27 
REMARK    6  A    between atoms: C_21  and  O_26 
REMARK    7  A    between atoms: C_22  and  C_24 
REMARK    8  A    between atoms: C_24  and  O_25 
ROOT
HETATM    1  C   UNK N   1      26.020  16.262   3.980  0.00  0.00    -0.014 A 
HETATM    2  C   UNK N   1      24.884  16.916   3.489  0.00  0.00     0.020 A 
HETATM    3  C   UNK N   1      23.610  16.342   3.616  0.00  0.00    -0.026 A 
HETATM    4  C   UNK N   1      23.479  15.086   4.218  0.00  0.00     0.013 A 
HETATM    5  C   UNK N   1      24.602  14.410   4.687  0.00  0.00     0.043 A 
HETATM    6  C   UNK N   1      25.867  14.988   4.585  0.00  0.00     0.123 A 
HETATM    7  F   UNK N   1      26.918  14.295   5.085  0.00  0.00    -0.206 F 
ENDROOT
BRANCH   3   8
HETATM    8  C   UNK N   1      22.388  17.100   3.163  0.00  0.00     0.186 C 
HETATM    9  C   UNK N   1      22.067  18.308   4.076  0.00  0.00     0.182 C 
HETATM   10  C   UNK N   1      20.630  18.791   3.855  0.00  0.00     0.181 C 
HETATM   11  C   UNK N   1      20.148  18.411   2.461  0.00  0.00     0.180 C 
HETATM   12  C   UNK N   1      20.229  16.874   2.320  0.00  0.00     0.177 C 
HETATM   13  O   UNK N   1      21.263  16.251   3.071  0.00  0.00    -0.368 OA
BRANCH   9  14
HETATM   14  O   UNK N   1      22.229  17.998   5.427  0.00  0.00    -0.390 OA
HETATM   15  H   UNK N   1      22.845  18.031   6.176  0.00  0.00     0.210 HD
ENDBRANCH   9  14
BRANCH  10  16
HETATM   16  O   UNK N   1      20.558  20.169   4.056  0.00  0.00    -0.390 OA
HETATM   17  H   UNK N   1      20.903  20.603   4.852  0.00  0.00     0.210 HD
ENDBRANCH  10  16
BRANCH  11  18
HETATM   18  O   UNK N   1      18.832  18.836   2.267  0.00  0.00    -0.390 OA
HETATM   19  H   UNK N   1      18.450  19.550   2.799  0.00  0.00     0.210 HD
ENDBRANCH  11  18
BRANCH  12  20
HETATM   20  C   UNK N   1      20.252  16.415   0.868  0.00  0.00     0.198 C 
BRANCH  20  21
HETATM   21  O   UNK N   1      20.255  17.517   0.014  0.00  0.00    -0.398 OA
HETATM   22  H   UNK N   1      19.458  17.744  -0.491  0.00  0.00     0.209 HD
ENDBRANCH  20  21
ENDBRANCH  12  20
ENDBRANCH   3   8
BRANCH   1  23
HETATM   23  C   UNK N   1      27.338  16.995   3.851  0.00  0.00     0.088 C 
BRANCH  23  24
HETATM   24  C   UNK N   1      28.094  17.209   5.119  0.00  0.00    -0.012 A 
HETATM   25  C   UNK N   1      27.625  17.871   6.266  0.00  0.00     0.027 A 
HETATM   26  C   UNK N   1      28.630  17.967   7.267  0.00  0.00    -0.018 A 
HETATM   27  C   UNK N   1      29.846  17.385   6.911  0.00  0.00     0.015 A 
HETATM   28  C   UNK N   1      28.487  18.586   8.506  0.00  0.00     0.013 A 
HETATM   29  C   UNK N   1      30.950  17.391   7.755  0.00  0.00     0.019 A 
HETATM   30  S   UNK N   1      29.680  16.772   5.389  0.00  0.00    -0.094 SA
HETATM   31  C   UNK N   1      30.812  18.013   9.007  0.00  0.00     0.001 A 
HETATM   32  C   UNK N   1      29.588  18.607   9.380  0.00  0.00     0.001 A 
ENDBRANCH  23  24
ENDBRANCH   1  23
TORSDOF 8
ENDMDL
