MODEL 1
REMARK VINA RESULT:      -7.3      0.000      0.000
REMARK  7 active torsions:
REMARK  status: ('A' for Active; 'I' for Inactive)
REMARK    1  A    between atoms: C_2  and  C_3 
REMARK    2  A    between atoms: C_8  and  C_2 
REMARK    3  A    between atoms: C_3  and  C_4 
REMARK    4  A    between atoms: C_4  and  C_5 
REMARK    5  A    between atoms: C_5  and  O_7 
REMARK    6  A    between atoms: C_18  and  O_27 
REMARK    7  A    between atoms: C_23  and  O_25 
ROOT
HETATM    1  C   UNK N   1      30.407  16.394   5.957  0.00  0.00    -0.002 C 
HETATM    2  C   UNK N   1      30.207  15.211   5.028  0.00  0.00     0.006 C 
HETATM    3  C   UNK N   1      31.473  14.361   5.214  0.00  0.00     0.006 C 
HETATM    4  C   UNK N   1      32.405  15.141   6.159  0.00  0.00    -0.002 C 
HETATM    5  C   UNK N   1      31.923  16.586   6.020  0.00  0.00    -0.036 C 
HETATM    6  C   UNK N   1      32.406  17.494   7.149  0.00  0.00     0.010 C 
HETATM    7  C   UNK N   1      32.057  16.921   8.510  0.00  0.00     0.006 C 
HETATM    8  C   UNK N   1      32.694  15.544   8.703  0.00  0.00    -0.001 C 
HETATM    9  C   UNK N   1      32.269  14.555   7.582  0.00  0.00    -0.003 C 
HETATM   10  C   UNK N   1      33.091  13.252   7.621  0.00  0.00     0.037 C 
HETATM   11  C   UNK N   1      33.668  12.974   9.004  0.00  0.00     0.123 C 
HETATM   12  C   UNK N   1      34.612  14.089   9.492  0.00  0.00     0.025 C 
HETATM   13  C   UNK N   1      34.212  15.522   9.005  0.00  0.00    -0.034 C 
HETATM   14  C   UNK N   1      34.549  16.591  10.064  0.00  0.00     0.012 C 
HETATM   15  C   UNK N   1      35.865  16.271  10.759  0.00  0.00     0.032 C 
HETATM   16  C   UNK N   1      35.711  15.001  11.602  0.00  0.00     0.118 C 
HETATM   17  C   UNK N   1      34.704  13.997  11.019  0.00  0.00     0.039 C 
HETATM   18  C   UNK N   1      35.025  15.836   7.753  0.00  0.00     0.016 C 
HETATM   19  C   UNK N   1      32.499  17.136   4.718  0.00  0.00     0.016 C 
ENDROOT
BRANCH   1  20
HETATM   20  C   UNK N   1      29.469  17.600   5.734  0.00  0.00    -0.013 C 
HETATM   21  C   UNK N   1      28.780  17.472   4.390  0.00  0.00     0.010 C 
BRANCH  20  22
HETATM   22  C   UNK N   1      28.403  17.824   6.807  0.00  0.00     0.015 C 
BRANCH  22  23
HETATM   23  C   UNK N   1      28.765  18.910   7.811  0.00  0.00     0.110 C 
BRANCH  23  24
HETATM   24  C   UNK N   1      28.564  18.450   9.214  0.00  0.00     0.139 C 
HETATM   25  O   UNK N   1      29.420  18.660  10.060  0.00  0.00    -0.650 OA
BRANCH  24  26
HETATM   26  O   UNK N   1      27.422  17.828   9.555  0.00  0.00    -0.776 OA
HETATM   27  H   UNK N   1      27.422  16.922   9.795  0.00  0.00     0.167 HD
ENDBRANCH  24  26
ENDBRANCH  23  24
ENDBRANCH  22  23
ENDBRANCH  20  22
ENDBRANCH   1  20
BRANCH  11  28
HETATM   28  O   UNK N   1      34.336  11.749   9.010  0.00  0.00    -0.395 OA
HETATM   29  H   UNK N   1      34.818  11.412   8.238  0.00  0.00     0.210 HD
ENDBRANCH  11  28
BRANCH  16  30
HETATM   30  O   UNK N   1      36.956  14.396  11.760  0.00  0.00    -0.396 OA
HETATM   31  H   UNK N   1      37.311  13.572  11.391  0.00  0.00     0.210 HD
ENDBRANCH  16  30
TORSDOF 7
ENDMDL
MODEL 2
REMARK VINA RESULT:      -7.2     13.483     17.752
REMARK  7 active torsions:
REMARK  status: ('A' for Active; 'I' for Inactive)
REMARK    1  A    between atoms: C_2  and  C_3 
REMARK    2  A    between atoms: C_8  and  C_2 
REMARK    3  A    between atoms: C_3  and  C_4 
REMARK    4  A    between atoms: C_4  and  C_5 
REMARK    5  A    between atoms: C_5  and  O_7 
REMARK    6  A    between atoms: C_18  and  O_27 
REMARK    7  A    between atoms: C_23  and  O_25 
ROOT
HETATM    1  C   UNK N   1      29.521  22.677  -6.472  0.00  0.00    -0.002 C 
HETATM    2  C   UNK N   1      30.108  22.857  -7.860  0.00  0.00     0.006 C 
HETATM    3  C   UNK N   1      29.466  24.152  -8.381  0.00  0.00     0.006 C 
HETATM    4  C   UNK N   1      28.450  24.611  -7.320  0.00  0.00    -0.002 C 
HETATM    5  C   UNK N   1      28.138  23.328  -6.549  0.00  0.00    -0.036 C 
HETATM    6  C   UNK N   1      27.476  23.582  -5.196  0.00  0.00     0.010 C 
HETATM    7  C   UNK N   1      28.286  24.552  -4.356  0.00  0.00     0.006 C 
HETATM    8  C   UNK N   1      28.441  25.896  -5.070  0.00  0.00    -0.001 C 
HETATM    9  C   UNK N   1      29.094  25.728  -6.470  0.00  0.00    -0.003 C 
HETATM   10  C   UNK N   1      29.028  27.028  -7.295  0.00  0.00     0.037 C 
HETATM   11  C   UNK N   1      28.904  28.266  -6.416  0.00  0.00     0.123 C 
HETATM   12  C   UNK N   1      27.636  28.252  -5.540  0.00  0.00     0.025 C 
HETATM   13  C   UNK N   1      27.201  26.823  -5.072  0.00  0.00    -0.034 C 
HETATM   14  C   UNK N   1      26.574  26.859  -3.663  0.00  0.00     0.012 C 
HETATM   15  C   UNK N   1      25.719  28.106  -3.481  0.00  0.00     0.032 C 
HETATM   16  C   UNK N   1      26.611  29.351  -3.483  0.00  0.00     0.118 C 
HETATM   17  C   UNK N   1      27.863  29.207  -4.364  0.00  0.00     0.039 C 
HETATM   18  C   UNK N   1      26.137  26.315  -6.041  0.00  0.00     0.016 C 
HETATM   19  C   UNK N   1      27.155  22.517  -7.390  0.00  0.00     0.016 C 
ENDROOT
BRANCH   1  20
HETATM   20  C   UNK N   1      29.701  21.284  -5.832  0.00  0.00    -0.013 C 
HETATM   21  C   UNK N   1      29.968  20.255  -6.912  0.00  0.00     0.010 C 
BRANCH  20  22
HETATM   22  C   UNK N   1      30.800  21.173  -4.774  0.00  0.00     0.015 C 
BRANCH  22  23
HETATM   23  C   UNK N   1      31.130  22.496  -4.095  0.00  0.00     0.110 C 
BRANCH  23  24
HETATM   24  C   UNK N   1      31.365  22.320  -2.635  0.00  0.00     0.139 C 
HETATM   25  O   UNK N   1      30.721  22.968  -1.825  0.00  0.00    -0.650 OA
BRANCH  24  26
HETATM   26  O   UNK N   1      32.269  21.420  -2.208  0.00  0.00    -0.776 OA
HETATM   27  H   UNK N   1      33.106  21.695  -1.892  0.00  0.00     0.167 HD
ENDBRANCH  24  26
ENDBRANCH  23  24
ENDBRANCH  22  23
ENDBRANCH  20  22
ENDBRANCH   1  20
BRANCH  11  28
HETATM   28  O   UNK N   1      28.927  29.419  -7.201  0.00  0.00    -0.395 OA
HETATM   29  H   UNK N   1      28.402  30.207  -6.988  0.00  0.00     0.210 HD
ENDBRANCH  11  28
BRANCH  16  30
HETATM   30  O   UNK N   1      25.864  30.456  -3.887  0.00  0.00    -0.396 OA
HETATM   31  H   UNK N   1      24.908  30.564  -4.007  0.00  0.00     0.210 HD
ENDBRANCH  16  30
TORSDOF 7
ENDMDL
MODEL 3
REMARK VINA RESULT:      -7.2     13.509     16.275
REMARK  7 active torsions:
REMARK  status: ('A' for Active; 'I' for Inactive)
REMARK    1  A    between atoms: C_2  and  C_3 
REMARK    2  A    between atoms: C_8  and  C_2 
REMARK    3  A    between atoms: C_3  and  C_4 
REMARK    4  A    between atoms: C_4  and  C_5 
REMARK    5  A    between atoms: C_5  and  O_7 
REMARK    6  A    between atoms: C_18  and  O_27 
REMARK    7  A    between atoms: C_23  and  O_25 
ROOT
HETATM    1  C   UNK N   1      26.972  25.934  -5.024  0.00  0.00    -0.002 C 
HETATM    2  C   UNK N   1      26.326  25.664  -3.678  0.00  0.00     0.006 C 
HETATM    3  C   UNK N   1      26.944  24.336  -3.216  0.00  0.00     0.006 C 
HETATM    4  C   UNK N   1      27.839  23.832  -4.363  0.00  0.00    -0.002 C 
HETATM    5  C   UNK N   1      27.276  24.546  -5.593  0.00  0.00    -0.036 C 
HETATM    6  C   UNK N   1      28.231  24.539  -6.785  0.00  0.00     0.010 C 
HETATM    7  C   UNK N   1      29.596  25.081  -6.405  0.00  0.00     0.006 C 
HETATM    8  C   UNK N   1      30.224  24.246  -5.288  0.00  0.00    -0.001 C 
HETATM    9  C   UNK N   1      29.307  24.184  -4.035  0.00  0.00    -0.003 C 
HETATM   10  C   UNK N   1      29.807  23.152  -3.006  0.00  0.00     0.037 C 
HETATM   11  C   UNK N   1      31.300  22.878  -3.139  0.00  0.00     0.123 C 
HETATM   12  C   UNK N   1      31.683  22.321  -4.524  0.00  0.00     0.025 C 
HETATM   13  C   UNK N   1      30.806  22.871  -5.698  0.00  0.00    -0.034 C 
HETATM   14  C   UNK N   1      31.629  23.019  -6.994  0.00  0.00     0.012 C 
HETATM   15  C   UNK N   1      32.617  21.870  -7.143  0.00  0.00     0.032 C 
HETATM   16  C   UNK N   1      33.689  21.964  -6.053  0.00  0.00     0.118 C 
HETATM   17  C   UNK N   1      33.178  22.580  -4.742  0.00  0.00     0.039 C 
HETATM   18  C   UNK N   1      29.694  21.862  -5.966  0.00  0.00     0.016 C 
HETATM   19  C   UNK N   1      26.015  23.797  -6.017  0.00  0.00     0.016 C 
ENDROOT
BRANCH   1  20
HETATM   20  C   UNK N   1      26.298  27.012  -5.899  0.00  0.00    -0.013 C 
HETATM   21  C   UNK N   1      24.824  27.102  -5.556  0.00  0.00     0.010 C 
BRANCH  20  22
HETATM   22  C   UNK N   1      26.903  28.414  -5.813  0.00  0.00     0.015 C 
BRANCH  22  23
HETATM   23  C   UNK N   1      27.749  28.639  -4.568  0.00  0.00     0.110 C 
BRANCH  23  24
HETATM   24  C   UNK N   1      26.953  29.249  -3.466  0.00  0.00     0.139 C 
HETATM   25  O   UNK N   1      27.167  28.935  -2.305  0.00  0.00    -0.650 OA
BRANCH  24  26
HETATM   26  O   UNK N   1      26.017  30.170  -3.751  0.00  0.00    -0.776 OA
HETATM   27  H   UNK N   1      25.270  30.282  -3.195  0.00  0.00     0.167 HD
ENDBRANCH  24  26
ENDBRANCH  23  24
ENDBRANCH  22  23
ENDBRANCH  20  22
ENDBRANCH   1  20
BRANCH  11  28
HETATM   28  O   UNK N   1      31.721  22.000  -2.141  0.00  0.00    -0.395 OA
HETATM   29  H   UNK N   1      31.277  21.935  -1.280  0.00  0.00     0.210 HD
ENDBRANCH  11  28
BRANCH  16  30
HETATM   30  O   UNK N   1      34.219  20.697  -5.814  0.00  0.00    -0.396 OA
HETATM   31  H   UNK N   1      34.131  19.870  -6.313  0.00  0.00     0.210 HD
ENDBRANCH  16  30
TORSDOF 7
ENDMDL
MODEL 4
REMARK VINA RESULT:      -6.9     13.677     18.137
REMARK  7 active torsions:
REMARK  status: ('A' for Active; 'I' for Inactive)
REMARK    1  A    between atoms: C_2  and  C_3 
REMARK    2  A    between atoms: C_8  and  C_2 
REMARK    3  A    between atoms: C_3  and  C_4 
REMARK    4  A    between atoms: C_4  and  C_5 
REMARK    5  A    between atoms: C_5  and  O_7 
REMARK    6  A    between atoms: C_18  and  O_27 
REMARK    7  A    between atoms: C_23  and  O_25 
ROOT
HETATM    1  C   UNK N   1      29.261  25.032  -4.812  0.00  0.00    -0.002 C 
HETATM    2  C   UNK N   1      28.276  25.344  -3.701  0.00  0.00     0.006 C 
HETATM    3  C   UNK N   1      26.896  25.198  -4.361  0.00  0.00     0.006 C 
HETATM    4  C   UNK N   1      27.139  24.915  -5.854  0.00  0.00    -0.002 C 
HETATM    5  C   UNK N   1      28.547  25.460  -6.095  0.00  0.00    -0.036 C 
HETATM    6  C   UNK N   1      29.183  24.943  -7.384  0.00  0.00     0.010 C 
HETATM    7  C   UNK N   1      29.157  23.427  -7.445  0.00  0.00     0.006 C 
HETATM    8  C   UNK N   1      27.722  22.902  -7.379  0.00  0.00    -0.001 C 
HETATM    9  C   UNK N   1      26.990  23.398  -6.101  0.00  0.00    -0.003 C 
HETATM   10  C   UNK N   1      25.482  23.086  -6.145  0.00  0.00     0.037 C 
HETATM   11  C   UNK N   1      25.159  21.915  -7.065  0.00  0.00     0.123 C 
HETATM   12  C   UNK N   1      25.585  22.168  -8.524  0.00  0.00     0.025 C 
HETATM   13  C   UNK N   1      26.877  23.039  -8.669  0.00  0.00    -0.034 C 
HETATM   14  C   UNK N   1      27.714  22.605  -9.890  0.00  0.00     0.012 C 
HETATM   15  C   UNK N   1      26.815  22.226 -11.057  0.00  0.00     0.032 C 
HETATM   16  C   UNK N   1      26.033  20.953 -10.718  0.00  0.00     0.118 C 
HETATM   17  C   UNK N   1      25.716  20.809  -9.221  0.00  0.00     0.039 C 
HETATM   18  C   UNK N   1      26.446  24.485  -8.892  0.00  0.00     0.016 C 
HETATM   19  C   UNK N   1      28.433  26.978  -6.223  0.00  0.00     0.016 C 
ENDROOT
BRANCH   1  20
HETATM   20  C   UNK N   1      30.728  25.437  -4.554  0.00  0.00    -0.013 C 
HETATM   21  C   UNK N   1      30.803  26.352  -3.348  0.00  0.00     0.010 C 
BRANCH  20  22
HETATM   22  C   UNK N   1      31.712  24.284  -4.351  0.00  0.00     0.015 C 
BRANCH  22  23
HETATM   23  C   UNK N   1      31.039  22.951  -4.056  0.00  0.00     0.110 C 
BRANCH  23  24
HETATM   24  C   UNK N   1      31.230  22.541  -2.637  0.00  0.00     0.139 C 
HETATM   25  O   UNK N   1      32.057  21.691  -2.347  0.00  0.00    -0.650 OA
BRANCH  24  26
HETATM   26  O   UNK N   1      30.508  23.133  -1.669  0.00  0.00    -0.776 OA
HETATM   27  H   UNK N   1      30.643  24.035  -1.454  0.00  0.00     0.167 HD
ENDBRANCH  24  26
ENDBRANCH  23  24
ENDBRANCH  22  23
ENDBRANCH  20  22
ENDBRANCH   1  20
BRANCH  11  28
HETATM   28  O   UNK N   1      23.796  21.621  -7.012  0.00  0.00    -0.395 OA
HETATM   29  H   UNK N   1      23.385  20.943  -7.571  0.00  0.00     0.210 HD
ENDBRANCH  11  28
BRANCH  16  30
HETATM   30  O   UNK N   1      24.856  20.919 -11.464  0.00  0.00    -0.396 OA
HETATM   31  H   UNK N   1      24.054  21.461 -11.405  0.00  0.00     0.210 HD
ENDBRANCH  16  30
TORSDOF 7
ENDMDL
MODEL 5
REMARK VINA RESULT:      -6.7      1.671      2.520
REMARK  7 active torsions:
REMARK  status: ('A' for Active; 'I' for Inactive)
REMARK    1  A    between atoms: C_2  and  C_3 
REMARK    2  A    between atoms: C_8  and  C_2 
REMARK    3  A    between atoms: C_3  and  C_4 
REMARK    4  A    between atoms: C_4  and  C_5 
REMARK    5  A    between atoms: C_5  and  O_7 
REMARK    6  A    between atoms: C_18  and  O_27 
REMARK    7  A    between atoms: C_23  and  O_25 
ROOT
HETATM    1  C   UNK N   1      32.517  16.402   6.926  0.00  0.00    -0.002 C 
HETATM    2  C   UNK N   1      33.158  16.208   5.565  0.00  0.00     0.006 C 
HETATM    3  C   UNK N   1      34.593  15.760   5.879  0.00  0.00     0.006 C 
HETATM    4  C   UNK N   1      34.760  15.818   7.408  0.00  0.00    -0.002 C 
HETATM    5  C   UNK N   1      33.673  16.800   7.846  0.00  0.00    -0.036 C 
HETATM    6  C   UNK N   1      33.357  16.725   9.339  0.00  0.00     0.010 C 
HETATM    7  C   UNK N   1      33.028  15.306   9.765  0.00  0.00     0.006 C 
HETATM    8  C   UNK N   1      34.199  14.364   9.478  0.00  0.00    -0.001 C 
HETATM    9  C   UNK N   1      34.600  14.392   7.977  0.00  0.00    -0.003 C 
HETATM   10  C   UNK N   1      35.925  13.646   7.723  0.00  0.00     0.037 C 
HETATM   11  C   UNK N   1      36.218  12.604   8.795  0.00  0.00     0.123 C 
HETATM   12  C   UNK N   1      36.336  13.214  10.204  0.00  0.00     0.025 C 
HETATM   13  C   UNK N   1      35.406  14.450  10.444  0.00  0.00    -0.034 C 
HETATM   14  C   UNK N   1      34.905  14.503  11.902  0.00  0.00     0.012 C 
HETATM   15  C   UNK N   1      35.997  14.067  12.868  0.00  0.00     0.032 C 
HETATM   16  C   UNK N   1      36.301  12.579  12.671  0.00  0.00     0.118 C 
HETATM   17  C   UNK N   1      36.097  12.097  11.226  0.00  0.00     0.039 C 
HETATM   18  C   UNK N   1      36.225  15.712  10.189  0.00  0.00     0.016 C 
HETATM   19  C   UNK N   1      34.188  18.209   7.563  0.00  0.00     0.016 C 
ENDROOT
BRANCH   1  20
HETATM   20  C   UNK N   1      31.188  17.187   6.947  0.00  0.00    -0.013 C 
HETATM   21  C   UNK N   1      30.448  16.977   5.641  0.00  0.00     0.010 C 
BRANCH  20  22
HETATM   22  C   UNK N   1      30.238  16.860   8.101  0.00  0.00     0.015 C 
BRANCH  22  23
HETATM   23  C   UNK N   1      29.750  18.088   8.857  0.00  0.00     0.110 C 
BRANCH  23  24
HETATM   24  C   UNK N   1      28.285  18.023   9.122  0.00  0.00     0.139 C 
HETATM   25  O   UNK N   1      27.814  17.091   9.754  0.00  0.00    -0.650 OA
BRANCH  24  26
HETATM   26  O   UNK N   1      27.484  19.012   8.687  0.00  0.00    -0.776 OA
HETATM   27  H   UNK N   1      26.758  19.303   9.203  0.00  0.00     0.167 HD
ENDBRANCH  24  26
ENDBRANCH  23  24
ENDBRANCH  22  23
ENDBRANCH  20  22
ENDBRANCH   1  20
BRANCH  11  28
HETATM   28  O   UNK N   1      37.383  11.903   8.481  0.00  0.00    -0.395 OA
HETATM   29  H   UNK N   1      37.868  12.039   7.652  0.00  0.00     0.210 HD
ENDBRANCH  11  28
BRANCH  16  30
HETATM   30  O   UNK N   1      37.604  12.312  13.088  0.00  0.00    -0.396 OA
HETATM   31  H   UNK N   1      38.416  12.175  12.576  0.00  0.00     0.210 HD
ENDBRANCH  16  30
TORSDOF 7
ENDMDL
MODEL 6
REMARK VINA RESULT:      -6.5      1.849      2.503
REMARK  7 active torsions:
REMARK  status: ('A' for Active; 'I' for Inactive)
REMARK    1  A    between atoms: C_2  and  C_3 
REMARK    2  A    between atoms: C_8  and  C_2 
REMARK    3  A    between atoms: C_3  and  C_4 
REMARK    4  A    between atoms: C_4  and  C_5 
REMARK    5  A    between atoms: C_5  and  O_7 
REMARK    6  A    between atoms: C_18  and  O_27 
REMARK    7  A    between atoms: C_23  and  O_25 
ROOT
HETATM    1  C   UNK N   1      29.474  15.823   4.037  0.00  0.00    -0.002 C 
HETATM    2  C   UNK N   1      29.537  14.441   3.413  0.00  0.00     0.006 C 
HETATM    3  C   UNK N   1      30.925  13.909   3.801  0.00  0.00     0.006 C 
HETATM    4  C   UNK N   1      31.653  15.046   4.540  0.00  0.00    -0.002 C 
HETATM    5  C   UNK N   1      30.926  16.304   4.062  0.00  0.00    -0.036 C 
HETATM    6  C   UNK N   1      31.181  17.522   4.946  0.00  0.00     0.010 C 
HETATM    7  C   UNK N   1      30.875  17.224   6.403  0.00  0.00     0.006 C 
HETATM    8  C   UNK N   1      31.739  16.072   6.918  0.00  0.00    -0.001 C 
HETATM    9  C   UNK N   1      31.555  14.790   6.060  0.00  0.00    -0.003 C 
HETATM   10  C   UNK N   1      32.596  13.709   6.410  0.00  0.00     0.037 C 
HETATM   11  C   UNK N   1      33.145  13.870   7.822  0.00  0.00     0.123 C 
HETATM   12  C   UNK N   1      33.847  15.224   8.039  0.00  0.00     0.025 C 
HETATM   13  C   UNK N   1      33.220  16.405   7.225  0.00  0.00    -0.034 C 
HETATM   14  C   UNK N   1      33.306  17.734   8.003  0.00  0.00     0.012 C 
HETATM   15  C   UNK N   1      34.622  17.835   8.761  0.00  0.00     0.032 C 
HETATM   16  C   UNK N   1      34.658  16.788   9.879  0.00  0.00     0.118 C 
HETATM   17  C   UNK N   1      33.879  15.506   9.545  0.00  0.00     0.039 C 
HETATM   18  C   UNK N   1      34.023  16.568   5.938  0.00  0.00     0.016 C 
HETATM   19  C   UNK N   1      31.457  16.636   2.669  0.00  0.00     0.016 C 
ENDROOT
BRANCH   1  20
HETATM   20  C   UNK N   1      28.347  16.748   3.530  0.00  0.00    -0.013 C 
HETATM   21  C   UNK N   1      27.339  15.941   2.737  0.00  0.00     0.010 C 
BRANCH  20  22
HETATM   22  C   UNK N   1      27.598  17.537   4.606  0.00  0.00     0.015 C 
BRANCH  22  23
HETATM   23  C   UNK N   1      27.882  19.033   4.575  0.00  0.00     0.110 C 
BRANCH  23  24
HETATM   24  C   UNK N   1      27.686  19.657   5.913  0.00  0.00     0.139 C 
HETATM   25  O   UNK N   1      27.701  20.872   6.034  0.00  0.00    -0.650 OA
BRANCH  24  26
HETATM   26  O   UNK N   1      27.461  18.878   6.986  0.00  0.00    -0.776 OA
HETATM   27  H   UNK N   1      27.772  17.994   7.010  0.00  0.00     0.167 HD
ENDBRANCH  24  26
ENDBRANCH  23  24
ENDBRANCH  22  23
ENDBRANCH  20  22
ENDBRANCH   1  20
BRANCH  11  28
HETATM   28  O   UNK N   1      34.021  12.827   8.121  0.00  0.00    -0.395 OA
HETATM   29  H   UNK N   1      33.760  12.061   8.657  0.00  0.00     0.210 HD
ENDBRANCH  11  28
BRANCH  16  30
HETATM   30  O   UNK N   1      35.983  16.479  10.183  0.00  0.00    -0.396 OA
HETATM   31  H   UNK N   1      36.813  16.855   9.850  0.00  0.00     0.210 HD
ENDBRANCH  16  30
TORSDOF 7
ENDMDL
MODEL 7
REMARK VINA RESULT:      -6.4      2.058      7.201
REMARK  7 active torsions:
REMARK  status: ('A' for Active; 'I' for Inactive)
REMARK    1  A    between atoms: C_2  and  C_3 
REMARK    2  A    between atoms: C_8  and  C_2 
REMARK    3  A    between atoms: C_3  and  C_4 
REMARK    4  A    between atoms: C_4  and  C_5 
REMARK    5  A    between atoms: C_5  and  O_7 
REMARK    6  A    between atoms: C_18  and  O_27 
REMARK    7  A    between atoms: C_23  and  O_25 
ROOT
HETATM    1  C   UNK N   1      33.409  15.662   6.293  0.00  0.00    -0.002 C 
HETATM    2  C   UNK N   1      33.969  16.565   7.376  0.00  0.00     0.006 C 
HETATM    3  C   UNK N   1      32.886  17.635   7.581  0.00  0.00     0.006 C 
HETATM    4  C   UNK N   1      31.791  17.373   6.531  0.00  0.00    -0.002 C 
HETATM    5  C   UNK N   1      32.519  16.576   5.448  0.00  0.00    -0.036 C 
HETATM    6  C   UNK N   1      31.574  15.846   4.497  0.00  0.00     0.010 C 
HETATM    7  C   UNK N   1      30.586  14.978   5.255  0.00  0.00     0.006 C 
HETATM    8  C   UNK N   1      29.740  15.821   6.211  0.00  0.00    -0.001 C 
HETATM    9  C   UNK N   1      30.627  16.616   7.209  0.00  0.00    -0.003 C 
HETATM   10  C   UNK N   1      29.810  17.651   8.006  0.00  0.00     0.037 C 
HETATM   11  C   UNK N   1      28.334  17.284   8.088  0.00  0.00     0.123 C 
HETATM   12  C   UNK N   1      27.665  17.187   6.703  0.00  0.00     0.025 C 
HETATM   13  C   UNK N   1      28.614  16.669   5.572  0.00  0.00    -0.034 C 
HETATM   14  C   UNK N   1      27.845  15.821   4.537  0.00  0.00     0.012 C 
HETATM   15  C   UNK N   1      26.462  16.400   4.281  0.00  0.00     0.032 C 
HETATM   16  C   UNK N   1      25.598  16.259   5.538  0.00  0.00     0.118 C 
HETATM   17  C   UNK N   1      26.403  16.329   6.846  0.00  0.00     0.039 C 
HETATM   18  C   UNK N   1      29.185  17.882   4.845  0.00  0.00     0.016 C 
HETATM   19  C   UNK N   1      33.324  17.570   4.614  0.00  0.00     0.016 C 
ENDROOT
BRANCH   1  20
HETATM   20  C   UNK N   1      34.414  14.702   5.621  0.00  0.00    -0.013 C 
HETATM   21  C   UNK N   1      35.823  15.043   6.062  0.00  0.00     0.010 C 
BRANCH  20  22
HETATM   22  C   UNK N   1      34.176  13.211   5.866  0.00  0.00     0.015 C 
BRANCH  22  23
HETATM   23  C   UNK N   1      33.027  12.924   6.823  0.00  0.00     0.110 C 
BRANCH  23  24
HETATM   24  C   UNK N   1      33.518  12.597   8.190  0.00  0.00     0.139 C 
HETATM   25  O   UNK N   1      34.715  12.485   8.404  0.00  0.00    -0.650 OA
BRANCH  24  26
HETATM   26  O   UNK N   1      32.640  12.456   9.199  0.00  0.00    -0.776 OA
HETATM   27  H   UNK N   1      32.812  12.831  10.040  0.00  0.00     0.167 HD
ENDBRANCH  24  26
ENDBRANCH  23  24
ENDBRANCH  22  23
ENDBRANCH  20  22
ENDBRANCH   1  20
BRANCH  11  28
HETATM   28  O   UNK N   1      27.650  18.205   8.882  0.00  0.00    -0.395 OA
HETATM   29  H   UNK N   1      28.020  19.072   9.115  0.00  0.00     0.210 HD
ENDBRANCH  11  28
BRANCH  16  30
HETATM   30  O   UNK N   1      24.605  17.237   5.532  0.00  0.00    -0.396 OA
HETATM   31  H   UNK N   1      23.848  17.366   4.940  0.00  0.00     0.210 HD
ENDBRANCH  16  30
TORSDOF 7
ENDMDL
MODEL 8
REMARK VINA RESULT:      -6.4      3.710      5.791
REMARK  7 active torsions:
REMARK  status: ('A' for Active; 'I' for Inactive)
REMARK    1  A    between atoms: C_2  and  C_3 
REMARK    2  A    between atoms: C_8  and  C_2 
REMARK    3  A    between atoms: C_3  and  C_4 
REMARK    4  A    between atoms: C_4  and  C_5 
REMARK    5  A    between atoms: C_5  and  O_7 
REMARK    6  A    between atoms: C_18  and  O_27 
REMARK    7  A    between atoms: C_23  and  O_25 
ROOT
HETATM    1  C   UNK N   1      35.287  13.771   8.213  0.00  0.00    -0.002 C 
HETATM    2  C   UNK N   1      35.412  12.531   7.348  0.00  0.00     0.006 C 
HETATM    3  C   UNK N   1      35.934  11.448   8.304  0.00  0.00     0.006 C 
HETATM    4  C   UNK N   1      36.195  12.131   9.659  0.00  0.00    -0.002 C 
HETATM    5  C   UNK N   1      36.364  13.605   9.287  0.00  0.00    -0.036 C 
HETATM    6  C   UNK N   1      36.228  14.548  10.481  0.00  0.00     0.010 C 
HETATM    7  C   UNK N   1      34.930  14.310  11.230  0.00  0.00     0.006 C 
HETATM    8  C   UNK N   1      34.854  12.873  11.749  0.00  0.00    -0.001 C 
HETATM    9  C   UNK N   1      35.003  11.841  10.597  0.00  0.00    -0.003 C 
HETATM   10  C   UNK N   1      35.177  10.405  11.130  0.00  0.00     0.037 C 
HETATM   11  C   UNK N   1      34.600  10.233  12.529  0.00  0.00     0.123 C 
HETATM   12  C   UNK N   1      35.264  11.157  13.567  0.00  0.00     0.025 C 
HETATM   13  C   UNK N   1      35.715  12.541  12.992  0.00  0.00    -0.034 C 
HETATM   14  C   UNK N   1      35.568  13.662  14.042  0.00  0.00     0.012 C 
HETATM   15  C   UNK N   1      35.945  13.159  15.428  0.00  0.00     0.032 C 
HETATM   16  C   UNK N   1      34.921  12.121  15.900  0.00  0.00     0.118 C 
HETATM   17  C   UNK N   1      34.306  11.302  14.754  0.00  0.00     0.039 C 
HETATM   18  C   UNK N   1      37.192  12.440  12.625  0.00  0.00     0.016 C 
HETATM   19  C   UNK N   1      37.776  13.776   8.733  0.00  0.00     0.016 C 
ENDROOT
BRANCH   1  20
HETATM   20  C   UNK N   1      35.123  15.111   7.464  0.00  0.00    -0.013 C 
HETATM   21  C   UNK N   1      35.518  14.937   6.011  0.00  0.00     0.010 C 
BRANCH  20  22
HETATM   22  C   UNK N   1      33.729  15.738   7.516  0.00  0.00     0.015 C 
BRANCH  22  23
HETATM   23  C   UNK N   1      33.536  16.701   8.680  0.00  0.00     0.110 C 
BRANCH  23  24
HETATM   24  C   UNK N   1      34.598  17.745   8.711  0.00  0.00     0.139 C 
HETATM   25  O   UNK N   1      35.321  17.858   9.689  0.00  0.00    -0.650 OA
BRANCH  24  26
HETATM   26  O   UNK N   1      34.780  18.544   7.645  0.00  0.00    -0.776 OA
HETATM   27  H   UNK N   1      35.415  19.232   7.665  0.00  0.00     0.167 HD
ENDBRANCH  24  26
ENDBRANCH  23  24
ENDBRANCH  22  23
ENDBRANCH  20  22
ENDBRANCH   1  20
BRANCH  11  28
HETATM   28  O   UNK N   1      34.711   8.903  12.936  0.00  0.00    -0.395 OA
HETATM   29  H   UNK N   1      34.705   8.640  13.870  0.00  0.00     0.210 HD
ENDBRANCH  11  28
BRANCH  16  30
HETATM   30  O   UNK N   1      35.516  11.272  16.831  0.00  0.00    -0.396 OA
HETATM   31  H   UNK N   1      36.036  10.463  16.708  0.00  0.00     0.210 HD
ENDBRANCH  16  30
TORSDOF 7
ENDMDL
MODEL 9
REMARK VINA RESULT:      -6.3      4.997      9.700
REMARK  7 active torsions:
REMARK  status: ('A' for Active; 'I' for Inactive)
REMARK    1  A    between atoms: C_2  and  C_3 
REMARK    2  A    between atoms: C_8  and  C_2 
REMARK    3  A    between atoms: C_3  and  C_4 
REMARK    4  A    between atoms: C_4  and  C_5 
REMARK    5  A    between atoms: C_5  and  O_7 
REMARK    6  A    between atoms: C_18  and  O_27 
REMARK    7  A    between atoms: C_23  and  O_25 
ROOT
HETATM    1  C   UNK N   1      36.526  10.619  15.092  0.00  0.00    -0.002 C 
HETATM    2  C   UNK N   1      37.748   9.776  14.780  0.00  0.00     0.006 C 
HETATM    3  C   UNK N   1      37.933   9.918  13.262  0.00  0.00     0.006 C 
HETATM    4  C   UNK N   1      36.746  10.747  12.739  0.00  0.00    -0.002 C 
HETATM    5  C   UNK N   1      35.680  10.562  13.819  0.00  0.00    -0.036 C 
HETATM    6  C   UNK N   1      34.561  11.599  13.748  0.00  0.00     0.010 C 
HETATM    7  C   UNK N   1      35.115  13.012  13.750  0.00  0.00     0.006 C 
HETATM    8  C   UNK N   1      36.048  13.236  12.559  0.00  0.00    -0.001 C 
HETATM    9  C   UNK N   1      37.211  12.207  12.543  0.00  0.00    -0.003 C 
HETATM   10  C   UNK N   1      38.009  12.261  11.226  0.00  0.00     0.037 C 
HETATM   11  C   UNK N   1      37.889  13.611  10.531  0.00  0.00     0.123 C 
HETATM   12  C   UNK N   1      36.434  13.966  10.165  0.00  0.00     0.025 C 
HETATM   13  C   UNK N   1      35.372  13.428  11.180  0.00  0.00    -0.034 C 
HETATM   14  C   UNK N   1      34.180  14.398  11.313  0.00  0.00     0.012 C 
HETATM   15  C   UNK N   1      33.827  15.013   9.967  0.00  0.00     0.032 C 
HETATM   16  C   UNK N   1      34.959  15.936   9.505  0.00  0.00     0.118 C 
HETATM   17  C   UNK N   1      36.350  15.485   9.981  0.00  0.00     0.039 C 
HETATM   18  C   UNK N   1      34.835  12.105  10.642  0.00  0.00     0.016 C 
HETATM   19  C   UNK N   1      35.042   9.192  13.600  0.00  0.00     0.016 C 
ENDROOT
BRANCH   1  20
HETATM   20  C   UNK N   1      35.880  10.396  16.477  0.00  0.00    -0.013 C 
HETATM   21  C   UNK N   1      36.783   9.527  17.329  0.00  0.00     0.010 C 
BRANCH  20  22
HETATM   22  C   UNK N   1      35.539  11.662  17.265  0.00  0.00     0.015 C 
BRANCH  22  23
HETATM   23  C   UNK N   1      35.672  11.497  18.773  0.00  0.00     0.110 C 
BRANCH  23  24
HETATM   24  C   UNK N   1      35.181  12.699  19.502  0.00  0.00     0.139 C 
HETATM   25  O   UNK N   1      35.313  13.812  19.016  0.00  0.00    -0.650 OA
BRANCH  24  26
HETATM   26  O   UNK N   1      34.562  12.554  20.687  0.00  0.00    -0.776 OA
HETATM   27  H   UNK N   1      33.735  12.117  20.746  0.00  0.00     0.167 HD
ENDBRANCH  24  26
ENDBRANCH  23  24
ENDBRANCH  22  23
ENDBRANCH  20  22
ENDBRANCH   1  20
BRANCH  11  28
HETATM   28  O   UNK N   1      38.687  13.639   9.388  0.00  0.00    -0.395 OA
HETATM   29  H   UNK N   1      39.131  14.445   9.079  0.00  0.00     0.210 HD
ENDBRANCH  11  28
BRANCH  16  30
HETATM   30  O   UNK N   1      34.937  16.038   8.115  0.00  0.00    -0.396 OA
HETATM   31  H   UNK N   1      35.214  16.759   7.529  0.00  0.00     0.210 HD
ENDBRANCH  16  30
TORSDOF 7
ENDMDL
