MODEL 1
REMARK VINA RESULT:      -8.2      0.000      0.000
REMARK  2 active torsions:
REMARK  status: ('A' for Active; 'I' for Inactive)
REMARK    1  A    between atoms: C_7  and  N_9 
REMARK    2  A    between atoms: N_9  and  C_10 
ROOT
HETATM    1  C   UNK N   1      29.230  29.254  -8.071  0.00  0.00     0.018 C 
HETATM    2  C   UNK N   1      28.441  28.909  -7.229  0.00  0.00    -0.078 C 
HETATM    3  C   UNK N   1      27.504  28.416  -6.264  0.00  0.00     0.019 A 
HETATM    4  C   UNK N   1      27.026  29.206  -5.213  0.00  0.00     0.021 A 
HETATM    5  C   UNK N   1      26.112  28.660  -4.298  0.00  0.00     0.004 A 
HETATM    6  C   UNK N   1      25.684  27.332  -4.438  0.00  0.00     0.029 A 
HETATM    7  C   UNK N   1      26.171  26.552  -5.496  0.00  0.00     0.035 A 
HETATM    8  C   UNK N   1      27.074  27.111  -6.393  0.00  0.00     0.050 A 
ENDROOT
BRANCH   7   9
HETATM    9  N   UNK N   1      25.731  25.213  -5.659  0.00  0.00    -0.342 N 
HETATM   10  H   UNK N   1      25.191  24.817  -4.937  0.00  0.00     0.167 HD
BRANCH   9  11
HETATM   11  C   UNK N   1      26.017  24.396  -6.801  0.00  0.00     0.119 A 
HETATM   12  C   UNK N   1      27.095  23.520  -6.762  0.00  0.00     0.038 A 
HETATM   13  C   UNK N   1      27.914  23.449  -5.645  0.00  0.00     0.057 A 
HETATM   14  C   UNK N   1      27.330  22.682  -7.872  0.00  0.00     0.050 A 
HETATM   15  C   UNK N   1      28.956  22.525  -5.597  0.00  0.00     0.103 A 
HETATM   16  C   UNK N   1      29.178  21.666  -6.680  0.00  0.00     0.104 A 
HETATM   17  O   UNK N   1      29.766  22.451  -4.523  0.00  0.00    -0.346 OA
HETATM   18  C   UNK N   1      28.378  21.755  -7.829  0.00  0.00     0.070 A 
HETATM   19  O   UNK N   1      30.138  20.728  -6.571  0.00  0.00    -0.346 OA
HETATM   20  C   UNK N   1      31.201  20.639  -7.429  0.00  0.00     0.201 C 
HETATM   21  C   UNK N   1      32.468  20.478  -6.591  0.00  0.00     0.194 C 
HETATM   22  O   UNK N   1      32.507  21.421  -5.553  0.00  0.00    -0.387 OA
HETATM   23  C   UNK N   1      32.240  20.697  -4.383  0.00  0.00     0.193 C 
HETATM   24  C   UNK N   1      32.381  21.599  -3.164  0.00  0.00     0.193 C 
HETATM   25  O   UNK N   1      31.176  21.656  -2.453  0.00  0.00    -0.387 OA
HETATM   26  C   UNK N   1      30.810  23.007  -2.477  0.00  0.00     0.194 C 
HETATM   27  C   UNK N   1      29.616  23.222  -3.393  0.00  0.00     0.201 C 
HETATM   28  N   UNK N   1      26.521  22.754  -8.956  0.00  0.00    -0.351 N 
HETATM   29  C   UNK N   1      25.477  23.625  -8.982  0.00  0.00     0.182 A 
ATOM     30  HN  UNK N   1      26.695  22.150  -9.759  1.00  0.00     0.166 HD
HETATM   31  N   UNK N   1      25.231  24.426  -7.910  0.00  0.00    -0.338 N 
ATOM     32  HN  UNK N   1      24.437  25.066  -7.940  1.00  0.00     0.168 HD
ENDBRANCH   9  11
ENDBRANCH   7   9
TORSDOF 2
ENDMDL
MODEL 2
REMARK VINA RESULT:      -7.9     16.526     20.891
REMARK  2 active torsions:
REMARK  status: ('A' for Active; 'I' for Inactive)
REMARK    1  A    between atoms: C_7  and  N_9 
REMARK    2  A    between atoms: N_9  and  C_10 
ROOT
HETATM    1  C   UNK N   1      33.891  10.436  15.143  0.00  0.00     0.018 C 
HETATM    2  C   UNK N   1      34.561  11.435  15.079  0.00  0.00    -0.078 C 
HETATM    3  C   UNK N   1      35.339  12.626  14.916  0.00  0.00     0.019 A 
HETATM    4  C   UNK N   1      35.978  13.257  15.990  0.00  0.00     0.021 A 
HETATM    5  C   UNK N   1      36.721  14.426  15.763  0.00  0.00     0.004 A 
HETATM    6  C   UNK N   1      36.820  14.956  14.468  0.00  0.00     0.029 A 
HETATM    7  C   UNK N   1      36.176  14.315  13.401  0.00  0.00     0.035 A 
HETATM    8  C   UNK N   1      35.446  13.156  13.646  0.00  0.00     0.050 A 
ENDROOT
BRANCH   7   9
HETATM    9  N   UNK N   1      36.284  14.831  12.085  0.00  0.00    -0.342 N 
HETATM   10  H   UNK N   1      35.853  15.696  11.895  0.00  0.00     0.167 HD
BRANCH   9  11
HETATM   11  C   UNK N   1      36.977  14.182  11.012  0.00  0.00     0.119 A 
HETATM   12  C   UNK N   1      36.518  14.337   9.709  0.00  0.00     0.038 A 
HETATM   13  C   UNK N   1      35.382  15.085   9.440  0.00  0.00     0.057 A 
HETATM   14  C   UNK N   1      37.243  13.739   8.657  0.00  0.00     0.050 A 
HETATM   15  C   UNK N   1      34.966  15.280   8.123  0.00  0.00     0.103 A 
HETATM   16  C   UNK N   1      35.698  14.718   7.070  0.00  0.00     0.104 A 
HETATM   17  O   UNK N   1      33.859  15.996   7.846  0.00  0.00    -0.346 OA
HETATM   18  C   UNK N   1      36.827  13.929   7.335  0.00  0.00     0.070 A 
HETATM   19  O   UNK N   1      35.321  14.993   5.807  0.00  0.00    -0.346 OA
HETATM   20  C   UNK N   1      34.972  14.027   4.901  0.00  0.00     0.201 C 
HETATM   21  C   UNK N   1      33.671  14.462   4.229  0.00  0.00     0.194 C 
HETATM   22  O   UNK N   1      32.728  14.877   5.181  0.00  0.00    -0.387 OA
HETATM   23  C   UNK N   1      32.671  16.272   5.066  0.00  0.00     0.193 C 
HETATM   24  C   UNK N   1      31.580  16.829   5.970  0.00  0.00     0.193 C 
HETATM   25  O   UNK N   1      32.122  17.725   6.900  0.00  0.00    -0.387 OA
HETATM   26  C   UNK N   1      31.829  17.166   8.150  0.00  0.00     0.194 C 
HETATM   27  C   UNK N   1      33.089  16.619   8.800  0.00  0.00     0.201 C 
HETATM   28  N   UNK N   1      38.356  13.015   8.930  0.00  0.00    -0.351 N 
HETATM   29  C   UNK N   1      38.784  12.865  10.211  0.00  0.00     0.182 A 
ATOM     30  HN  UNK N   1      38.876  12.580   8.168  1.00  0.00     0.166 HD
HETATM   31  N   UNK N   1      38.102  13.451  11.232  0.00  0.00    -0.338 N 
ATOM     32  HN  UNK N   1      38.443  13.338  12.187  1.00  0.00     0.168 HD
ENDBRANCH   9  11
ENDBRANCH   7   9
TORSDOF 2
ENDMDL
MODEL 3
REMARK VINA RESULT:      -7.7     14.005     16.803
REMARK  2 active torsions:
REMARK  status: ('A' for Active; 'I' for Inactive)
REMARK    1  A    between atoms: C_7  and  N_9 
REMARK    2  A    between atoms: N_9  and  C_10 
ROOT
HETATM    1  C   UNK N   1      20.153  12.069  11.743  0.00  0.00     0.018 C 
HETATM    2  C   UNK N   1      21.149  12.276  11.099  0.00  0.00    -0.078 C 
HETATM    3  C   UNK N   1      22.282  12.548  10.266  0.00  0.00     0.019 A 
HETATM    4  C   UNK N   1      23.598  12.413  10.722  0.00  0.00     0.021 A 
HETATM    5  C   UNK N   1      24.663  12.701   9.855  0.00  0.00     0.004 A 
HETATM    6  C   UNK N   1      24.408  13.121   8.541  0.00  0.00     0.029 A 
HETATM    7  C   UNK N   1      23.085  13.253   8.097  0.00  0.00     0.035 A 
HETATM    8  C   UNK N   1      22.043  12.961   8.970  0.00  0.00     0.050 A 
ENDROOT
BRANCH   7   9
HETATM    9  N   UNK N   1      22.815  13.660   6.765  0.00  0.00    -0.342 N 
HETATM   10  H   UNK N   1      23.016  13.022   6.042  0.00  0.00     0.167 HD
BRANCH   9  11
HETATM   11  C   UNK N   1      22.269  14.933   6.398  0.00  0.00     0.119 A 
HETATM   12  C   UNK N   1      23.119  15.939   5.954  0.00  0.00     0.038 A 
HETATM   13  C   UNK N   1      24.489  15.735   5.891  0.00  0.00     0.057 A 
HETATM   14  C   UNK N   1      22.561  17.167   5.543  0.00  0.00     0.050 A 
HETATM   15  C   UNK N   1      25.324  16.733   5.389  0.00  0.00     0.103 A 
HETATM   16  C   UNK N   1      24.777  17.944   4.948  0.00  0.00     0.104 A 
HETATM   17  O   UNK N   1      26.658  16.555   5.330  0.00  0.00    -0.346 OA
HETATM   18  C   UNK N   1      23.396  18.172   5.042  0.00  0.00     0.070 A 
HETATM   19  O   UNK N   1      25.597  18.855   4.390  0.00  0.00    -0.346 OA
HETATM   20  C   UNK N   1      25.748  20.125   4.877  0.00  0.00     0.201 C 
HETATM   21  C   UNK N   1      27.244  20.425   4.951  0.00  0.00     0.194 C 
HETATM   22  O   UNK N   1      27.938  19.372   5.567  0.00  0.00    -0.387 OA
HETATM   23  C   UNK N   1      28.626  18.724   4.532  0.00  0.00     0.193 C 
HETATM   24  C   UNK N   1      29.520  17.631   5.101  0.00  0.00     0.193 C 
HETATM   25  O   UNK N   1      29.168  16.383   4.574  0.00  0.00    -0.387 OA
HETATM   26  C   UNK N   1      28.797  15.616   5.685  0.00  0.00     0.194 C 
HETATM   27  C   UNK N   1      27.294  15.393   5.704  0.00  0.00     0.201 C 
HETATM   28  N   UNK N   1      21.220  17.354   5.603  0.00  0.00    -0.351 N 
HETATM   29  C   UNK N   1      20.405  16.363   6.050  0.00  0.00     0.182 A 
ATOM     30  HN  UNK N   1      20.820  18.245   5.309  1.00  0.00     0.166 HD
HETATM   31  N   UNK N   1      20.930  15.168   6.434  0.00  0.00    -0.338 N 
ATOM     32  HN  UNK N   1      20.304  14.430   6.756  1.00  0.00     0.168 HD
ENDBRANCH   9  11
ENDBRANCH   7   9
TORSDOF 2
ENDMDL
MODEL 4
REMARK VINA RESULT:      -7.7     12.696     14.908
REMARK  2 active torsions:
REMARK  status: ('A' for Active; 'I' for Inactive)
REMARK    1  A    between atoms: C_7  and  N_9 
REMARK    2  A    between atoms: N_9  and  C_10 
ROOT
HETATM    1  C   UNK N   1      19.214  18.389   9.586  0.00  0.00     0.018 C 
HETATM    2  C   UNK N   1      19.589  17.477   8.894  0.00  0.00    -0.078 C 
HETATM    3  C   UNK N   1      20.032  16.448   8.002  0.00  0.00     0.019 A 
HETATM    4  C   UNK N   1      20.361  15.162   8.445  0.00  0.00     0.021 A 
HETATM    5  C   UNK N   1      20.794  14.201   7.518  0.00  0.00     0.004 A 
HETATM    6  C   UNK N   1      20.895  14.529   6.159  0.00  0.00     0.029 A 
HETATM    7  C   UNK N   1      20.562  15.821   5.728  0.00  0.00     0.035 A 
HETATM    8  C   UNK N   1      20.133  16.759   6.661  0.00  0.00     0.050 A 
ENDROOT
BRANCH   7   9
HETATM    9  N   UNK N   1      20.642  16.159   4.353  0.00  0.00    -0.342 N 
HETATM   10  H   UNK N   1      20.508  15.439   3.695  0.00  0.00     0.167 HD
BRANCH   9  11
HETATM   11  C   UNK N   1      20.905  17.476   3.853  0.00  0.00     0.119 A 
HETATM   12  C   UNK N   1      22.184  18.008   3.966  0.00  0.00     0.038 A 
HETATM   13  C   UNK N   1      23.200  17.292   4.582  0.00  0.00     0.057 A 
HETATM   14  C   UNK N   1      22.442  19.282   3.419  0.00  0.00     0.050 A 
HETATM   15  C   UNK N   1      24.492  17.813   4.636  0.00  0.00     0.103 A 
HETATM   16  C   UNK N   1      24.765  19.062   4.067  0.00  0.00     0.104 A 
HETATM   17  O   UNK N   1      25.487  17.134   5.240  0.00  0.00    -0.346 OA
HETATM   18  C   UNK N   1      23.736  19.810   3.475  0.00  0.00     0.070 A 
HETATM   19  O   UNK N   1      26.037  19.502   4.061  0.00  0.00    -0.346 OA
HETATM   20  C   UNK N   1      26.429  20.676   4.646  0.00  0.00     0.201 C 
HETATM   21  C   UNK N   1      27.678  20.392   5.479  0.00  0.00     0.194 C 
HETATM   22  O   UNK N   1      27.498  19.256   6.283  0.00  0.00    -0.387 OA
HETATM   23  C   UNK N   1      28.274  18.252   5.687  0.00  0.00     0.193 C 
HETATM   24  C   UNK N   1      28.257  16.996   6.549  0.00  0.00     0.193 C 
HETATM   25  O   UNK N   1      27.738  15.913   5.830  0.00  0.00    -0.387 OA
HETATM   26  C   UNK N   1      26.604  15.515   6.549  0.00  0.00     0.194 C 
HETATM   27  C   UNK N   1      25.336  15.886   5.799  0.00  0.00     0.201 C 
HETATM   28  N   UNK N   1      21.444  19.971   2.813  0.00  0.00    -0.351 N 
HETATM   29  C   UNK N   1      20.196  19.441   2.722  0.00  0.00     0.182 A 
ATOM     30  HN  UNK N   1      21.632  20.894   2.422  1.00  0.00     0.166 HD
HETATM   31  N   UNK N   1      19.940  18.205   3.231  0.00  0.00    -0.338 N 
ATOM     32  HN  UNK N   1      19.001  17.816   3.144  1.00  0.00     0.168 HD
ENDBRANCH   9  11
ENDBRANCH   7   9
TORSDOF 2
ENDMDL
MODEL 5
REMARK VINA RESULT:      -7.6     11.605     13.925
REMARK  2 active torsions:
REMARK  status: ('A' for Active; 'I' for Inactive)
REMARK    1  A    between atoms: C_7  and  N_9 
REMARK    2  A    between atoms: N_9  and  C_10 
ROOT
HETATM    1  C   UNK N   1      17.859  12.677   0.332  0.00  0.00     0.018 C 
HETATM    2  C   UNK N   1      18.912  13.172   0.642  0.00  0.00    -0.078 C 
HETATM    3  C   UNK N   1      20.120  13.813   1.068  0.00  0.00     0.019 A 
HETATM    4  C   UNK N   1      21.380  13.426   0.598  0.00  0.00     0.021 A 
HETATM    5  C   UNK N   1      22.525  14.093   1.059  0.00  0.00     0.004 A 
HETATM    6  C   UNK N   1      22.405  15.140   1.985  0.00  0.00     0.029 A 
HETATM    7  C   UNK N   1      21.137  15.517   2.448  0.00  0.00     0.035 A 
HETATM    8  C   UNK N   1      20.014  14.846   1.978  0.00  0.00     0.050 A 
ENDROOT
BRANCH   7   9
HETATM    9  N   UNK N   1      21.001  16.586   3.371  0.00  0.00    -0.342 N 
HETATM   10  H   UNK N   1      20.681  16.371   4.277  0.00  0.00     0.167 HD
BRANCH   9  11
HETATM   11  C   UNK N   1      21.297  17.957   3.077  0.00  0.00     0.119 A 
HETATM   12  C   UNK N   1      22.524  18.488   3.456  0.00  0.00     0.038 A 
HETATM   13  C   UNK N   1      23.451  17.718   4.141  0.00  0.00     0.057 A 
HETATM   14  C   UNK N   1      22.823  19.823   3.110  0.00  0.00     0.050 A 
HETATM   15  C   UNK N   1      24.701  18.246   4.464  0.00  0.00     0.103 A 
HETATM   16  C   UNK N   1      25.020  19.558   4.096  0.00  0.00     0.104 A 
HETATM   17  O   UNK N   1      25.608  17.514   5.138  0.00  0.00    -0.346 OA
HETATM   18  C   UNK N   1      24.074  20.358   3.435  0.00  0.00     0.070 A 
HETATM   19  O   UNK N   1      26.262  20.013   4.346  0.00  0.00    -0.346 OA
HETATM   20  C   UNK N   1      26.517  21.113   5.120  0.00  0.00     0.201 C 
HETATM   21  C   UNK N   1      27.626  20.748   6.105  0.00  0.00     0.194 C 
HETATM   22  O   UNK N   1      27.357  19.521   6.732  0.00  0.00    -0.387 OA
HETATM   23  C   UNK N   1      28.251  18.607   6.157  0.00  0.00     0.193 C 
HETATM   24  C   UNK N   1      28.138  17.257   6.853  0.00  0.00     0.193 C 
HETATM   25  O   UNK N   1      27.776  16.261   5.938  0.00  0.00    -0.387 OA
HETATM   26  C   UNK N   1      26.556  15.764   6.414  0.00  0.00     0.194 C 
HETATM   27  C   UNK N   1      25.412  16.205   5.516  0.00  0.00     0.201 C 
HETATM   28  N   UNK N   1      21.913  20.565   2.435  0.00  0.00    -0.351 N 
HETATM   29  C   UNK N   1      20.713  20.033   2.082  0.00  0.00     0.182 A 
ATOM     30  HN  UNK N   1      22.130  21.532   2.189  1.00  0.00     0.166 HD
HETATM   31  N   UNK N   1      20.420  18.742   2.396  0.00  0.00    -0.338 N 
ATOM     32  HN  UNK N   1      19.520  18.354   2.114  1.00  0.00     0.168 HD
ENDBRANCH   9  11
ENDBRANCH   7   9
TORSDOF 2
ENDMDL
MODEL 6
REMARK VINA RESULT:      -7.6     23.910     28.054
REMARK  2 active torsions:
REMARK  status: ('A' for Active; 'I' for Inactive)
REMARK    1  A    between atoms: C_7  and  N_9 
REMARK    2  A    between atoms: N_9  and  C_10 
ROOT
HETATM    1  C   UNK N   1      32.707   3.911  18.594  0.00  0.00     0.018 C 
HETATM    2  C   UNK N   1      32.630   5.059  18.951  0.00  0.00    -0.078 C 
HETATM    3  C   UNK N   1      32.622   6.436  19.343  0.00  0.00     0.019 A 
HETATM    4  C   UNK N   1      31.507   7.041  19.935  0.00  0.00     0.021 A 
HETATM    5  C   UNK N   1      31.563   8.397  20.292  0.00  0.00     0.004 A 
HETATM    6  C   UNK N   1      32.729   9.140  20.054  0.00  0.00     0.029 A 
HETATM    7  C   UNK N   1      33.839   8.523  19.460  0.00  0.00     0.035 A 
HETATM    8  C   UNK N   1      33.765   7.177  19.116  0.00  0.00     0.050 A 
ENDROOT
BRANCH   7   9
HETATM    9  N   UNK N   1      35.030   9.258  19.231  0.00  0.00    -0.342 N 
HETATM   10  H   UNK N   1      35.864   8.751  19.103  0.00  0.00     0.167 HD
BRANCH   9  11
HETATM   11  C   UNK N   1      35.105  10.688  19.175  0.00  0.00     0.119 A 
HETATM   12  C   UNK N   1      35.166  11.322  17.940  0.00  0.00     0.038 A 
HETATM   13  C   UNK N   1      35.187  10.587  16.764  0.00  0.00     0.057 A 
HETATM   14  C   UNK N   1      35.182  12.732  17.899  0.00  0.00     0.050 A 
HETATM   15  C   UNK N   1      35.190  11.237  15.531  0.00  0.00     0.103 A 
HETATM   16  C   UNK N   1      35.173  12.635  15.479  0.00  0.00     0.104 A 
HETATM   17  O   UNK N   1      35.220  10.537  14.380  0.00  0.00    -0.346 OA
HETATM   18  C   UNK N   1      35.189  13.388  16.664  0.00  0.00     0.070 A 
HETATM   19  O   UNK N   1      35.091  13.234  14.276  0.00  0.00    -0.346 OA
HETATM   20  C   UNK N   1      36.030  14.116  13.811  0.00  0.00     0.201 C 
HETATM   21  C   UNK N   1      36.378  13.718  12.378  0.00  0.00     0.194 C 
HETATM   22  O   UNK N   1      36.631  12.341  12.286  0.00  0.00    -0.387 OA
HETATM   23  C   UNK N   1      35.514  11.800  11.635  0.00  0.00     0.193 C 
HETATM   24  C   UNK N   1      35.733  10.317  11.364  0.00  0.00     0.193 C 
HETATM   25  O   UNK N   1      34.742   9.552  11.991  0.00  0.00    -0.387 OA
HETATM   26  C   UNK N   1      35.438   8.724  12.880  0.00  0.00     0.194 C 
HETATM   27  C   UNK N   1      35.203   9.163  14.316  0.00  0.00     0.201 C 
HETATM   28  N   UNK N   1      35.155  13.441  19.054  0.00  0.00    -0.351 N 
HETATM   29  C   UNK N   1      35.106  12.804  20.254  0.00  0.00     0.182 A 
ATOM     30  HN  UNK N   1      35.171  14.460  19.022  1.00  0.00     0.166 HD
HETATM   31  N   UNK N   1      35.074  11.445  20.305  0.00  0.00    -0.338 N 
ATOM     32  HN  UNK N   1      35.025  10.983  21.212  1.00  0.00     0.168 HD
ENDBRANCH   9  11
ENDBRANCH   7   9
TORSDOF 2
ENDMDL
MODEL 7
REMARK VINA RESULT:      -7.4     14.945     17.128
REMARK  2 active torsions:
REMARK  status: ('A' for Active; 'I' for Inactive)
REMARK    1  A    between atoms: C_7  and  N_9 
REMARK    2  A    between atoms: N_9  and  C_10 
ROOT
HETATM    1  C   UNK N   1      18.994  12.679   0.530  0.00  0.00     0.018 C 
HETATM    2  C   UNK N   1      20.166  12.940   0.624  0.00  0.00    -0.078 C 
HETATM    3  C   UNK N   1      21.539  13.307   0.802  0.00  0.00     0.019 A 
HETATM    4  C   UNK N   1      22.573  12.721   0.063  0.00  0.00     0.021 A 
HETATM    5  C   UNK N   1      23.899  13.123   0.289  0.00  0.00     0.004 A 
HETATM    6  C   UNK N   1      24.182  14.104   1.251  0.00  0.00     0.029 A 
HETATM    7  C   UNK N   1      23.137  14.683   1.984  0.00  0.00     0.035 A 
HETATM    8  C   UNK N   1      21.830  14.273   1.744  0.00  0.00     0.050 A 
ENDROOT
BRANCH   7   9
HETATM    9  N   UNK N   1      23.410  15.689   2.946  0.00  0.00    -0.342 N 
HETATM   10  H   UNK N   1      24.353  15.879   3.155  0.00  0.00     0.167 HD
BRANCH   9  11
HETATM   11  C   UNK N   1      22.409  16.448   3.635  0.00  0.00     0.119 A 
HETATM   12  C   UNK N   1      22.058  16.098   4.934  0.00  0.00     0.038 A 
HETATM   13  C   UNK N   1      22.643  15.006   5.558  0.00  0.00     0.057 A 
HETATM   14  C   UNK N   1      21.113  16.889   5.619  0.00  0.00     0.050 A 
HETATM   15  C   UNK N   1      22.325  14.701   6.881  0.00  0.00     0.103 A 
HETATM   16  C   UNK N   1      21.412  15.499   7.581  0.00  0.00     0.104 A 
HETATM   17  O   UNK N   1      22.877  13.639   7.498  0.00  0.00    -0.346 OA
HETATM   18  C   UNK N   1      20.788  16.584   6.946  0.00  0.00     0.070 A 
HETATM   19  O   UNK N   1      21.188  15.232   8.881  0.00  0.00    -0.346 OA
HETATM   20  C   UNK N   1      19.951  14.931   9.383  0.00  0.00     0.201 C 
HETATM   21  C   UNK N   1      20.092  13.699  10.275  0.00  0.00     0.194 C 
HETATM   22  O   UNK N   1      20.830  12.694   9.630  0.00  0.00    -0.387 OA
HETATM   23  C   UNK N   1      22.079  12.682  10.266  0.00  0.00     0.193 C 
HETATM   24  C   UNK N   1      22.929  11.537   9.732  0.00  0.00     0.193 C 
HETATM   25  O   UNK N   1      24.112  12.027   9.166  0.00  0.00    -0.387 OA
HETATM   26  C   UNK N   1      24.063  11.621   7.826  0.00  0.00     0.194 C 
HETATM   27  C   UNK N   1      23.809  12.811   6.915  0.00  0.00     0.201 C 
HETATM   28  N   UNK N   1      20.552  17.957   5.003  0.00  0.00    -0.351 N 
HETATM   29  C   UNK N   1      20.898  18.278   3.728  0.00  0.00     0.182 A 
ATOM     30  HN  UNK N   1      19.865  18.525   5.499  1.00  0.00     0.166 HD
HETATM   31  N   UNK N   1      21.821  17.533   3.063  0.00  0.00    -0.338 N 
ATOM     32  HN  UNK N   1      22.079  17.794   2.111  1.00  0.00     0.168 HD
ENDBRANCH   9  11
ENDBRANCH   7   9
TORSDOF 2
ENDMDL
MODEL 8
REMARK VINA RESULT:      -7.3     12.120     14.430
REMARK  2 active torsions:
REMARK  status: ('A' for Active; 'I' for Inactive)
REMARK    1  A    between atoms: C_7  and  N_9 
REMARK    2  A    between atoms: N_9  and  C_10 
ROOT
HETATM    1  C   UNK N   1      31.380  16.288   9.057  0.00  0.00     0.018 C 
HETATM    2  C   UNK N   1      31.500  16.585   7.896  0.00  0.00    -0.078 C 
HETATM    3  C   UNK N   1      31.553  16.939   6.510  0.00  0.00     0.019 A 
HETATM    4  C   UNK N   1      32.760  17.165   5.839  0.00  0.00     0.021 A 
HETATM    5  C   UNK N   1      32.742  17.514   4.480  0.00  0.00     0.004 A 
HETATM    6  C   UNK N   1      31.521  17.637   3.801  0.00  0.00     0.029 A 
HETATM    7  C   UNK N   1      30.319  17.409   4.484  0.00  0.00     0.035 A 
HETATM    8  C   UNK N   1      30.357  17.062   5.831  0.00  0.00     0.050 A 
ENDROOT
BRANCH   7   9
HETATM    9  N   UNK N   1      29.078  17.513   3.804  0.00  0.00    -0.342 N 
HETATM   10  H   UNK N   1      28.918  16.901   3.050  0.00  0.00     0.167 HD
BRANCH   9  11
HETATM   11  C   UNK N   1      28.043  18.445   4.138  0.00  0.00     0.119 A 
HETATM   12  C   UNK N   1      26.713  18.050   4.054  0.00  0.00     0.038 A 
HETATM   13  C   UNK N   1      26.376  16.775   3.624  0.00  0.00     0.057 A 
HETATM   14  C   UNK N   1      25.708  18.960   4.440  0.00  0.00     0.050 A 
HETATM   15  C   UNK N   1      25.042  16.373   3.601  0.00  0.00     0.103 A 
HETATM   16  C   UNK N   1      24.039  17.258   4.013  0.00  0.00     0.104 A 
HETATM   17  O   UNK N   1      24.697  15.142   3.176  0.00  0.00    -0.346 OA
HETATM   18  C   UNK N   1      24.367  18.562   4.415  0.00  0.00     0.070 A 
HETATM   19  O   UNK N   1      22.768  16.814   4.059  0.00  0.00    -0.346 OA
HETATM   20  C   UNK N   1      21.747  17.388   3.351  0.00  0.00     0.201 C 
HETATM   21  C   UNK N   1      20.964  16.269   2.666  0.00  0.00     0.194 C 
HETATM   22  O   UNK N   1      21.829  15.377   2.014  0.00  0.00    -0.387 OA
HETATM   23  C   UNK N   1      21.830  14.217   2.800  0.00  0.00     0.193 C 
HETATM   24  C   UNK N   1      22.643  13.124   2.120  0.00  0.00     0.193 C 
HETATM   25  O   UNK N   1      23.705  12.720   2.938  0.00  0.00    -0.387 OA
HETATM   26  C   UNK N   1      24.857  12.999   2.192  0.00  0.00     0.194 C 
HETATM   27  C   UNK N   1      25.604  14.184   2.783  0.00  0.00     0.201 C 
HETATM   28  N   UNK N   1      26.048  20.201   4.865  0.00  0.00    -0.351 N 
HETATM   29  C   UNK N   1      27.353  20.575   4.930  0.00  0.00     0.182 A 
ATOM     30  HN  UNK N   1      25.318  20.860   5.140  1.00  0.00     0.166 HD
HETATM   31  N   UNK N   1      28.332  19.700   4.577  0.00  0.00    -0.338 N 
ATOM     32  HN  UNK N   1      29.307  19.991   4.642  1.00  0.00     0.168 HD
ENDBRANCH   9  11
ENDBRANCH   7   9
TORSDOF 2
ENDMDL
MODEL 9
REMARK VINA RESULT:      -7.3     13.640     15.918
REMARK  2 active torsions:
REMARK  status: ('A' for Active; 'I' for Inactive)
REMARK    1  A    between atoms: C_7  and  N_9 
REMARK    2  A    between atoms: N_9  and  C_10 
ROOT
HETATM    1  C   UNK N   1      24.813  13.106   8.946  0.00  0.00     0.018 C 
HETATM    2  C   UNK N   1      24.947  13.810   7.978  0.00  0.00    -0.078 C 
HETATM    3  C   UNK N   1      25.179  14.681   6.865  0.00  0.00     0.019 A 
HETATM    4  C   UNK N   1      24.377  14.662   5.719  0.00  0.00     0.021 A 
HETATM    5  C   UNK N   1      24.662  15.540   4.661  0.00  0.00     0.004 A 
HETATM    6  C   UNK N   1      25.744  16.427   4.755  0.00  0.00     0.029 A 
HETATM    7  C   UNK N   1      26.540  16.436   5.909  0.00  0.00     0.035 A 
HETATM    8  C   UNK N   1      26.240  15.560   6.947  0.00  0.00     0.050 A 
ENDROOT
BRANCH   7   9
HETATM    9  N   UNK N   1      27.626  17.341   6.023  0.00  0.00    -0.342 N 
HETATM   10  H   UNK N   1      27.875  17.860   5.224  0.00  0.00     0.167 HD
BRANCH   9  11
HETATM   11  C   UNK N   1      28.385  17.553   7.219  0.00  0.00     0.119 A 
HETATM   12  C   UNK N   1      29.726  17.188   7.252  0.00  0.00     0.038 A 
HETATM   13  C   UNK N   1      30.328  16.593   6.154  0.00  0.00     0.057 A 
HETATM   14  C   UNK N   1      30.475  17.456   8.417  0.00  0.00     0.050 A 
HETATM   15  C   UNK N   1      31.687  16.285   6.181  0.00  0.00     0.103 A 
HETATM   16  C   UNK N   1      32.447  16.576   7.320  0.00  0.00     0.104 A 
HETATM   17  O   UNK N   1      32.285  15.698   5.126  0.00  0.00    -0.346 OA
HETATM   18  C   UNK N   1      31.838  17.144   8.450  0.00  0.00     0.070 A 
HETATM   19  O   UNK N   1      33.773  16.345   7.286  0.00  0.00    -0.346 OA
HETATM   20  C   UNK N   1      34.411  15.510   8.163  0.00  0.00     0.201 C 
HETATM   21  C   UNK N   1      35.331  14.596   7.356  0.00  0.00     0.194 C 
HETATM   22  O   UNK N   1      34.653  14.043   6.258  0.00  0.00    -0.387 OA
HETATM   23  C   UNK N   1      35.156  14.712   5.134  0.00  0.00     0.193 C 
HETATM   24  C   UNK N   1      34.581  14.104   3.862  0.00  0.00     0.193 C 
HETATM   25  O   UNK N   1      33.876  15.069   3.132  0.00  0.00    -0.387 OA
HETATM   26  C   UNK N   1      32.566  14.580   3.062  0.00  0.00     0.194 C 
HETATM   27  C   UNK N   1      31.641  15.401   3.946  0.00  0.00     0.201 C 
HETATM   28  N   UNK N   1      29.878  18.043   9.483  0.00  0.00    -0.351 N 
HETATM   29  C   UNK N   1      28.563  18.384   9.437  0.00  0.00     0.182 A 
ATOM     30  HN  UNK N   1      30.421  18.232  10.326  1.00  0.00     0.166 HD
HETATM   31  N   UNK N   1      27.836  18.146   8.313  0.00  0.00    -0.338 N 
ATOM     32  HN  UNK N   1      26.853  18.418   8.290  1.00  0.00     0.168 HD
ENDBRANCH   9  11
ENDBRANCH   7   9
TORSDOF 2
ENDMDL
