MODEL 1
REMARK VINA RESULT:      -4.6      0.000      0.000
REMARK  4 active torsions:
REMARK  status: ('A' for Active; 'I' for Inactive)
REMARK    1  A    between atoms: O_2  and  C_3 
REMARK    2  A    between atoms: C_3  and  C_4 
REMARK    3  A    between atoms: C_4  and  C_13 
REMARK    4  A    between atoms: C_13  and  O_14 
ROOT
HETATM    1  C   UNK N   1      32.613  16.931   7.622  0.00  0.00     0.261 C 
HETATM    2  C   UNK N   1      33.714  17.510   6.753  0.00  0.00     0.174 C 
HETATM    3  O   UNK N   1      34.577  18.254   7.192  0.00  0.00    -0.295 OA
HETATM    4  C   UNK N   1      33.690  17.107   5.309  0.00  0.00     0.061 C 
HETATM    5  C   UNK N   1      33.723  15.571   5.288  0.00  0.00     0.042 C 
HETATM    6  C   UNK N   1      32.541  15.005   6.118  0.00  0.00     0.275 C 
HETATM    7  N   UNK N   1      31.749  16.089   6.740  0.00  0.00     0.110 N 
HETATM    8  C   UNK N   1      31.193  16.905   5.633  0.00  0.00     0.275 C 
HETATM    9  C   UNK N   1      32.319  17.533   4.769  0.00  0.00     0.042 C 
ENDROOT
BRANCH   1  10
HETATM   10  C   UNK N   1      31.771  18.049   8.254  0.00  0.00     0.219 C 
BRANCH  10  11
HETATM   11  O   UNK N   1      30.772  17.497   9.064  0.00  0.00    -0.393 OA
HETATM   12  C   UNK N   1      29.954  18.570   9.411  0.00  0.00     0.201 C 
ENDBRANCH  10  11
ENDBRANCH   1  10
BRANCH   1  13
HETATM   13  C   UNK N   1      33.217  16.068   8.746  0.00  0.00     0.216 C 
BRANCH  13  14
HETATM   14  O   UNK N   1      33.757  16.858   9.764  0.00  0.00    -0.398 OA
HETATM   15  H   UNK N   1      33.392  17.740   9.940  0.00  0.00     0.209 HD
ENDBRANCH  13  14
ENDBRANCH   1  13
TORSDOF 4
ENDMDL
MODEL 2
REMARK VINA RESULT:      -4.6      2.832      4.261
REMARK  4 active torsions:
REMARK  status: ('A' for Active; 'I' for Inactive)
REMARK    1  A    between atoms: O_2  and  C_3 
REMARK    2  A    between atoms: C_3  and  C_4 
REMARK    3  A    between atoms: C_4  and  C_13 
REMARK    4  A    between atoms: C_13  and  O_14 
ROOT
HETATM    1  C   UNK N   1      34.953  15.319   9.788  0.00  0.00     0.261 C 
HETATM    2  C   UNK N   1      34.886  16.821   9.582  0.00  0.00     0.174 C 
HETATM    3  O   UNK N   1      35.524  17.609  10.264  0.00  0.00    -0.295 OA
HETATM    4  C   UNK N   1      33.988  17.292   8.478  0.00  0.00     0.061 C 
HETATM    5  C   UNK N   1      34.465  16.583   7.201  0.00  0.00     0.042 C 
HETATM    6  C   UNK N   1      34.448  15.046   7.411  0.00  0.00     0.275 C 
HETATM    7  N   UNK N   1      34.035  14.694   8.788  0.00  0.00     0.110 N 
HETATM    8  C   UNK N   1      32.654  15.204   8.967  0.00  0.00     0.275 C 
HETATM    9  C   UNK N   1      32.591  16.745   8.799  0.00  0.00     0.042 C 
ENDROOT
BRANCH   1  10
HETATM   10  C   UNK N   1      34.504  14.941  11.207  0.00  0.00     0.219 C 
BRANCH  10  11
HETATM   11  O   UNK N   1      35.005  13.681  11.549  0.00  0.00    -0.393 OA
HETATM   12  C   UNK N   1      35.283  13.760  12.912  0.00  0.00     0.201 C 
ENDBRANCH  10  11
ENDBRANCH   1  10
BRANCH   1  13
HETATM   13  C   UNK N   1      36.391  14.813   9.571  0.00  0.00     0.216 C 
BRANCH  13  14
HETATM   14  O   UNK N   1      37.281  15.394  10.479  0.00  0.00    -0.398 OA
HETATM   15  H   UNK N   1      37.010  16.169  10.996  0.00  0.00     0.209 HD
ENDBRANCH  13  14
ENDBRANCH   1  13
TORSDOF 4
ENDMDL
MODEL 3
REMARK VINA RESULT:      -4.4      1.619      3.301
REMARK  4 active torsions:
REMARK  status: ('A' for Active; 'I' for Inactive)
REMARK    1  A    between atoms: O_2  and  C_3 
REMARK    2  A    between atoms: C_3  and  C_4 
REMARK    3  A    between atoms: C_4  and  C_13 
REMARK    4  A    between atoms: C_13  and  O_14 
ROOT
HETATM    1  C   UNK N   1      33.818  16.996   7.899  0.00  0.00     0.261 C 
HETATM    2  C   UNK N   1      32.434  16.374   7.920  0.00  0.00     0.174 C 
HETATM    3  O   UNK N   1      31.724  16.380   8.914  0.00  0.00    -0.295 OA
HETATM    4  C   UNK N   1      31.975  15.752   6.636  0.00  0.00     0.061 C 
HETATM    5  C   UNK N   1      32.069  16.849   5.565  0.00  0.00     0.042 C 
HETATM    6  C   UNK N   1      33.513  17.413   5.509  0.00  0.00     0.275 C 
HETATM    7  N   UNK N   1      34.379  16.782   6.531  0.00  0.00     0.110 N 
HETATM    8  C   UNK N   1      34.431  15.333   6.216  0.00  0.00     0.275 C 
HETATM    9  C   UNK N   1      33.022  14.688   6.279  0.00  0.00     0.042 C 
ENDROOT
BRANCH   1  10
HETATM   10  C   UNK N   1      34.731  16.332   8.941  0.00  0.00     0.219 C 
BRANCH  10  11
HETATM   11  O   UNK N   1      34.795  17.120  10.094  0.00  0.00    -0.393 OA
HETATM   12  C   UNK N   1      35.414  16.315  11.048  0.00  0.00     0.201 C 
ENDBRANCH  10  11
ENDBRANCH   1  10
BRANCH   1  13
HETATM   13  C   UNK N   1      33.732  18.503   8.203  0.00  0.00     0.216 C 
BRANCH  13  14
HETATM   14  O   UNK N   1      35.000  19.088   8.256  0.00  0.00    -0.398 OA
HETATM   15  H   UNK N   1      35.758  18.577   8.583  0.00  0.00     0.209 HD
ENDBRANCH  13  14
ENDBRANCH   1  13
TORSDOF 4
ENDMDL
MODEL 4
REMARK VINA RESULT:      -4.4     14.697     16.396
REMARK  4 active torsions:
REMARK  status: ('A' for Active; 'I' for Inactive)
REMARK    1  A    between atoms: O_2  and  C_3 
REMARK    2  A    between atoms: C_3  and  C_4 
REMARK    3  A    between atoms: C_4  and  C_13 
REMARK    4  A    between atoms: C_13  and  O_14 
ROOT
HETATM    1  C   UNK N   1      27.069  25.391  -4.810  0.00  0.00     0.261 C 
HETATM    2  C   UNK N   1      25.763  25.185  -5.555  0.00  0.00     0.174 C 
HETATM    3  O   UNK N   1      25.152  24.127  -5.534  0.00  0.00    -0.295 OA
HETATM    4  C   UNK N   1      25.251  26.367  -6.322  0.00  0.00     0.061 C 
HETATM    5  C   UNK N   1      25.133  27.519  -5.312  0.00  0.00     0.042 C 
HETATM    6  C   UNK N   1      26.501  27.762  -4.623  0.00  0.00     0.275 C 
HETATM    7  N   UNK N   1      27.518  26.790  -5.084  0.00  0.00     0.110 N 
HETATM    8  C   UNK N   1      27.686  27.002  -6.542  0.00  0.00     0.275 C 
HETATM    9  C   UNK N   1      26.362  26.749  -7.309  0.00  0.00     0.042 C 
ENDROOT
BRANCH   1  10
HETATM   10  C   UNK N   1      28.138  24.402  -5.298  0.00  0.00     0.219 C 
BRANCH  10  11
HETATM   11  O   UNK N   1      29.090  24.192  -4.296  0.00  0.00    -0.393 OA
HETATM   12  C   UNK N   1      29.612  22.926  -4.551  0.00  0.00     0.201 C 
ENDBRANCH  10  11
ENDBRANCH   1  10
BRANCH   1  13
HETATM   13  C   UNK N   1      26.860  25.191  -3.298  0.00  0.00     0.216 C 
BRANCH  13  14
HETATM   14  O   UNK N   1      26.475  23.880  -3.003  0.00  0.00    -0.398 OA
HETATM   15  H   UNK N   1      25.991  23.356  -3.661  0.00  0.00     0.209 HD
ENDBRANCH  13  14
ENDBRANCH   1  13
TORSDOF 4
ENDMDL
MODEL 5
REMARK VINA RESULT:      -4.4      1.869      3.000
REMARK  4 active torsions:
REMARK  status: ('A' for Active; 'I' for Inactive)
REMARK    1  A    between atoms: O_2  and  C_3 
REMARK    2  A    between atoms: C_3  and  C_4 
REMARK    3  A    between atoms: C_4  and  C_13 
REMARK    4  A    between atoms: C_13  and  O_14 
ROOT
HETATM    1  C   UNK N   1      33.862  16.194   7.781  0.00  0.00     0.261 C 
HETATM    2  C   UNK N   1      33.438  17.212   6.738  0.00  0.00     0.174 C 
HETATM    3  O   UNK N   1      34.207  18.039   6.273  0.00  0.00    -0.295 OA
HETATM    4  C   UNK N   1      32.007  17.143   6.298  0.00  0.00     0.061 C 
HETATM    5  C   UNK N   1      31.779  15.710   5.793  0.00  0.00     0.042 C 
HETATM    6  C   UNK N   1      32.144  14.691   6.904  0.00  0.00     0.275 C 
HETATM    7  N   UNK N   1      32.659  15.373   8.113  0.00  0.00     0.110 N 
HETATM    8  C   UNK N   1      31.566  16.241   8.616  0.00  0.00     0.275 C 
HETATM    9  C   UNK N   1      31.160  17.309   7.567  0.00  0.00     0.042 C 
ENDROOT
BRANCH   1  10
HETATM   10  C   UNK N   1      34.376  16.892   9.049  0.00  0.00     0.219 C 
BRANCH  10  11
HETATM   11  O   UNK N   1      35.331  16.091   9.684  0.00  0.00    -0.393 OA
HETATM   12  C   UNK N   1      35.324  16.506  11.014  0.00  0.00     0.201 C 
ENDBRANCH  10  11
ENDBRANCH   1  10
BRANCH   1  13
HETATM   13  C   UNK N   1      34.978  15.292   7.224  0.00  0.00     0.216 C 
BRANCH  13  14
HETATM   14  O   UNK N   1      35.401  15.719   5.962  0.00  0.00    -0.398 OA
HETATM   15  H   UNK N   1      35.947  16.517   5.877  0.00  0.00     0.209 HD
ENDBRANCH  13  14
ENDBRANCH   1  13
TORSDOF 4
ENDMDL
MODEL 6
REMARK VINA RESULT:      -4.3      7.692      9.817
REMARK  4 active torsions:
REMARK  status: ('A' for Active; 'I' for Inactive)
REMARK    1  A    between atoms: O_2  and  C_3 
REMARK    2  A    between atoms: C_3  and  C_4 
REMARK    3  A    between atoms: C_4  and  C_13 
REMARK    4  A    between atoms: C_13  and  O_14 
ROOT
HETATM    1  C   UNK N   1      35.776  12.821  14.319  0.00  0.00     0.261 C 
HETATM    2  C   UNK N   1      36.701  11.686  14.717  0.00  0.00     0.174 C 
HETATM    3  O   UNK N   1      37.811  11.537  14.229  0.00  0.00    -0.295 OA
HETATM    4  C   UNK N   1      36.175  10.747  15.761  0.00  0.00     0.061 C 
HETATM    5  C   UNK N   1      35.812  11.613  16.977  0.00  0.00     0.042 C 
HETATM    6  C   UNK N   1      34.805  12.716  16.561  0.00  0.00     0.275 C 
HETATM    7  N   UNK N   1      34.518  12.665  15.109  0.00  0.00     0.110 N 
HETATM    8  C   UNK N   1      33.900  11.344  14.839  0.00  0.00     0.275 C 
HETATM    9  C   UNK N   1      34.861  10.182  15.205  0.00  0.00     0.042 C 
ENDROOT
BRANCH   1  10
HETATM   10  C   UNK N   1      35.454  12.764  12.819  0.00  0.00     0.219 C 
BRANCH  10  11
HETATM   11  O   UNK N   1      34.627  13.835  12.465  0.00  0.00    -0.393 OA
HETATM   12  C   UNK N   1      34.947  14.116  11.138  0.00  0.00     0.201 C 
ENDBRANCH  10  11
ENDBRANCH   1  10
BRANCH   1  13
HETATM   13  C   UNK N   1      36.431  14.179  14.635  0.00  0.00     0.216 C 
BRANCH  13  14
HETATM   14  O   UNK N   1      37.655  14.018  15.291  0.00  0.00    -0.398 OA
HETATM   15  H   UNK N   1      38.374  14.651  15.140  0.00  0.00     0.209 HD
ENDBRANCH  13  14
ENDBRANCH   1  13
TORSDOF 4
ENDMDL
MODEL 7
REMARK VINA RESULT:      -4.3      2.176      2.842
REMARK  4 active torsions:
REMARK  status: ('A' for Active; 'I' for Inactive)
REMARK    1  A    between atoms: O_2  and  C_3 
REMARK    2  A    between atoms: C_3  and  C_4 
REMARK    3  A    between atoms: C_4  and  C_13 
REMARK    4  A    between atoms: C_13  and  O_14 
ROOT
HETATM    1  C   UNK N   1      33.185  15.674   5.731  0.00  0.00     0.261 C 
HETATM    2  C   UNK N   1      33.371  17.141   5.393  0.00  0.00     0.174 C 
HETATM    3  O   UNK N   1      34.160  17.860   5.989  0.00  0.00    -0.295 OA
HETATM    4  C   UNK N   1      32.530  17.667   4.270  0.00  0.00     0.061 C 
HETATM    5  C   UNK N   1      32.831  16.780   3.052  0.00  0.00     0.042 C 
HETATM    6  C   UNK N   1      32.557  15.294   3.399  0.00  0.00     0.275 C 
HETATM    7  N   UNK N   1      32.138  15.137   4.811  0.00  0.00     0.110 N 
HETATM    8  C   UNK N   1      30.873  15.895   4.971  0.00  0.00     0.275 C 
HETATM    9  C   UNK N   1      31.072  17.403   4.667  0.00  0.00     0.042 C 
ENDROOT
BRANCH   1  10
HETATM   10  C   UNK N   1      32.728  15.501   7.188  0.00  0.00     0.219 C 
BRANCH  10  11
HETATM   11  O   UNK N   1      33.814  15.138   7.991  0.00  0.00    -0.393 OA
HETATM   12  C   UNK N   1      33.775  16.017   9.071  0.00  0.00     0.201 C 
ENDBRANCH  10  11
ENDBRANCH   1  10
BRANCH   1  13
HETATM   13  C   UNK N   1      34.505  14.907   5.531  0.00  0.00     0.216 C 
BRANCH  13  14
HETATM   14  O   UNK N   1      35.603  15.653   5.971  0.00  0.00    -0.398 OA
HETATM   15  H   UNK N   1      35.642  15.965   6.889  0.00  0.00     0.209 HD
ENDBRANCH  13  14
ENDBRANCH   1  13
TORSDOF 4
ENDMDL
MODEL 8
REMARK VINA RESULT:      -4.2      1.916      4.171
REMARK  4 active torsions:
REMARK  status: ('A' for Active; 'I' for Inactive)
REMARK    1  A    between atoms: O_2  and  C_3 
REMARK    2  A    between atoms: C_3  and  C_4 
REMARK    3  A    between atoms: C_4  and  C_13 
REMARK    4  A    between atoms: C_13  and  O_14 
ROOT
HETATM    1  C   UNK N   1      32.409  16.444   6.095  0.00  0.00     0.261 C 
HETATM    2  C   UNK N   1      33.358  17.377   6.822  0.00  0.00     0.174 C 
HETATM    3  O   UNK N   1      34.250  17.987   6.251  0.00  0.00    -0.295 OA
HETATM    4  C   UNK N   1      33.137  17.518   8.298  0.00  0.00     0.061 C 
HETATM    5  C   UNK N   1      31.679  17.970   8.475  0.00  0.00     0.042 C 
HETATM    6  C   UNK N   1      30.724  16.958   7.791  0.00  0.00     0.275 C 
HETATM    7  N   UNK N   1      31.477  15.876   7.116  0.00  0.00     0.110 N 
HETATM    8  C   UNK N   1      32.239  15.161   8.168  0.00  0.00     0.275 C 
HETATM    9  C   UNK N   1      33.241  16.104   8.884  0.00  0.00     0.042 C 
ENDROOT
BRANCH   1  10
HETATM   10  C   UNK N   1      33.179  15.305   5.410  0.00  0.00     0.219 C 
BRANCH  10  11
HETATM   11  O   UNK N   1      32.693  15.109   4.113  0.00  0.00    -0.393 OA
HETATM   12  C   UNK N   1      33.799  14.703   3.370  0.00  0.00     0.201 C 
ENDBRANCH  10  11
ENDBRANCH   1  10
BRANCH   1  13
HETATM   13  C   UNK N   1      31.612  17.217   5.027  0.00  0.00     0.216 C 
BRANCH  13  14
HETATM   14  O   UNK N   1      32.460  17.899   4.150  0.00  0.00    -0.398 OA
HETATM   15  H   UNK N   1      32.272  17.905   3.198  0.00  0.00     0.209 HD
ENDBRANCH  13  14
ENDBRANCH   1  13
TORSDOF 4
ENDMDL
MODEL 9
REMARK VINA RESULT:      -4.1     15.359     16.762
REMARK  4 active torsions:
REMARK  status: ('A' for Active; 'I' for Inactive)
REMARK    1  A    between atoms: O_2  and  C_3 
REMARK    2  A    between atoms: C_3  and  C_4 
REMARK    3  A    between atoms: C_4  and  C_13 
REMARK    4  A    between atoms: C_13  and  O_14 
ROOT
HETATM    1  C   UNK N   1      27.399  25.970  -5.167  0.00  0.00     0.261 C 
HETATM    2  C   UNK N   1      26.423  26.367  -4.075  0.00  0.00     0.174 C 
HETATM    3  O   UNK N   1      26.382  25.805  -2.991  0.00  0.00    -0.295 OA
HETATM    4  C   UNK N   1      25.505  27.506  -4.399  0.00  0.00     0.061 C 
HETATM    5  C   UNK N   1      26.404  28.689  -4.789  0.00  0.00     0.042 C 
HETATM    6  C   UNK N   1      27.337  28.282  -5.960  0.00  0.00     0.275 C 
HETATM    7  N   UNK N   1      27.143  26.863  -6.336  0.00  0.00     0.110 N 
HETATM    8  C   UNK N   1      25.737  26.727  -6.791  0.00  0.00     0.275 C 
HETATM    9  C   UNK N   1      24.738  27.092  -5.661  0.00  0.00     0.042 C 
ENDROOT
BRANCH   1  10
HETATM   10  C   UNK N   1      27.190  24.506  -5.581  0.00  0.00     0.219 C 
BRANCH  10  11
HETATM   11  O   UNK N   1      28.212  24.102  -6.447  0.00  0.00    -0.393 OA
HETATM   12  C   UNK N   1      28.122  22.712  -6.490  0.00  0.00     0.201 C 
ENDBRANCH  10  11
ENDBRANCH   1  10
BRANCH   1  13
HETATM   13  C   UNK N   1      28.849  26.145  -4.678  0.00  0.00     0.216 C 
BRANCH  13  14
HETATM   14  O   UNK N   1      29.223  25.120  -3.804  0.00  0.00    -0.398 OA
HETATM   15  H   UNK N   1      30.085  25.150  -3.361  0.00  0.00     0.209 HD
ENDBRANCH  13  14
ENDBRANCH   1  13
TORSDOF 4
ENDMDL
