MODEL 1
REMARK VINA RESULT:      -8.3      0.000      0.000
REMARK  8 active torsions:
REMARK  status: ('A' for Active; 'I' for Inactive)
REMARK    1  A    between atoms: C_2  and  C_3 
REMARK    2  A    between atoms: C_6  and  C_9 
REMARK    3  A    between atoms: C_9  and  C_10 
REMARK    4  A    between atoms: C_17  and  O_26 
REMARK    5  A    between atoms: C_18  and  O_25 
REMARK    6  A    between atoms: C_19  and  O_24 
REMARK    7  A    between atoms: C_20  and  C_22 
REMARK    8  A    between atoms: C_22  and  O_23 
ROOT
HETATM    1  C   UNK N   1      35.363  11.924  13.159  0.00  0.00    -0.053 A 
HETATM    2  C   UNK N   1      36.679  11.514  13.449  0.00  0.00     0.008 A 
HETATM    3  C   UNK N   1      37.735  11.867  12.608  0.00  0.00     0.010 A 
HETATM    4  C   UNK N   1      37.458  12.649  11.493  0.00  0.00    -0.023 A 
HETATM    5  C   UNK N   1      36.223  13.103  11.220  0.00  0.00     0.015 A 
HETATM    6  C   UNK N   1      35.131  12.759  12.040  0.00  0.00     0.021 A 
HETATM    7  C   UNK N   1      36.285  13.930   9.967  0.00  0.00     0.223 C 
HETATM    8  C   UNK N   1      36.120  15.461  10.144  0.00  0.00     0.217 C 
HETATM    9  C   UNK N   1      34.685  15.911  10.339  0.00  0.00     0.183 C 
HETATM   10  C   UNK N   1      33.810  15.260   9.278  0.00  0.00     0.180 C 
HETATM   11  C   UNK N   1      34.047  13.747   9.372  0.00  0.00     0.180 C 
HETATM   12  O   UNK N   1      35.377  13.441   8.988  0.00  0.00    -0.339 OA
HETATM   13  O   UNK N   1      37.616  13.745   9.477  0.00  0.00    -0.344 OA
HETATM   14  C   UNK N   1      38.401  13.094  10.474  0.00  0.00     0.211 C 
ENDROOT
BRANCH   8  15
HETATM   15  O   UNK N   1      36.948  15.958  11.155  0.00  0.00    -0.387 OA
HETATM   16  H   UNK N   1      37.903  16.027  11.308  0.00  0.00     0.210 HD
ENDBRANCH   8  15
BRANCH   9  17
HETATM   17  O   UNK N   1      34.615  17.302  10.217  0.00  0.00    -0.390 OA
HETATM   18  H   UNK N   1      34.316  17.958  10.866  0.00  0.00     0.210 HD
ENDBRANCH   9  17
BRANCH  11  19
HETATM   19  C   UNK N   1      33.071  12.937   8.536  0.00  0.00     0.198 C 
BRANCH  19  20
HETATM   20  O   UNK N   1      32.357  12.064   9.358  0.00  0.00    -0.398 OA
HETATM   21  H   UNK N   1      32.103  11.141   9.201  0.00  0.00     0.209 HD
ENDBRANCH  19  20
ENDBRANCH  11  19
BRANCH   1  22
HETATM   22  C   UNK N   1      34.235  11.509  14.070  0.00  0.00     0.077 C 
BRANCH  22  23
HETATM   23  C   UNK N   1      34.514  11.679  15.550  0.00  0.00    -0.054 A 
HETATM   24  C   UNK N   1      34.767  10.559  16.355  0.00  0.00     0.008 A 
HETATM   25  C   UNK N   1      35.111  10.707  17.699  0.00  0.00     0.007 A 
HETATM   26  C   UNK N   1      35.240  11.979  18.258  0.00  0.00    -0.059 A 
HETATM   27  C   UNK N   1      34.994  13.110  17.457  0.00  0.00     0.007 A 
HETATM   28  C   UNK N   1      34.630  12.959  16.109  0.00  0.00     0.008 A 
BRANCH  26  29
HETATM   29  C   UNK N   1      35.666  12.080  19.697  0.00  0.00     0.034 C 
HETATM   30  C   UNK N   1      36.354  10.835  20.235  0.00  0.00     0.010 C 
ENDBRANCH  26  29
ENDBRANCH  22  23
ENDBRANCH   1  22
BRANCH  10  31
HETATM   31  O   UNK N   1      32.475  15.585   9.528  0.00  0.00    -0.390 OA
HETATM   32  H   UNK N   1      31.959  16.297   9.121  0.00  0.00     0.210 HD
ENDBRANCH  10  31
TORSDOF 8
ENDMDL
MODEL 2
REMARK VINA RESULT:      -7.4     15.027     17.609
REMARK  8 active torsions:
REMARK  status: ('A' for Active; 'I' for Inactive)
REMARK    1  A    between atoms: C_2  and  C_3 
REMARK    2  A    between atoms: C_6  and  C_9 
REMARK    3  A    between atoms: C_9  and  C_10 
REMARK    4  A    between atoms: C_17  and  O_26 
REMARK    5  A    between atoms: C_18  and  O_25 
REMARK    6  A    between atoms: C_19  and  O_24 
REMARK    7  A    between atoms: C_20  and  C_22 
REMARK    8  A    between atoms: C_22  and  O_23 
ROOT
HETATM    1  C   UNK N   1      24.147  15.667   3.602  0.00  0.00    -0.053 A 
HETATM    2  C   UNK N   1      24.154  14.910   4.790  0.00  0.00     0.008 A 
HETATM    3  C   UNK N   1      23.256  15.195   5.820  0.00  0.00     0.010 A 
HETATM    4  C   UNK N   1      22.345  16.227   5.634  0.00  0.00    -0.023 A 
HETATM    5  C   UNK N   1      22.274  16.930   4.491  0.00  0.00     0.015 A 
HETATM    6  C   UNK N   1      23.170  16.677   3.433  0.00  0.00     0.021 A 
HETATM    7  C   UNK N   1      21.171  17.942   4.619  0.00  0.00     0.223 C 
HETATM    8  C   UNK N   1      19.890  17.672   3.789  0.00  0.00     0.217 C 
HETATM    9  C   UNK N   1      20.016  18.035   2.321  0.00  0.00     0.183 C 
HETATM   10  C   UNK N   1      20.613  19.429   2.203  0.00  0.00     0.180 C 
HETATM   11  C   UNK N   1      21.926  19.422   2.996  0.00  0.00     0.180 C 
HETATM   12  O   UNK N   1      21.654  19.257   4.378  0.00  0.00    -0.339 OA
HETATM   13  O   UNK N   1      20.761  17.857   5.988  0.00  0.00    -0.344 OA
HETATM   14  C   UNK N   1      21.354  16.709   6.589  0.00  0.00     0.211 C 
ENDROOT
BRANCH   8  15
HETATM   15  O   UNK N   1      19.435  16.360   3.948  0.00  0.00    -0.387 OA
HETATM   16  H   UNK N   1      18.915  15.730   3.425  0.00  0.00     0.210 HD
ENDBRANCH   8  15
BRANCH   9  17
HETATM   17  O   UNK N   1      18.750  18.013   1.729  0.00  0.00    -0.390 OA
HETATM   18  H   UNK N   1      18.468  18.381   0.877  0.00  0.00     0.210 HD
ENDBRANCH   9  17
BRANCH  11  19
HETATM   19  C   UNK N   1      22.760  20.673   2.782  0.00  0.00     0.198 C 
BRANCH  19  20
HETATM   20  O   UNK N   1      21.929  21.794   2.744  0.00  0.00    -0.398 OA
HETATM   21  H   UNK N   1      21.141  21.956   2.204  0.00  0.00     0.209 HD
ENDBRANCH  19  20
ENDBRANCH  11  19
BRANCH   1  22
HETATM   22  C   UNK N   1      25.143  15.356   2.514  0.00  0.00     0.077 C 
BRANCH  22  23
HETATM   23  C   UNK N   1      24.792  14.163   1.648  0.00  0.00    -0.054 A 
HETATM   24  C   UNK N   1      25.451  12.938   1.832  0.00  0.00     0.008 A 
HETATM   25  C   UNK N   1      25.077  11.809   1.103  0.00  0.00     0.007 A 
HETATM   26  C   UNK N   1      24.017  11.871   0.198  0.00  0.00    -0.059 A 
HETATM   27  C   UNK N   1      23.345  13.094   0.011  0.00  0.00     0.007 A 
HETATM   28  C   UNK N   1      23.733  14.235   0.732  0.00  0.00     0.008 A 
BRANCH  26  29
HETATM   29  C   UNK N   1      23.622  10.611  -0.520  0.00  0.00     0.034 C 
HETATM   30  C   UNK N   1      22.324   9.990  -0.027  0.00  0.00     0.010 C 
ENDBRANCH  26  29
ENDBRANCH  22  23
ENDBRANCH   1  22
BRANCH  10  31
HETATM   31  O   UNK N   1      20.832  19.716   0.853  0.00  0.00    -0.390 OA
HETATM   32  H   UNK N   1      20.885  19.084   0.120  0.00  0.00     0.210 HD
ENDBRANCH  10  31
TORSDOF 8
ENDMDL
MODEL 3
REMARK VINA RESULT:      -7.4     19.427     22.630
REMARK  8 active torsions:
REMARK  status: ('A' for Active; 'I' for Inactive)
REMARK    1  A    between atoms: C_2  and  C_3 
REMARK    2  A    between atoms: C_6  and  C_9 
REMARK    3  A    between atoms: C_9  and  C_10 
REMARK    4  A    between atoms: C_17  and  O_26 
REMARK    5  A    between atoms: C_18  and  O_25 
REMARK    6  A    between atoms: C_19  and  O_24 
REMARK    7  A    between atoms: C_20  and  C_22 
REMARK    8  A    between atoms: C_22  and  O_23 
ROOT
HETATM    1  C   UNK N   1      28.110  21.514  -7.213  0.00  0.00    -0.053 A 
HETATM    2  C   UNK N   1      28.508  20.301  -7.809  0.00  0.00     0.008 A 
HETATM    3  C   UNK N   1      29.790  19.791  -7.597  0.00  0.00     0.010 A 
HETATM    4  C   UNK N   1      30.652  20.498  -6.768  0.00  0.00    -0.023 A 
HETATM    5  C   UNK N   1      30.284  21.628  -6.140  0.00  0.00     0.015 A 
HETATM    6  C   UNK N   1      29.002  22.178  -6.337  0.00  0.00     0.021 A 
HETATM    7  C   UNK N   1      31.441  22.112  -5.312  0.00  0.00     0.223 C 
HETATM    8  C   UNK N   1      31.297  21.963  -3.776  0.00  0.00     0.217 C 
HETATM    9  C   UNK N   1      30.425  23.023  -3.130  0.00  0.00     0.183 C 
HETATM   10  C   UNK N   1      30.850  24.394  -3.636  0.00  0.00     0.180 C 
HETATM   11  C   UNK N   1      30.799  24.340  -5.168  0.00  0.00     0.180 C 
HETATM   12  O   UNK N   1      31.788  23.448  -5.653  0.00  0.00    -0.339 OA
HETATM   13  O   UNK N   1      32.529  21.257  -5.676  0.00  0.00    -0.344 OA
HETATM   14  C   UNK N   1      32.034  20.164  -6.446  0.00  0.00     0.211 C 
ENDROOT
BRANCH   8  15
HETATM   15  O   UNK N   1      30.882  20.678  -3.416  0.00  0.00    -0.387 OA
HETATM   16  H   UNK N   1      31.306  19.816  -3.285  0.00  0.00     0.210 HD
ENDBRANCH   8  15
BRANCH   9  17
HETATM   17  O   UNK N   1      30.578  22.966  -1.742  0.00  0.00    -0.390 OA
HETATM   18  H   UNK N   1      30.439  22.216  -1.143  0.00  0.00     0.210 HD
ENDBRANCH   9  17
BRANCH  11  19
HETATM   19  C   UNK N   1      30.970  25.701  -5.820  0.00  0.00     0.198 C 
BRANCH  19  20
HETATM   20  O   UNK N   1      29.729  26.328  -5.937  0.00  0.00    -0.398 OA
HETATM   21  H   UNK N   1      29.165  26.436  -6.718  0.00  0.00     0.209 HD
ENDBRANCH  19  20
ENDBRANCH  11  19
BRANCH   1  22
HETATM   22  C   UNK N   1      26.729  22.057  -7.478  0.00  0.00     0.077 C 
BRANCH  22  23
HETATM   23  C   UNK N   1      26.469  23.442  -6.920  0.00  0.00    -0.054 A 
HETATM   24  C   UNK N   1      26.645  24.574  -7.730  0.00  0.00     0.008 A 
HETATM   25  C   UNK N   1      26.325  25.847  -7.258  0.00  0.00     0.007 A 
HETATM   26  C   UNK N   1      25.793  26.013  -5.978  0.00  0.00    -0.059 A 
HETATM   27  C   UNK N   1      25.607  24.882  -5.160  0.00  0.00     0.007 A 
HETATM   28  C   UNK N   1      25.946  23.603  -5.630  0.00  0.00     0.008 A 
BRANCH  26  29
HETATM   29  C   UNK N   1      25.416  27.401  -5.541  0.00  0.00     0.034 C 
HETATM   30  C   UNK N   1      25.630  27.671  -4.060  0.00  0.00     0.010 C 
ENDBRANCH  26  29
ENDBRANCH  22  23
ENDBRANCH   1  22
BRANCH  10  31
HETATM   31  O   UNK N   1      29.975  25.356  -3.128  0.00  0.00    -0.390 OA
HETATM   32  H   UNK N   1      29.013  25.394  -3.243  0.00  0.00     0.210 HD
ENDBRANCH  10  31
TORSDOF 8
ENDMDL
MODEL 4
REMARK VINA RESULT:      -7.4      7.663     11.593
REMARK  8 active torsions:
REMARK  status: ('A' for Active; 'I' for Inactive)
REMARK    1  A    between atoms: C_2  and  C_3 
REMARK    2  A    between atoms: C_6  and  C_9 
REMARK    3  A    between atoms: C_9  and  C_10 
REMARK    4  A    between atoms: C_17  and  O_26 
REMARK    5  A    between atoms: C_18  and  O_25 
REMARK    6  A    between atoms: C_19  and  O_24 
REMARK    7  A    between atoms: C_20  and  C_22 
REMARK    8  A    between atoms: C_22  and  O_23 
ROOT
HETATM    1  C   UNK N   1      29.581  18.058   7.821  0.00  0.00    -0.053 A 
HETATM    2  C   UNK N   1      30.496  18.328   8.858  0.00  0.00     0.008 A 
HETATM    3  C   UNK N   1      31.781  17.784   8.832  0.00  0.00     0.010 A 
HETATM    4  C   UNK N   1      32.140  16.991   7.749  0.00  0.00    -0.023 A 
HETATM    5  C   UNK N   1      31.311  16.763   6.716  0.00  0.00     0.015 A 
HETATM    6  C   UNK N   1      30.003  17.286   6.712  0.00  0.00     0.021 A 
HETATM    7  C   UNK N   1      32.021  15.894   5.717  0.00  0.00     0.223 C 
HETATM    8  C   UNK N   1      32.453  16.579   4.395  0.00  0.00     0.217 C 
HETATM    9  C   UNK N   1      31.327  16.762   3.396  0.00  0.00     0.183 C 
HETATM   10  C   UNK N   1      30.566  15.452   3.257  0.00  0.00     0.180 C 
HETATM   11  C   UNK N   1      30.135  15.033   4.669  0.00  0.00     0.180 C 
HETATM   12  O   UNK N   1      31.276  14.713   5.447  0.00  0.00    -0.339 OA
HETATM   13  O   UNK N   1      33.240  15.519   6.366  0.00  0.00    -0.344 OA
HETATM   14  C   UNK N   1      33.408  16.302   7.545  0.00  0.00     0.211 C 
ENDROOT
BRANCH   8  15
HETATM   15  O   UNK N   1      33.122  17.783   4.629  0.00  0.00    -0.387 OA
HETATM   16  H   UNK N   1      32.879  18.673   4.930  0.00  0.00     0.210 HD
ENDBRANCH   8  15
BRANCH   9  17
HETATM   17  O   UNK N   1      31.861  17.129   2.158  0.00  0.00    -0.390 OA
HETATM   18  H   UNK N   1      32.717  16.893   1.768  0.00  0.00     0.210 HD
ENDBRANCH   9  17
BRANCH  11  19
HETATM   19  C   UNK N   1      29.164  13.865   4.675  0.00  0.00     0.198 C 
BRANCH  19  20
HETATM   20  O   UNK N   1      27.861  14.333   4.499  0.00  0.00    -0.398 OA
HETATM   21  H   UNK N   1      27.478  15.190   4.739  0.00  0.00     0.209 HD
ENDBRANCH  19  20
ENDBRANCH  11  19
BRANCH   1  22
HETATM   22  C   UNK N   1      28.191  18.637   7.885  0.00  0.00     0.077 C 
BRANCH  22  23
HETATM   23  C   UNK N   1      27.648  19.143   6.563  0.00  0.00    -0.054 A 
HETATM   24  C   UNK N   1      27.097  18.247   5.636  0.00  0.00     0.008 A 
HETATM   25  C   UNK N   1      26.515  18.707   4.455  0.00  0.00     0.007 A 
HETATM   26  C   UNK N   1      26.442  20.076   4.190  0.00  0.00    -0.059 A 
HETATM   27  C   UNK N   1      26.987  20.985   5.118  0.00  0.00     0.007 A 
HETATM   28  C   UNK N   1      27.589  20.519   6.298  0.00  0.00     0.008 A 
BRANCH  26  29
HETATM   29  C   UNK N   1      25.756  20.519   2.929  0.00  0.00     0.034 C 
HETATM   30  C   UNK N   1      24.237  20.526   3.012  0.00  0.00     0.010 C 
ENDBRANCH  26  29
ENDBRANCH  22  23
ENDBRANCH   1  22
BRANCH  10  31
HETATM   31  O   UNK N   1      29.463  15.653   2.424  0.00  0.00    -0.390 OA
HETATM   32  H   UNK N   1      29.472  15.843   1.474  0.00  0.00     0.210 HD
ENDBRANCH  10  31
TORSDOF 8
ENDMDL
MODEL 5
REMARK VINA RESULT:      -6.9      1.806      2.416
REMARK  8 active torsions:
REMARK  status: ('A' for Active; 'I' for Inactive)
REMARK    1  A    between atoms: C_2  and  C_3 
REMARK    2  A    between atoms: C_6  and  C_9 
REMARK    3  A    between atoms: C_9  and  C_10 
REMARK    4  A    between atoms: C_17  and  O_26 
REMARK    5  A    between atoms: C_18  and  O_25 
REMARK    6  A    between atoms: C_19  and  O_24 
REMARK    7  A    between atoms: C_20  and  C_22 
REMARK    8  A    between atoms: C_22  and  O_23 
ROOT
HETATM    1  C   UNK N   1      35.629   9.989  11.182  0.00  0.00    -0.053 A 
HETATM    2  C   UNK N   1      36.681   9.114  10.844  0.00  0.00     0.008 A 
HETATM    3  C   UNK N   1      37.671   9.508   9.941  0.00  0.00     0.010 A 
HETATM    4  C   UNK N   1      37.603  10.788   9.406  0.00  0.00    -0.023 A 
HETATM    5  C   UNK N   1      36.646  11.666   9.752  0.00  0.00     0.015 A 
HETATM    6  C   UNK N   1      35.625  11.301  10.652  0.00  0.00     0.021 A 
HETATM    7  C   UNK N   1      36.885  12.951   9.011  0.00  0.00     0.223 C 
HETATM    8  C   UNK N   1      37.398  14.146   9.854  0.00  0.00     0.217 C 
HETATM    9  C   UNK N   1      36.318  14.843  10.661  0.00  0.00     0.183 C 
HETATM   10  C   UNK N   1      35.124  15.119   9.760  0.00  0.00     0.180 C 
HETATM   11  C   UNK N   1      34.718  13.779   9.133  0.00  0.00     0.180 C 
HETATM   12  O   UNK N   1      35.739  13.326   8.259  0.00  0.00    -0.339 OA
HETATM   13  O   UNK N   1      37.944  12.649   8.097  0.00  0.00    -0.344 OA
HETATM   14  C   UNK N   1      38.507  11.381   8.427  0.00  0.00     0.211 C 
ENDROOT
BRANCH   8  15
HETATM   15  O   UNK N   1      38.479  13.785  10.663  0.00  0.00    -0.387 OA
HETATM   16  H   UNK N   1      38.910  14.140  11.456  0.00  0.00     0.210 HD
ENDBRANCH   8  15
BRANCH   9  17
HETATM   17  O   UNK N   1      36.819  16.048  11.160  0.00  0.00    -0.390 OA
HETATM   18  H   UNK N   1      36.653  16.471  12.017  0.00  0.00     0.210 HD
ENDBRANCH   9  17
BRANCH  11  19
HETATM   19  C   UNK N   1      33.396  13.843   8.389  0.00  0.00     0.198 C 
BRANCH  19  20
HETATM   20  O   UNK N   1      32.359  13.445   9.234  0.00  0.00    -0.398 OA
HETATM   21  H   UNK N   1      31.618  12.845   9.057  0.00  0.00     0.209 HD
ENDBRANCH  19  20
ENDBRANCH  11  19
BRANCH   1  22
HETATM   22  C   UNK N   1      34.559   9.531  12.139  0.00  0.00     0.077 C 
BRANCH  22  23
HETATM   23  C   UNK N   1      34.708  10.044  13.558  0.00  0.00    -0.054 A 
HETATM   24  C   UNK N   1      35.922   9.887  14.242  0.00  0.00     0.008 A 
HETATM   25  C   UNK N   1      36.102  10.431  15.514  0.00  0.00     0.007 A 
HETATM   26  C   UNK N   1      35.083  11.170  16.116  0.00  0.00    -0.059 A 
HETATM   27  C   UNK N   1      33.862  11.339  15.435  0.00  0.00     0.007 A 
HETATM   28  C   UNK N   1      33.676  10.775  14.162  0.00  0.00     0.008 A 
BRANCH  26  29
HETATM   29  C   UNK N   1      35.350  11.780  17.464  0.00  0.00     0.034 C 
HETATM   30  C   UNK N   1      35.066  13.271  17.544  0.00  0.00     0.010 C 
ENDBRANCH  26  29
ENDBRANCH  22  23
ENDBRANCH   1  22
BRANCH  10  31
HETATM   31  O   UNK N   1      34.090  15.657  10.529  0.00  0.00    -0.390 OA
HETATM   32  H   UNK N   1      33.169  15.794  10.261  0.00  0.00     0.210 HD
ENDBRANCH  10  31
TORSDOF 8
ENDMDL
MODEL 6
REMARK VINA RESULT:      -6.9     20.997     23.353
REMARK  8 active torsions:
REMARK  status: ('A' for Active; 'I' for Inactive)
REMARK    1  A    between atoms: C_2  and  C_3 
REMARK    2  A    between atoms: C_6  and  C_9 
REMARK    3  A    between atoms: C_9  and  C_10 
REMARK    4  A    between atoms: C_17  and  O_26 
REMARK    5  A    between atoms: C_18  and  O_25 
REMARK    6  A    between atoms: C_19  and  O_24 
REMARK    7  A    between atoms: C_20  and  C_22 
REMARK    8  A    between atoms: C_22  and  O_23 
ROOT
HETATM    1  C   UNK N   1      29.852  22.141  -4.966  0.00  0.00    -0.053 A 
HETATM    2  C   UNK N   1      30.870  21.171  -4.883  0.00  0.00     0.008 A 
HETATM    3  C   UNK N   1      31.013  20.203  -5.879  0.00  0.00     0.010 A 
HETATM    4  C   UNK N   1      30.141  20.236  -6.960  0.00  0.00    -0.023 A 
HETATM    5  C   UNK N   1      29.198  21.183  -7.098  0.00  0.00     0.015 A 
HETATM    6  C   UNK N   1      29.017  22.169  -6.108  0.00  0.00     0.021 A 
HETATM    7  C   UNK N   1      28.457  20.937  -8.382  0.00  0.00     0.223 C 
HETATM    8  C   UNK N   1      28.727  21.938  -9.534  0.00  0.00     0.217 C 
HETATM    9  C   UNK N   1      27.992  23.257  -9.394  0.00  0.00     0.183 C 
HETATM   10  C   UNK N   1      26.531  22.981  -9.072  0.00  0.00     0.180 C 
HETATM   11  C   UNK N   1      26.509  22.077  -7.832  0.00  0.00     0.180 C 
HETATM   12  O   UNK N   1      27.061  20.809  -8.149  0.00  0.00    -0.339 OA
HETATM   13  O   UNK N   1      28.952  19.678  -8.848  0.00  0.00    -0.344 OA
HETATM   14  C   UNK N   1      30.094  19.304  -8.081  0.00  0.00     0.211 C 
ENDROOT
BRANCH   8  15
HETATM   15  O   UNK N   1      30.096  22.141  -9.735  0.00  0.00    -0.387 OA
HETATM   16  H   UNK N   1      30.646  22.637 -10.361  0.00  0.00     0.210 HD
ENDBRANCH   8  15
BRANCH   9  17
HETATM   17  O   UNK N   1      28.083  23.968 -10.593  0.00  0.00    -0.390 OA
HETATM   18  H   UNK N   1      28.848  24.422 -10.977  0.00  0.00     0.210 HD
ENDBRANCH   9  17
BRANCH  11  19
HETATM   19  C   UNK N   1      25.120  21.901  -7.245  0.00  0.00     0.198 C 
BRANCH  19  20
HETATM   20  O   UNK N   1      24.160  22.062  -8.246  0.00  0.00    -0.398 OA
HETATM   21  H   UNK N   1      23.295  21.636  -8.341  0.00  0.00     0.209 HD
ENDBRANCH  19  20
ENDBRANCH  11  19
BRANCH   1  22
HETATM   22  C   UNK N   1      29.703  23.160  -3.865  0.00  0.00     0.077 C 
BRANCH  22  23
HETATM   23  C   UNK N   1      28.642  24.214  -4.109  0.00  0.00    -0.054 A 
HETATM   24  C   UNK N   1      27.370  24.083  -3.534  0.00  0.00     0.008 A 
HETATM   25  C   UNK N   1      26.412  25.087  -3.678  0.00  0.00     0.007 A 
HETATM   26  C   UNK N   1      26.717  26.258  -4.373  0.00  0.00    -0.059 A 
HETATM   27  C   UNK N   1      27.993  26.403  -4.950  0.00  0.00     0.007 A 
HETATM   28  C   UNK N   1      28.950  25.383  -4.820  0.00  0.00     0.008 A 
BRANCH  26  29
HETATM   29  C   UNK N   1      25.666  27.330  -4.451  0.00  0.00     0.034 C 
HETATM   30  C   UNK N   1      24.732  27.206  -5.644  0.00  0.00     0.010 C 
ENDBRANCH  26  29
ENDBRANCH  22  23
ENDBRANCH   1  22
BRANCH  10  31
HETATM   31  O   UNK N   1      25.881  24.193  -8.832  0.00  0.00    -0.390 OA
HETATM   32  H   UNK N   1      26.289  25.067  -8.730  0.00  0.00     0.210 HD
ENDBRANCH  10  31
TORSDOF 8
ENDMDL
MODEL 7
REMARK VINA RESULT:      -6.9      1.566      3.439
REMARK  8 active torsions:
REMARK  status: ('A' for Active; 'I' for Inactive)
REMARK    1  A    between atoms: C_2  and  C_3 
REMARK    2  A    between atoms: C_6  and  C_9 
REMARK    3  A    between atoms: C_9  and  C_10 
REMARK    4  A    between atoms: C_17  and  O_26 
REMARK    5  A    between atoms: C_18  and  O_25 
REMARK    6  A    between atoms: C_19  and  O_24 
REMARK    7  A    between atoms: C_20  and  C_22 
REMARK    8  A    between atoms: C_22  and  O_23 
ROOT
HETATM    1  C   UNK N   1      34.815  12.342  14.386  0.00  0.00    -0.053 A 
HETATM    2  C   UNK N   1      34.047  11.174  14.564  0.00  0.00     0.008 A 
HETATM    3  C   UNK N   1      33.731  10.358  13.476  0.00  0.00     0.010 A 
HETATM    4  C   UNK N   1      34.211  10.715  12.222  0.00  0.00    -0.023 A 
HETATM    5  C   UNK N   1      34.993  11.790  12.029  0.00  0.00     0.015 A 
HETATM    6  C   UNK N   1      35.324  12.643  13.100  0.00  0.00     0.021 A 
HETATM    7  C   UNK N   1      35.348  11.866  10.570  0.00  0.00     0.223 C 
HETATM    8  C   UNK N   1      36.815  11.523  10.201  0.00  0.00     0.217 C 
HETATM    9  C   UNK N   1      37.799  12.645  10.473  0.00  0.00     0.183 C 
HETATM   10  C   UNK N   1      37.247  13.942   9.900  0.00  0.00     0.180 C 
HETATM   11  C   UNK N   1      35.847  14.133  10.497  0.00  0.00     0.180 C 
HETATM   12  O   UNK N   1      34.976  13.122  10.019  0.00  0.00    -0.339 OA
HETATM   13  O   UNK N   1      34.554  10.849   9.952  0.00  0.00    -0.344 OA
HETATM   14  C   UNK N   1      33.969  10.028  10.959  0.00  0.00     0.211 C 
ENDROOT
BRANCH   8  15
HETATM   15  O   UNK N   1      37.234  10.329  10.794  0.00  0.00    -0.387 OA
HETATM   16  H   UNK N   1      37.979   9.717  10.687  0.00  0.00     0.210 HD
ENDBRANCH   8  15
BRANCH   9  17
HETATM   17  O   UNK N   1      39.021  12.346   9.865  0.00  0.00    -0.390 OA
HETATM   18  H   UNK N   1      39.286  12.457   8.938  0.00  0.00     0.210 HD
ENDBRANCH   9  17
BRANCH  11  19
HETATM   19  C   UNK N   1      35.255  15.501  10.205  0.00  0.00     0.198 C 
BRANCH  19  20
HETATM   20  O   UNK N   1      34.203  15.759  11.087  0.00  0.00    -0.398 OA
HETATM   21  H   UNK N   1      33.345  15.315  11.166  0.00  0.00     0.209 HD
ENDBRANCH  19  20
ENDBRANCH  11  19
BRANCH   1  22
HETATM   22  C   UNK N   1      35.121  13.220  15.572  0.00  0.00     0.077 C 
BRANCH  22  23
HETATM   23  C   UNK N   1      35.312  12.482  16.881  0.00  0.00    -0.054 A 
HETATM   24  C   UNK N   1      35.881  11.200  16.893  0.00  0.00     0.008 A 
HETATM   25  C   UNK N   1      36.144  10.545  18.097  0.00  0.00     0.007 A 
HETATM   26  C   UNK N   1      35.871  11.170  19.314  0.00  0.00    -0.059 A 
HETATM   27  C   UNK N   1      35.305  12.459  19.314  0.00  0.00     0.007 A 
HETATM   28  C   UNK N   1      35.024  13.110  18.101  0.00  0.00     0.008 A 
BRANCH  26  29
HETATM   29  C   UNK N   1      36.224  10.440  20.581  0.00  0.00     0.034 C 
HETATM   30  C   UNK N   1      35.758   8.994  20.620  0.00  0.00     0.010 C 
ENDBRANCH  26  29
ENDBRANCH  22  23
ENDBRANCH   1  22
BRANCH  10  31
HETATM   31  O   UNK N   1      38.099  14.992  10.249  0.00  0.00    -0.390 OA
HETATM   32  H   UNK N   1      38.521  15.145  11.108  0.00  0.00     0.210 HD
ENDBRANCH  10  31
TORSDOF 8
ENDMDL
MODEL 8
REMARK VINA RESULT:      -6.7     14.461     17.745
REMARK  8 active torsions:
REMARK  status: ('A' for Active; 'I' for Inactive)
REMARK    1  A    between atoms: C_2  and  C_3 
REMARK    2  A    between atoms: C_6  and  C_9 
REMARK    3  A    between atoms: C_9  and  C_10 
REMARK    4  A    between atoms: C_17  and  O_26 
REMARK    5  A    between atoms: C_18  and  O_25 
REMARK    6  A    between atoms: C_19  and  O_24 
REMARK    7  A    between atoms: C_20  and  C_22 
REMARK    8  A    between atoms: C_22  and  O_23 
ROOT
HETATM    1  C   UNK N   1      20.364  15.981   1.611  0.00  0.00    -0.053 A 
HETATM    2  C   UNK N   1      20.104  17.098   0.793  0.00  0.00     0.008 A 
HETATM    3  C   UNK N   1      20.272  18.394   1.284  0.00  0.00     0.010 A 
HETATM    4  C   UNK N   1      20.720  18.551   2.590  0.00  0.00    -0.023 A 
HETATM    5  C   UNK N   1      21.031  17.507   3.376  0.00  0.00     0.015 A 
HETATM    6  C   UNK N   1      20.865  16.185   2.919  0.00  0.00     0.021 A 
HETATM    7  C   UNK N   1      21.502  18.032   4.703  0.00  0.00     0.223 C 
HETATM    8  C   UNK N   1      23.017  17.892   5.000  0.00  0.00     0.217 C 
HETATM    9  C   UNK N   1      23.437  16.500   5.431  0.00  0.00     0.183 C 
HETATM   10  C   UNK N   1      22.491  16.008   6.517  0.00  0.00     0.180 C 
HETATM   11  C   UNK N   1      21.068  16.125   5.956  0.00  0.00     0.180 C 
HETATM   12  O   UNK N   1      20.733  17.489   5.769  0.00  0.00    -0.339 OA
HETATM   13  O   UNK N   1      21.256  19.440   4.642  0.00  0.00    -0.344 OA
HETATM   14  C   UNK N   1      20.924  19.805   3.304  0.00  0.00     0.211 C 
ENDROOT
BRANCH   8  15
HETATM   15  O   UNK N   1      23.798  18.349   3.934  0.00  0.00    -0.387 OA
HETATM   16  H   UNK N   1      23.743  18.329   2.966  0.00  0.00     0.210 HD
ENDBRANCH   8  15
BRANCH   9  17
HETATM   17  O   UNK N   1      24.742  16.544   5.929  0.00  0.00    -0.390 OA
HETATM   18  H   UNK N   1      25.088  16.203   6.769  0.00  0.00     0.210 HD
ENDBRANCH   9  17
BRANCH  11  19
HETATM   19  C   UNK N   1      20.024  15.454   6.832  0.00  0.00     0.198 C 
BRANCH  19  20
HETATM   20  O   UNK N   1      20.008  14.081   6.580  0.00  0.00    -0.398 OA
HETATM   21  H   UNK N   1      19.708  13.604   5.791  0.00  0.00     0.209 HD
ENDBRANCH  19  20
ENDBRANCH  11  19
BRANCH   1  22
HETATM   22  C   UNK N   1      20.151  14.592   1.065  0.00  0.00     0.077 C 
BRANCH  22  23
HETATM   23  C   UNK N   1      21.416  13.777   0.882  0.00  0.00    -0.054 A 
HETATM   24  C   UNK N   1      22.669  14.407   0.880  0.00  0.00     0.008 A 
HETATM   25  C   UNK N   1      23.845  13.661   0.801  0.00  0.00     0.007 A 
HETATM   26  C   UNK N   1      23.795  12.267   0.755  0.00  0.00    -0.059 A 
HETATM   27  C   UNK N   1      22.542  11.624   0.762  0.00  0.00     0.007 A 
HETATM   28  C   UNK N   1      21.358  12.377   0.823  0.00  0.00     0.008 A 
BRANCH  26  29
HETATM   29  C   UNK N   1      25.094  11.512   0.726  0.00  0.00     0.034 C 
HETATM   30  C   UNK N   1      26.168  12.077   1.643  0.00  0.00     0.010 C 
ENDBRANCH  26  29
ENDBRANCH  22  23
ENDBRANCH   1  22
BRANCH  10  31
HETATM   31  O   UNK N   1      22.810  14.686   6.832  0.00  0.00    -0.390 OA
HETATM   32  H   UNK N   1      23.651  14.230   6.671  0.00  0.00     0.210 HD
ENDBRANCH  10  31
TORSDOF 8
ENDMDL
MODEL 9
REMARK VINA RESULT:      -6.7     13.523     16.254
REMARK  8 active torsions:
REMARK  status: ('A' for Active; 'I' for Inactive)
REMARK    1  A    between atoms: C_2  and  C_3 
REMARK    2  A    between atoms: C_6  and  C_9 
REMARK    3  A    between atoms: C_9  and  C_10 
REMARK    4  A    between atoms: C_17  and  O_26 
REMARK    5  A    between atoms: C_18  and  O_25 
REMARK    6  A    between atoms: C_19  and  O_24 
REMARK    7  A    between atoms: C_20  and  C_22 
REMARK    8  A    between atoms: C_22  and  O_23 
ROOT
HETATM    1  C   UNK N   1      24.651  15.340   2.817  0.00  0.00    -0.053 A 
HETATM    2  C   UNK N   1      24.393  14.653   1.614  0.00  0.00     0.008 A 
HETATM    3  C   UNK N   1      23.083  14.459   1.172  0.00  0.00     0.010 A 
HETATM    4  C   UNK N   1      22.046  14.978   1.936  0.00  0.00    -0.023 A 
HETATM    5  C   UNK N   1      22.260  15.687   3.057  0.00  0.00     0.015 A 
HETATM    6  C   UNK N   1      23.568  15.894   3.540  0.00  0.00     0.021 A 
HETATM    7  C   UNK N   1      20.932  16.114   3.614  0.00  0.00     0.223 C 
HETATM    8  C   UNK N   1      20.585  17.620   3.487  0.00  0.00     0.217 C 
HETATM    9  C   UNK N   1      21.269  18.501   4.515  0.00  0.00     0.183 C 
HETATM   10  C   UNK N   1      21.095  17.885   5.895  0.00  0.00     0.180 C 
HETATM   11  C   UNK N   1      21.614  16.444   5.810  0.00  0.00     0.180 C 
HETATM   12  O   UNK N   1      20.778  15.678   4.958  0.00  0.00    -0.339 OA
HETATM   13  O   UNK N   1      19.966  15.433   2.807  0.00  0.00    -0.344 OA
HETATM   14  C   UNK N   1      20.616  14.857   1.677  0.00  0.00     0.211 C 
ENDROOT
BRANCH   8  15
HETATM   15  O   UNK N   1      20.801  18.095   2.190  0.00  0.00    -0.387 OA
HETATM   16  H   UNK N   1      21.399  17.882   1.457  0.00  0.00     0.210 HD
ENDBRANCH   8  15
BRANCH   9  17
HETATM   17  O   UNK N   1      20.692  19.773   4.492  0.00  0.00    -0.390 OA
HETATM   18  H   UNK N   1      21.063  20.618   4.790  0.00  0.00     0.210 HD
ENDBRANCH   9  17
BRANCH  11  19
HETATM   19  C   UNK N   1      21.725  15.768   7.165  0.00  0.00     0.198 C 
BRANCH  19  20
HETATM   20  O   UNK N   1      20.825  16.350   8.059  0.00  0.00    -0.398 OA
HETATM   21  H   UNK N   1      20.037  16.884   7.877  0.00  0.00     0.209 HD
ENDBRANCH  19  20
ENDBRANCH  11  19
BRANCH   1  22
HETATM   22  C   UNK N   1      26.073  15.514   3.285  0.00  0.00     0.077 C 
BRANCH  22  23
HETATM   23  C   UNK N   1      26.412  16.901   3.793  0.00  0.00    -0.054 A 
HETATM   24  C   UNK N   1      26.017  18.035   3.068  0.00  0.00     0.008 A 
HETATM   25  C   UNK N   1      26.246  19.318   3.566  0.00  0.00     0.007 A 
HETATM   26  C   UNK N   1      26.846  19.494   4.814  0.00  0.00    -0.059 A 
HETATM   27  C   UNK N   1      27.241  18.362   5.552  0.00  0.00     0.007 A 
HETATM   28  C   UNK N   1      27.027  17.072   5.041  0.00  0.00     0.008 A 
BRANCH  26  29
HETATM   29  C   UNK N   1      27.018  20.897   5.326  0.00  0.00     0.034 C 
HETATM   30  C   UNK N   1      26.969  21.021   6.841  0.00  0.00     0.010 C 
ENDBRANCH  26  29
ENDBRANCH  22  23
ENDBRANCH   1  22
BRANCH  10  31
HETATM   31  O   UNK N   1      21.820  18.636   6.823  0.00  0.00    -0.390 OA
HETATM   32  H   UNK N   1      22.735  18.945   6.741  0.00  0.00     0.210 HD
ENDBRANCH  10  31
TORSDOF 8
ENDMDL
