MODEL 1
REMARK VINA RESULT:      -7.6      0.000      0.000
REMARK  6 active torsions:
REMARK  status: ('A' for Active; 'I' for Inactive)
REMARK    1  A    between atoms: C_2  and  C_3 
REMARK    2  A    between atoms: C_5  and  C_3 
REMARK    3  A    between atoms: C_9  and  C_29 
REMARK    4  A    between atoms: N_12  and  C_13 
REMARK    5  A    between atoms: C_13  and  C_14 
REMARK    6  A    between atoms: C_13  and  C_21 
REMARK       I    between atoms: C_21  and  N_23 
ROOT
HETATM    1  C   UNK N   1      35.205  10.263  11.278  0.00  0.00     0.184 C 
HETATM    2  C   UNK N   1      34.589   9.562  12.468  0.00  0.00     0.241 C 
HETATM    3  O   UNK N   1      34.461   8.347  12.445  0.00  0.00    -0.271 OA
HETATM    4  N   UNK N   1      34.165  10.239  13.551  0.00  0.00    -0.346 N 
HETATM    5  C   UNK N   1      34.366  11.652  13.745  0.00  0.00     0.181 C 
HETATM    6  C   UNK N   1      34.878  12.383  12.520  0.00  0.00     0.244 C 
HETATM    7  O   UNK N   1      34.848  13.603  12.558  0.00  0.00    -0.271 OA
HETATM    8  N   UNK N   1      35.319  11.730  11.390  0.00  0.00    -0.317 N 
HETATM    9  H   UNK N   1      33.689   9.738  14.252  0.00  0.00     0.163 HD
ENDROOT
BRANCH   8  10
HETATM   10  C   UNK N   1      35.885  12.432  10.208  0.00  0.00     0.232 C 
BRANCH  10  11
HETATM   11  C   UNK N   1      35.015  13.573   9.774  0.00  0.00     0.066 A 
HETATM   12  C   UNK N   1      33.749  13.503   9.230  0.00  0.00     0.171 A 
HETATM   13  O   UNK N   1      33.378  14.743   8.995  0.00  0.00    -0.308 OA
HETATM   14  C   UNK N   1      34.351  15.541   9.369  0.00  0.00     0.119 A 
HETATM   15  N   UNK N   1      35.396  14.860   9.861  0.00  0.00    -0.340 N 
HETATM   16  C   UNK N   1      34.312  17.024   9.265  0.00  0.00     0.098 C 
ATOM     17  HN  UNK N   1      36.276  15.232  10.220  1.00  0.00     0.167 HD
ENDBRANCH  10  11
BRANCH  10  18
HETATM   18  C   UNK N   1      37.385  12.784  10.091  0.00  0.00     0.249 C 
HETATM   19  O   UNK N   1      37.926  13.498  10.915  0.00  0.00    -0.271 OA
HETATM   20  N   UNK N   1      38.125  12.309   9.038  0.00  0.00    -0.346 N 
HETATM   21  C   UNK N   1      37.582  11.396   8.058  0.00  0.00     0.152 C 
HETATM   22  C   UNK N   1      39.470  12.789   8.802  0.00  0.00     0.152 C 
HETATM   23  C   UNK N   1      37.766  12.029   6.678  0.00  0.00     0.187 C 
HETATM   24  O   UNK N   1      39.132  12.305   6.465  0.00  0.00    -0.388 OA
HETATM   25  C   UNK N   1      39.504  13.329   7.364  0.00  0.00     0.187 C 
ENDBRANCH  10  18
ENDBRANCH   8  10
BRANCH   1  26
HETATM   26  C   UNK N   1      34.445   9.856   9.993  0.00  0.00     0.013 C 
HETATM   27  C   UNK N   1      34.959   8.580   9.348  0.00  0.00     0.012 C 
BRANCH  26  28
HETATM   28  C   UNK N   1      32.914   9.982  10.006  0.00  0.00     0.002 C 
HETATM   29  C   UNK N   1      32.201   8.658   9.771  0.00  0.00     0.005 C 
ENDBRANCH  26  28
ENDBRANCH   1  26
BRANCH   5  30
HETATM   30  C   UNK N   1      35.226  11.838  15.021  0.00  0.00     0.026 C 
HETATM   31  C   UNK N   1      35.522  10.596  15.894  0.00  0.00     0.046 C 
HETATM   32  C   UNK N   1      35.533  11.181  17.258  0.00  0.00    -0.051 A 
HETATM   33  C   UNK N   1      35.859  10.513  18.440  0.00  0.00     0.007 A 
HETATM   34  C   UNK N   1      35.159  12.496  17.275  0.00  0.00    -0.051 A 
HETATM   35  C   UNK N   1      35.810  11.221  19.652  0.00  0.00     0.001 A 
HETATM   36  C   UNK N   1      35.435  12.577  19.664  0.00  0.00     0.001 A 
HETATM   37  C   UNK N   1      35.099  13.222  18.466  0.00  0.00     0.007 A 
HETATM   38  C   UNK N   1      34.813  13.008  15.942  0.00  0.00     0.046 C 
ENDBRANCH   5  30
TORSDOF 6
ENDMDL
MODEL 2
REMARK VINA RESULT:      -7.5     12.165     15.928
REMARK  6 active torsions:
REMARK  status: ('A' for Active; 'I' for Inactive)
REMARK    1  A    between atoms: C_2  and  C_3 
REMARK    2  A    between atoms: C_5  and  C_3 
REMARK    3  A    between atoms: C_9  and  C_29 
REMARK    4  A    between atoms: N_12  and  C_13 
REMARK    5  A    between atoms: C_13  and  C_14 
REMARK    6  A    between atoms: C_13  and  C_21 
REMARK       I    between atoms: C_21  and  N_23 
ROOT
HETATM    1  C   UNK N   1      21.501  16.419   6.977  0.00  0.00     0.184 C 
HETATM    2  C   UNK N   1      21.510  17.746   6.251  0.00  0.00     0.241 C 
HETATM    3  O   UNK N   1      20.998  18.720   6.782  0.00  0.00    -0.271 OA
HETATM    4  N   UNK N   1      22.056  17.885   5.029  0.00  0.00    -0.346 N 
HETATM    5  C   UNK N   1      22.789  16.845   4.354  0.00  0.00     0.181 C 
HETATM    6  C   UNK N   1      22.693  15.484   5.015  0.00  0.00     0.244 C 
HETATM    7  O   UNK N   1      23.099  14.531   4.368  0.00  0.00    -0.271 OA
HETATM    8  N   UNK N   1      22.139  15.297   6.262  0.00  0.00    -0.317 N 
HETATM    9  H   UNK N   1      21.949  18.750   4.571  0.00  0.00     0.163 HD
ENDROOT
BRANCH   8  10
HETATM   10  C   UNK N   1      22.098  13.979   6.949  0.00  0.00     0.232 C 
BRANCH  10  11
HETATM   11  C   UNK N   1      21.598  12.897   6.039  0.00  0.00     0.066 A 
HETATM   12  C   UNK N   1      20.291  12.639   5.681  0.00  0.00     0.171 A 
HETATM   13  O   UNK N   1      20.325  11.597   4.880  0.00  0.00    -0.308 OA
HETATM   14  C   UNK N   1      21.577  11.224   4.744  0.00  0.00     0.119 A 
HETATM   15  N   UNK N   1      22.411  12.002   5.448  0.00  0.00    -0.340 N 
HETATM   16  C   UNK N   1      22.029  10.078   3.911  0.00  0.00     0.098 C 
ATOM     17  HN  UNK N   1      23.426  11.934   5.519  1.00  0.00     0.167 HD
ENDBRANCH  10  11
BRANCH  10  18
HETATM   18  C   UNK N   1      23.247  13.478   7.852  0.00  0.00     0.249 C 
HETATM   19  O   UNK N   1      24.327  13.172   7.380  0.00  0.00    -0.271 OA
HETATM   20  N   UNK N   1      23.056  13.349   9.204  0.00  0.00    -0.346 N 
HETATM   21  C   UNK N   1      21.832  13.757   9.857  0.00  0.00     0.152 C 
HETATM   22  C   UNK N   1      24.045  12.693  10.033  0.00  0.00     0.152 C 
HETATM   23  C   UNK N   1      21.282  12.550  10.617  0.00  0.00     0.187 C 
HETATM   24  O   UNK N   1      22.253  12.084  11.527  0.00  0.00    -0.388 OA
HETATM   25  C   UNK N   1      23.323  11.555  10.772  0.00  0.00     0.187 C 
ENDBRANCH  10  18
ENDBRANCH   8  10
BRANCH   1  26
HETATM   26  C   UNK N   1      20.051  16.069   7.389  0.00  0.00     0.013 C 
HETATM   27  C   UNK N   1      19.742  16.336   8.852  0.00  0.00     0.012 C 
BRANCH  26  28
HETATM   28  C   UNK N   1      18.924  16.472   6.424  0.00  0.00     0.002 C 
HETATM   29  C   UNK N   1      18.860  15.599   5.179  0.00  0.00     0.005 C 
ENDBRANCH  26  28
ENDBRANCH   1  26
BRANCH   5  30
HETATM   30  C   UNK N   1      24.234  17.355   4.124  0.00  0.00     0.026 C 
HETATM   31  C   UNK N   1      25.337  16.908   5.112  0.00  0.00     0.046 C 
HETATM   32  C   UNK N   1      26.205  18.110   5.161  0.00  0.00    -0.051 A 
HETATM   33  C   UNK N   1      27.425  18.221   5.832  0.00  0.00     0.007 A 
HETATM   34  C   UNK N   1      25.683  19.172   4.474  0.00  0.00    -0.051 A 
HETATM   35  C   UNK N   1      28.117  19.442   5.780  0.00  0.00     0.001 A 
HETATM   36  C   UNK N   1      27.581  20.528   5.064  0.00  0.00     0.001 A 
HETATM   37  C   UNK N   1      26.349  20.397   4.410  0.00  0.00     0.007 A 
HETATM   38  C   UNK N   1      24.376  18.874   3.873  0.00  0.00     0.046 C 
ENDBRANCH   5  30
TORSDOF 6
ENDMDL
MODEL 3
REMARK VINA RESULT:      -7.5     11.687     14.904
REMARK  6 active torsions:
REMARK  status: ('A' for Active; 'I' for Inactive)
REMARK    1  A    between atoms: C_2  and  C_3 
REMARK    2  A    between atoms: C_5  and  C_3 
REMARK    3  A    between atoms: C_9  and  C_29 
REMARK    4  A    between atoms: N_12  and  C_13 
REMARK    5  A    between atoms: C_13  and  C_14 
REMARK    6  A    between atoms: C_13  and  C_21 
REMARK       I    between atoms: C_21  and  N_23 
ROOT
HETATM    1  C   UNK N   1      25.590  16.457   5.078  0.00  0.00     0.184 C 
HETATM    2  C   UNK N   1      26.454  15.855   6.163  0.00  0.00     0.241 C 
HETATM    3  O   UNK N   1      27.525  16.379   6.431  0.00  0.00    -0.271 OA
HETATM    4  N   UNK N   1      26.085  14.750   6.836  0.00  0.00    -0.346 N 
HETATM    5  C   UNK N   1      24.801  14.113   6.692  0.00  0.00     0.181 C 
HETATM    6  C   UNK N   1      23.972  14.634   5.535  0.00  0.00     0.244 C 
HETATM    7  O   UNK N   1      22.986  13.982   5.229  0.00  0.00    -0.271 OA
HETATM    8  N   UNK N   1      24.316  15.760   4.817  0.00  0.00    -0.317 N 
HETATM    9  H   UNK N   1      26.731  14.354   7.465  0.00  0.00     0.163 HD
ENDROOT
BRANCH   8  10
HETATM   10  C   UNK N   1      23.478  16.319   3.724  0.00  0.00     0.232 C 
BRANCH  10  11
HETATM   11  C   UNK N   1      23.228  15.307   2.646  0.00  0.00     0.066 A 
HETATM   12  C   UNK N   1      24.152  14.751   1.787  0.00  0.00     0.171 A 
HETATM   13  O   UNK N   1      23.486  13.926   1.009  0.00  0.00    -0.308 OA
HETATM   14  C   UNK N   1      22.220  13.962   1.359  0.00  0.00     0.119 A 
HETATM   15  N   UNK N   1      22.007  14.810   2.376  0.00  0.00    -0.340 N 
HETATM   16  C   UNK N   1      21.144  13.165   0.715  0.00  0.00     0.098 C 
ATOM     17  HN  UNK N   1      21.124  15.027   2.838  1.00  0.00     0.167 HD
ENDBRANCH  10  11
BRANCH  10  18
HETATM   18  C   UNK N   1      22.225  17.182   3.996  0.00  0.00     0.249 C 
HETATM   19  O   UNK N   1      21.137  16.666   4.178  0.00  0.00    -0.271 OA
HETATM   20  N   UNK N   1      22.321  18.550   4.015  0.00  0.00    -0.346 N 
HETATM   21  C   UNK N   1      23.583  19.241   3.883  0.00  0.00     0.152 C 
HETATM   22  C   UNK N   1      21.132  19.375   4.065  0.00  0.00     0.152 C 
HETATM   23  C   UNK N   1      23.466  20.208   2.704  0.00  0.00     0.187 C 
HETATM   24  O   UNK N   1      22.385  21.087   2.921  0.00  0.00    -0.388 OA
HETATM   25  C   UNK N   1      21.198  20.325   2.860  0.00  0.00     0.187 C 
ENDBRANCH  10  18
ENDBRANCH   8  10
BRANCH   1  26
HETATM   26  C   UNK N   1      26.422  16.606   3.782  0.00  0.00     0.013 C 
HETATM   27  C   UNK N   1      27.079  17.966   3.621  0.00  0.00     0.012 C 
BRANCH  26  28
HETATM   28  C   UNK N   1      27.315  15.423   3.374  0.00  0.00     0.002 C 
HETATM   29  C   UNK N   1      28.708  15.849   2.932  0.00  0.00     0.005 C 
ENDBRANCH  26  28
ENDBRANCH   1  26
BRANCH   5  30
HETATM   30  C   UNK N   1      24.093  14.156   8.070  0.00  0.00     0.026 C 
HETATM   31  C   UNK N   1      24.549  13.158   9.160  0.00  0.00     0.046 C 
HETATM   32  C   UNK N   1      23.273  12.872   9.862  0.00  0.00    -0.051 A 
HETATM   33  C   UNK N   1      23.119  12.100  11.015  0.00  0.00     0.007 A 
HETATM   34  C   UNK N   1      22.190  13.440   9.248  0.00  0.00    -0.051 A 
HETATM   35  C   UNK N   1      21.830  11.925  11.545  0.00  0.00     0.001 A 
HETATM   36  C   UNK N   1      20.720  12.519  10.916  0.00  0.00     0.001 A 
HETATM   37  C   UNK N   1      20.898  13.280   9.753  0.00  0.00     0.007 A 
HETATM   38  C   UNK N   1      22.548  14.177   8.029  0.00  0.00     0.046 C 
ENDBRANCH   5  30
TORSDOF 6
ENDMDL
MODEL 4
REMARK VINA RESULT:      -7.5      9.264     13.432
REMARK  6 active torsions:
REMARK  status: ('A' for Active; 'I' for Inactive)
REMARK    1  A    between atoms: C_2  and  C_3 
REMARK    2  A    between atoms: C_5  and  C_3 
REMARK    3  A    between atoms: C_9  and  C_29 
REMARK    4  A    between atoms: N_12  and  C_13 
REMARK    5  A    between atoms: C_13  and  C_14 
REMARK    6  A    between atoms: C_13  and  C_21 
REMARK       I    between atoms: C_21  and  N_23 
ROOT
HETATM    1  C   UNK N   1      26.535  17.865   4.932  0.00  0.00     0.184 C 
HETATM    2  C   UNK N   1      27.720  18.797   4.807  0.00  0.00     0.241 C 
HETATM    3  O   UNK N   1      27.580  19.980   5.077  0.00  0.00    -0.271 OA
HETATM    4  N   UNK N   1      28.926  18.363   4.397  0.00  0.00    -0.346 N 
HETATM    5  C   UNK N   1      29.245  16.978   4.163  0.00  0.00     0.181 C 
HETATM    6  C   UNK N   1      28.046  16.051   4.175  0.00  0.00     0.244 C 
HETATM    7  O   UNK N   1      28.226  14.917   3.760  0.00  0.00    -0.271 OA
HETATM    8  N   UNK N   1      26.793  16.455   4.584  0.00  0.00    -0.317 N 
HETATM    9  H   UNK N   1      29.632  19.033   4.249  0.00  0.00     0.163 HD
ENDROOT
BRANCH   8  10
HETATM   10  C   UNK N   1      25.625  15.539   4.663  0.00  0.00     0.232 C 
BRANCH  10  11
HETATM   11  C   UNK N   1      25.405  14.811   3.370  0.00  0.00     0.066 A 
HETATM   12  C   UNK N   1      24.964  15.338   2.175  0.00  0.00     0.171 A 
HETATM   13  O   UNK N   1      24.912  14.336   1.324  0.00  0.00    -0.308 OA
HETATM   14  C   UNK N   1      25.298  13.247   1.949  0.00  0.00     0.119 A 
HETATM   15  N   UNK N   1      25.616  13.490   3.229  0.00  0.00    -0.340 N 
HETATM   16  C   UNK N   1      25.377  11.900   1.324  0.00  0.00     0.098 C 
ATOM     17  HN  UNK N   1      25.942  12.827   3.932  1.00  0.00     0.167 HD
ENDBRANCH  10  11
BRANCH  10  18
HETATM   18  C   UNK N   1      25.366  14.626   5.882  0.00  0.00     0.249 C 
HETATM   19  O   UNK N   1      26.180  13.786   6.219  0.00  0.00    -0.271 OA
HETATM   20  N   UNK N   1      24.197  14.737   6.591  0.00  0.00    -0.346 N 
HETATM   21  C   UNK N   1      23.211  15.754   6.306  0.00  0.00     0.152 C 
HETATM   22  C   UNK N   1      23.849  13.762   7.603  0.00  0.00     0.152 C 
HETATM   23  C   UNK N   1      21.879  15.052   6.039  0.00  0.00     0.187 C 
HETATM   24  O   UNK N   1      21.533  14.257   7.151  0.00  0.00    -0.388 OA
HETATM   25  C   UNK N   1      22.469  13.202   7.226  0.00  0.00     0.187 C 
ENDBRANCH  10  18
ENDBRANCH   8  10
BRANCH   1  26
HETATM   26  C   UNK N   1      25.348  18.434   4.118  0.00  0.00     0.013 C 
HETATM   27  C   UNK N   1      24.211  18.968   4.974  0.00  0.00     0.012 C 
BRANCH  26  28
HETATM   28  C   UNK N   1      25.680  19.307   2.897  0.00  0.00     0.002 C 
HETATM   29  C   UNK N   1      24.793  20.538   2.782  0.00  0.00     0.005 C 
ENDBRANCH  26  28
ENDBRANCH   1  26
BRANCH   5  30
HETATM   30  C   UNK N   1      30.382  16.582   5.140  0.00  0.00     0.026 C 
HETATM   31  C   UNK N   1      30.186  16.864   6.648  0.00  0.00     0.046 C 
HETATM   32  C   UNK N   1      31.568  17.195   7.076  0.00  0.00    -0.051 A 
HETATM   33  C   UNK N   1      31.992  17.434   8.384  0.00  0.00     0.007 A 
HETATM   34  C   UNK N   1      32.445  17.271   6.029  0.00  0.00    -0.051 A 
HETATM   35  C   UNK N   1      33.344  17.744   8.611  0.00  0.00     0.001 A 
HETATM   36  C   UNK N   1      34.244  17.810   7.533  0.00  0.00     0.001 A 
HETATM   37  C   UNK N   1      33.792  17.579   6.227  0.00  0.00     0.007 A 
HETATM   38  C   UNK N   1      31.803  17.030   4.729  0.00  0.00     0.046 C 
ENDBRANCH   5  30
TORSDOF 6
ENDMDL
MODEL 5
REMARK VINA RESULT:      -7.3      3.440      8.557
REMARK  6 active torsions:
REMARK  status: ('A' for Active; 'I' for Inactive)
REMARK    1  A    between atoms: C_2  and  C_3 
REMARK    2  A    between atoms: C_5  and  C_3 
REMARK    3  A    between atoms: C_9  and  C_29 
REMARK    4  A    between atoms: N_12  and  C_13 
REMARK    5  A    between atoms: C_13  and  C_14 
REMARK    6  A    between atoms: C_13  and  C_21 
REMARK       I    between atoms: C_21  and  N_23 
ROOT
HETATM    1  C   UNK N   1      35.350  15.251   9.280  0.00  0.00     0.184 C 
HETATM    2  C   UNK N   1      34.778  16.603   9.642  0.00  0.00     0.241 C 
HETATM    3  O   UNK N   1      35.502  17.437  10.165  0.00  0.00    -0.271 OA
HETATM    4  N   UNK N   1      33.488  16.914   9.415  0.00  0.00    -0.346 N 
HETATM    5  C   UNK N   1      32.569  16.063   8.703  0.00  0.00     0.181 C 
HETATM    6  C   UNK N   1      33.094  14.666   8.434  0.00  0.00     0.244 C 
HETATM    7  O   UNK N   1      32.282  13.842   8.043  0.00  0.00    -0.271 OA
HETATM    8  N   UNK N   1      34.406  14.305   8.655  0.00  0.00    -0.317 N 
HETATM    9  H   UNK N   1      33.153  17.774   9.757  0.00  0.00     0.163 HD
ENDROOT
BRANCH   8  10
HETATM   10  C   UNK N   1      34.947  12.958   8.334  0.00  0.00     0.232 C 
BRANCH  10  11
HETATM   11  C   UNK N   1      34.235  11.880   9.094  0.00  0.00     0.066 A 
HETATM   12  C   UNK N   1      34.438  11.504  10.405  0.00  0.00     0.171 A 
HETATM   13  O   UNK N   1      33.602  10.516  10.641  0.00  0.00    -0.308 OA
HETATM   14  C   UNK N   1      32.917  10.287   9.544  0.00  0.00     0.119 A 
HETATM   15  N   UNK N   1      33.275  11.111   8.549  0.00  0.00    -0.340 N 
HETATM   16  C   UNK N   1      31.867   9.243   9.409  0.00  0.00     0.098 C 
ATOM     17  HN  UNK N   1      32.905  11.147   7.599  1.00  0.00     0.167 HD
ENDBRANCH  10  11
BRANCH  10  18
HETATM   18  C   UNK N   1      35.272  12.517   6.889  0.00  0.00     0.249 C 
HETATM   19  O   UNK N   1      34.405  12.064   6.163  0.00  0.00    -0.271 OA
HETATM   20  N   UNK N   1      36.554  12.611   6.410  0.00  0.00    -0.346 N 
HETATM   21  C   UNK N   1      37.626  13.204   7.177  0.00  0.00     0.152 C 
HETATM   22  C   UNK N   1      36.916  12.019   5.140  0.00  0.00     0.152 C 
HETATM   23  C   UNK N   1      38.749  12.172   7.287  0.00  0.00     0.187 C 
HETATM   24  O   UNK N   1      39.157  11.779   5.996  0.00  0.00    -0.388 OA
HETATM   25  C   UNK N   1      38.088  11.064   5.412  0.00  0.00     0.187 C 
ENDBRANCH  10  18
ENDBRANCH   8  10
BRANCH   1  26
HETATM   26  C   UNK N   1      36.024  14.628  10.526  0.00  0.00     0.013 C 
HETATM   27  C   UNK N   1      37.542  14.674  10.497  0.00  0.00     0.012 C 
BRANCH  26  28
HETATM   28  C   UNK N   1      35.411  14.952  11.898  0.00  0.00     0.002 C 
HETATM   29  C   UNK N   1      36.096  14.225  13.047  0.00  0.00     0.005 C 
ENDBRANCH  26  28
ENDBRANCH   1  26
BRANCH   5  30
HETATM   30  C   UNK N   1      32.090  16.831   7.445  0.00  0.00     0.026 C 
HETATM   31  C   UNK N   1      30.750  16.411   6.796  0.00  0.00     0.046 C 
HETATM   32  C   UNK N   1      31.025  16.644   5.357  0.00  0.00    -0.051 A 
HETATM   33  C   UNK N   1      30.107  16.526   4.311  0.00  0.00     0.007 A 
HETATM   34  C   UNK N   1      32.327  16.986   5.113  0.00  0.00    -0.051 A 
HETATM   35  C   UNK N   1      30.541  16.777   2.999  0.00  0.00     0.001 A 
HETATM   36  C   UNK N   1      31.878  17.138   2.753  0.00  0.00     0.001 A 
HETATM   37  C   UNK N   1      32.784  17.238   3.818  0.00  0.00     0.007 A 
HETATM   38  C   UNK N   1      33.146  17.017   6.332  0.00  0.00     0.046 C 
ENDBRANCH   5  30
TORSDOF 6
ENDMDL
MODEL 6
REMARK VINA RESULT:      -7.0     12.386     14.774
REMARK  6 active torsions:
REMARK  status: ('A' for Active; 'I' for Inactive)
REMARK    1  A    between atoms: C_2  and  C_3 
REMARK    2  A    between atoms: C_5  and  C_3 
REMARK    3  A    between atoms: C_9  and  C_29 
REMARK    4  A    between atoms: N_12  and  C_13 
REMARK    5  A    between atoms: C_13  and  C_14 
REMARK    6  A    between atoms: C_13  and  C_21 
REMARK       I    between atoms: C_21  and  N_23 
ROOT
HETATM    1  C   UNK N   1      22.031  13.110   4.460  0.00  0.00     0.184 C 
HETATM    2  C   UNK N   1      21.292  12.254   5.465  0.00  0.00     0.241 C 
HETATM    3  O   UNK N   1      21.182  11.055   5.260  0.00  0.00    -0.271 OA
HETATM    4  N   UNK N   1      20.743  12.776   6.577  0.00  0.00    -0.346 N 
HETATM    5  C   UNK N   1      20.905  14.148   6.986  0.00  0.00     0.181 C 
HETATM    6  C   UNK N   1      21.544  15.039   5.939  0.00  0.00     0.244 C 
HETATM    7  O   UNK N   1      21.497  16.242   6.142  0.00  0.00    -0.271 OA
HETATM    8  N   UNK N   1      22.115  14.547   4.786  0.00  0.00    -0.317 N 
HETATM    9  H   UNK N   1      20.197  12.185   7.144  0.00  0.00     0.163 HD
ENDROOT
BRANCH   8  10
HETATM   10  C   UNK N   1      22.802  15.403   3.784  0.00  0.00     0.232 C 
BRANCH  10  11
HETATM   11  C   UNK N   1      21.875  16.432   3.208  0.00  0.00     0.066 A 
HETATM   12  C   UNK N   1      21.061  16.302   2.103  0.00  0.00     0.171 A 
HETATM   13  O   UNK N   1      20.438  17.452   1.963  0.00  0.00    -0.308 OA
HETATM   14  C   UNK N   1      20.838  18.254   2.924  0.00  0.00     0.119 A 
HETATM   15  N   UNK N   1      21.736  17.665   3.727  0.00  0.00    -0.340 N 
HETATM   16  C   UNK N   1      20.360  19.650   3.110  0.00  0.00     0.098 C 
ATOM     17  HN  UNK N   1      22.204  18.060   4.542  1.00  0.00     0.167 HD
ENDBRANCH  10  11
BRANCH  10  18
HETATM   18  C   UNK N   1      24.218  15.978   4.014  0.00  0.00     0.249 C 
HETATM   19  O   UNK N   1      24.374  17.124   4.394  0.00  0.00    -0.271 OA
HETATM   20  N   UNK N   1      25.324  15.204   3.771  0.00  0.00    -0.346 N 
HETATM   21  C   UNK N   1      25.229  13.813   3.390  0.00  0.00     0.152 C 
HETATM   22  C   UNK N   1      26.651  15.784   3.785  0.00  0.00     0.152 C 
HETATM   23  C   UNK N   1      25.981  13.637   2.071  0.00  0.00     0.187 C 
HETATM   24  O   UNK N   1      27.315  14.068   2.227  0.00  0.00    -0.388 OA
HETATM   25  C   UNK N   1      27.289  15.466   2.424  0.00  0.00     0.187 C 
ENDBRANCH  10  18
ENDBRANCH   8  10
BRANCH   1  26
HETATM   26  C   UNK N   1      21.423  12.890   3.054  0.00  0.00     0.013 C 
HETATM   27  C   UNK N   1      22.257  11.994   2.153  0.00  0.00     0.012 C 
BRANCH  26  28
HETATM   28  C   UNK N   1      19.910  12.634   2.969  0.00  0.00     0.002 C 
HETATM   29  C   UNK N   1      19.079  13.901   3.109  0.00  0.00     0.005 C 
ENDBRANCH  26  28
ENDBRANCH   1  26
BRANCH   5  30
HETATM   30  C   UNK N   1      21.616  14.151   8.364  0.00  0.00     0.026 C 
HETATM   31  C   UNK N   1      23.122  13.801   8.413  0.00  0.00     0.046 C 
HETATM   32  C   UNK N   1      23.224  13.088   9.710  0.00  0.00    -0.051 A 
HETATM   33  C   UNK N   1      24.400  12.636  10.314  0.00  0.00     0.007 A 
HETATM   34  C   UNK N   1      22.008  12.877  10.299  0.00  0.00    -0.051 A 
HETATM   35  C   UNK N   1      24.314  11.969  11.547  0.00  0.00     0.001 A 
HETATM   36  C   UNK N   1      23.061  11.763  12.154  0.00  0.00     0.001 A 
HETATM   37  C   UNK N   1      21.894  12.215  11.522  0.00  0.00     0.007 A 
HETATM   38  C   UNK N   1      20.889  13.386   9.493  0.00  0.00     0.046 C 
ENDBRANCH   5  30
TORSDOF 6
ENDMDL
MODEL 7
REMARK VINA RESULT:      -6.9      2.166      5.223
REMARK  6 active torsions:
REMARK  status: ('A' for Active; 'I' for Inactive)
REMARK    1  A    between atoms: C_2  and  C_3 
REMARK    2  A    between atoms: C_5  and  C_3 
REMARK    3  A    between atoms: C_9  and  C_29 
REMARK    4  A    between atoms: N_12  and  C_13 
REMARK    5  A    between atoms: C_13  and  C_14 
REMARK    6  A    between atoms: C_13  and  C_21 
REMARK       I    between atoms: C_21  and  N_23 
ROOT
HETATM    1  C   UNK N   1      35.777  13.114  11.336  0.00  0.00     0.184 C 
HETATM    2  C   UNK N   1      36.150  14.077  12.441  0.00  0.00     0.241 C 
HETATM    3  O   UNK N   1      36.026  15.278  12.252  0.00  0.00    -0.271 OA
HETATM    4  N   UNK N   1      36.624  13.652  13.626  0.00  0.00    -0.346 N 
HETATM    5  C   UNK N   1      36.704  12.265  14.009  0.00  0.00     0.181 C 
HETATM    6  C   UNK N   1      36.442  11.290  12.878  0.00  0.00     0.244 C 
HETATM    7  O   UNK N   1      36.719  10.119  13.089  0.00  0.00    -0.271 OA
HETATM    8  N   UNK N   1      35.959  11.683  11.649  0.00  0.00    -0.317 N 
HETATM    9  H   UNK N   1      36.935  14.329  14.269  0.00  0.00     0.163 HD
ENDROOT
BRANCH   8  10
HETATM   10  C   UNK N   1      35.636  10.730  10.555  0.00  0.00     0.232 C 
BRANCH  10  11
HETATM   11  C   UNK N   1      36.801   9.842  10.233  0.00  0.00     0.066 A 
HETATM   12  C   UNK N   1      37.973  10.195   9.597  0.00  0.00     0.171 A 
HETATM   13  O   UNK N   1      38.697   9.100   9.520  0.00  0.00    -0.308 OA
HETATM   14  C   UNK N   1      38.020   8.120  10.075  0.00  0.00     0.119 A 
HETATM   15  N   UNK N   1      36.829   8.532  10.535  0.00  0.00    -0.340 N 
HETATM   16  C   UNK N   1      38.504   6.719  10.187  0.00  0.00     0.098 C 
ATOM     17  HN  UNK N   1      36.112   7.980  11.004  1.00  0.00     0.167 HD
ENDBRANCH  10  11
BRANCH  10  18
HETATM   18  C   UNK N   1      34.298   9.958  10.495  0.00  0.00     0.249 C 
HETATM   19  O   UNK N   1      34.073   9.036  11.258  0.00  0.00    -0.271 OA
HETATM   20  N   UNK N   1      33.351  10.291   9.561  0.00  0.00    -0.346 N 
HETATM   21  C   UNK N   1      33.505  11.417   8.667  0.00  0.00     0.152 C 
HETATM   22  C   UNK N   1      32.187   9.455   9.356  0.00  0.00     0.152 C 
HETATM   23  C   UNK N   1      33.375  10.898   7.235  0.00  0.00     0.187 C 
HETATM   24  O   UNK N   1      32.134  10.247   7.080  0.00  0.00    -0.388 OA
HETATM   25  C   UNK N   1      32.167   9.076   7.867  0.00  0.00     0.187 C 
ENDBRANCH  10  18
ENDBRANCH   8  10
BRANCH   1  26
HETATM   26  C   UNK N   1      36.528  13.503  10.041  0.00  0.00     0.013 C 
HETATM   27  C   UNK N   1      35.758  14.457   9.142  0.00  0.00     0.012 C 
BRANCH  26  28
HETATM   28  C   UNK N   1      38.026  13.823  10.160  0.00  0.00     0.002 C 
HETATM   29  C   UNK N   1      38.750  13.815   8.820  0.00  0.00     0.005 C 
ENDBRANCH  26  28
ENDBRANCH   1  26
BRANCH   5  30
HETATM   30  C   UNK N   1      35.811  12.066  15.260  0.00  0.00     0.026 C 
HETATM   31  C   UNK N   1      35.505  13.297  16.146  0.00  0.00     0.046 C 
HETATM   32  C   UNK N   1      35.455  12.690  17.499  0.00  0.00    -0.051 A 
HETATM   33  C   UNK N   1      35.105  13.340  18.684  0.00  0.00     0.007 A 
HETATM   34  C   UNK N   1      35.816  11.370  17.504  0.00  0.00    -0.051 A 
HETATM   35  C   UNK N   1      35.118  12.612  19.885  0.00  0.00     0.001 A 
HETATM   36  C   UNK N   1      35.480  11.253  19.884  0.00  0.00     0.001 A 
HETATM   37  C   UNK N   1      35.840  10.625  18.684  0.00  0.00     0.007 A 
HETATM   38  C   UNK N   1      36.190  10.877  16.171  0.00  0.00     0.046 C 
ENDBRANCH   5  30
TORSDOF 6
ENDMDL
MODEL 8
REMARK VINA RESULT:      -6.9     19.100     23.141
REMARK  6 active torsions:
REMARK  status: ('A' for Active; 'I' for Inactive)
REMARK    1  A    between atoms: C_2  and  C_3 
REMARK    2  A    between atoms: C_5  and  C_3 
REMARK    3  A    between atoms: C_9  and  C_29 
REMARK    4  A    between atoms: N_12  and  C_13 
REMARK    5  A    between atoms: C_13  and  C_14 
REMARK    6  A    between atoms: C_13  and  C_21 
REMARK       I    between atoms: C_21  and  N_23 
ROOT
HETATM    1  C   UNK N   1      27.335  25.002  -4.893  0.00  0.00     0.184 C 
HETATM    2  C   UNK N   1      27.085  24.217  -3.625  0.00  0.00     0.241 C 
HETATM    3  O   UNK N   1      25.938  23.937  -3.312  0.00  0.00    -0.271 OA
HETATM    4  N   UNK N   1      28.091  23.825  -2.821  0.00  0.00    -0.346 N 
HETATM    5  C   UNK N   1      29.486  23.992  -3.139  0.00  0.00     0.181 C 
HETATM    6  C   UNK N   1      29.749  24.872  -4.346  0.00  0.00     0.244 C 
HETATM    7  O   UNK N   1      30.903  25.230  -4.521  0.00  0.00    -0.271 OA
HETATM    8  N   UNK N   1      28.749  25.298  -5.193  0.00  0.00    -0.317 N 
HETATM    9  H   UNK N   1      27.859  23.398  -1.965  0.00  0.00     0.163 HD
ENDROOT
BRANCH   8  10
HETATM   10  C   UNK N   1      29.002  26.105  -6.415  0.00  0.00     0.232 C 
BRANCH  10  11
HETATM   11  C   UNK N   1      29.712  27.387  -6.094  0.00  0.00     0.066 A 
HETATM   12  C   UNK N   1      29.164  28.542  -5.576  0.00  0.00     0.171 A 
HETATM   13  O   UNK N   1      30.151  29.405  -5.470  0.00  0.00    -0.308 OA
HETATM   14  C   UNK N   1      31.251  28.825  -5.895  0.00  0.00     0.119 A 
HETATM   15  N   UNK N   1      31.030  27.565  -6.296  0.00  0.00    -0.340 N 
HETATM   16  C   UNK N   1      32.586  29.476  -5.931  0.00  0.00     0.098 C 
ATOM     17  HN  UNK N   1      31.704  26.896  -6.668  1.00  0.00     0.167 HD
ENDBRANCH  10  11
BRANCH  10  18
HETATM   18  C   UNK N   1      29.521  25.481  -7.729  0.00  0.00     0.249 C 
HETATM   19  O   UNK N   1      30.710  25.284  -7.902  0.00  0.00    -0.271 OA
HETATM   20  N   UNK N   1      28.644  25.158  -8.733  0.00  0.00    -0.346 N 
HETATM   21  C   UNK N   1      27.212  25.290  -8.584  0.00  0.00     0.152 C 
HETATM   22  C   UNK N   1      29.126  24.765 -10.041  0.00  0.00     0.152 C 
HETATM   23  C   UNK N   1      26.704  26.188  -9.713  0.00  0.00     0.187 C 
HETATM   24  O   UNK N   1      27.072  25.634 -10.957  0.00  0.00    -0.388 OA
HETATM   25  C   UNK N   1      28.478  25.716 -11.059  0.00  0.00     0.187 C 
ENDBRANCH  10  18
ENDBRANCH   8  10
BRANCH   1  26
HETATM   26  C   UNK N   1      26.485  26.295  -4.872  0.00  0.00     0.013 C 
HETATM   27  C   UNK N   1      25.187  26.195  -5.656  0.00  0.00     0.012 C 
BRANCH  26  28
HETATM   28  C   UNK N   1      26.354  27.035  -3.531  0.00  0.00     0.002 C 
HETATM   29  C   UNK N   1      25.937  28.490  -3.687  0.00  0.00     0.005 C 
ENDBRANCH  26  28
ENDBRANCH   1  26
BRANCH   5  30
HETATM   30  C   UNK N   1      30.129  22.583  -3.209  0.00  0.00     0.026 C 
HETATM   31  C   UNK N   1      31.519  22.378  -2.562  0.00  0.00     0.046 C 
HETATM   32  C   UNK N   1      32.134  21.386  -3.477  0.00  0.00    -0.051 A 
HETATM   33  C   UNK N   1      33.370  20.759  -3.305  0.00  0.00     0.007 A 
HETATM   34  C   UNK N   1      31.364  21.128  -4.578  0.00  0.00    -0.051 A 
HETATM   35  C   UNK N   1      33.807  19.846  -4.279  0.00  0.00     0.001 A 
HETATM   36  C   UNK N   1      33.007  19.576  -5.404  0.00  0.00     0.001 A 
HETATM   37  C   UNK N   1      31.776  20.227  -5.562  0.00  0.00     0.007 A 
HETATM   38  C   UNK N   1      30.123  21.914  -4.602  0.00  0.00     0.046 C 
ENDBRANCH   5  30
TORSDOF 6
ENDMDL
MODEL 9
REMARK VINA RESULT:      -6.8     11.183     14.937
REMARK  6 active torsions:
REMARK  status: ('A' for Active; 'I' for Inactive)
REMARK    1  A    between atoms: C_2  and  C_3 
REMARK    2  A    between atoms: C_5  and  C_3 
REMARK    3  A    between atoms: C_9  and  C_29 
REMARK    4  A    between atoms: N_12  and  C_13 
REMARK    5  A    between atoms: C_13  and  C_14 
REMARK    6  A    between atoms: C_13  and  C_21 
REMARK       I    between atoms: C_21  and  N_23 
ROOT
HETATM    1  C   UNK N   1      25.041  15.266   2.739  0.00  0.00     0.184 C 
HETATM    2  C   UNK N   1      26.401  14.608   2.675  0.00  0.00     0.241 C 
HETATM    3  O   UNK N   1      26.732  14.021   1.656  0.00  0.00    -0.271 OA
HETATM    4  N   UNK N   1      27.256  14.639   3.713  0.00  0.00    -0.346 N 
HETATM    5  C   UNK N   1      27.029  15.393   4.920  0.00  0.00     0.181 C 
HETATM    6  C   UNK N   1      25.629  15.964   5.045  0.00  0.00     0.244 C 
HETATM    7  O   UNK N   1      25.315  16.410   6.136  0.00  0.00    -0.271 OA
HETATM    8  N   UNK N   1      24.722  15.950   4.008  0.00  0.00    -0.317 N 
HETATM    9  H   UNK N   1      28.087  14.115   3.644  0.00  0.00     0.163 HD
ENDROOT
BRANCH   8  10
HETATM   10  C   UNK N   1      23.371  16.563   4.096  0.00  0.00     0.232 C 
BRANCH  10  11
HETATM   11  C   UNK N   1      22.596  16.028   5.263  0.00  0.00     0.066 A 
HETATM   12  C   UNK N   1      22.258  14.715   5.515  0.00  0.00     0.171 A 
HETATM   13  O   UNK N   1      21.573  14.717   6.637  0.00  0.00    -0.308 OA
HETATM   14  C   UNK N   1      21.488  15.957   7.064  0.00  0.00     0.119 A 
HETATM   15  N   UNK N   1      22.109  16.814   6.241  0.00  0.00    -0.340 N 
HETATM   16  C   UNK N   1      20.789  16.373   8.309  0.00  0.00     0.098 C 
ATOM     17  HN  UNK N   1      22.194  17.826   6.335  1.00  0.00     0.167 HD
ENDBRANCH  10  11
BRANCH  10  18
HETATM   18  C   UNK N   1      23.133  18.077   3.900  0.00  0.00     0.249 C 
HETATM   19  O   UNK N   1      23.873  18.899   4.411  0.00  0.00    -0.271 OA
HETATM   20  N   UNK N   1      22.064  18.518   3.161  0.00  0.00    -0.346 N 
HETATM   21  C   UNK N   1      21.180  17.613   2.461  0.00  0.00     0.152 C 
HETATM   22  C   UNK N   1      21.709  19.921   3.136  0.00  0.00     0.152 C 
HETATM   23  C   UNK N   1      19.754  17.887   2.942  0.00  0.00     0.187 C 
HETATM   24  O   UNK N   1      19.434  19.242   2.719  0.00  0.00    -0.388 OA
HETATM   25  C   UNK N   1      20.241  20.017   3.580  0.00  0.00     0.187 C 
ENDBRANCH  10  18
ENDBRANCH   8  10
BRANCH   1  26
HETATM   26  C   UNK N   1      23.951  14.230   2.373  0.00  0.00     0.013 C 
HETATM   27  C   UNK N   1      23.517  14.277   0.917  0.00  0.00     0.012 C 
BRANCH  26  28
HETATM   28  C   UNK N   1      24.108  12.809   2.937  0.00  0.00     0.002 C 
HETATM   29  C   UNK N   1      22.793  12.044   3.010  0.00  0.00     0.005 C 
ENDBRANCH  26  28
ENDBRANCH   1  26
BRANCH   5  30
HETATM   30  C   UNK N   1      28.169  16.435   5.049  0.00  0.00     0.026 C 
HETATM   31  C   UNK N   1      29.123  16.633   3.847  0.00  0.00     0.046 C 
HETATM   32  C   UNK N   1      30.409  16.923   4.527  0.00  0.00    -0.051 A 
HETATM   33  C   UNK N   1      31.607  17.288   3.908  0.00  0.00     0.007 A 
HETATM   34  C   UNK N   1      30.338  16.780   5.886  0.00  0.00    -0.051 A 
HETATM   35  C   UNK N   1      32.738  17.519   4.707  0.00  0.00     0.001 A 
HETATM   36  C   UNK N   1      32.657  17.381   6.104  0.00  0.00     0.001 A 
HETATM   37  C   UNK N   1      31.448  17.001   6.702  0.00  0.00     0.007 A 
HETATM   38  C   UNK N   1      29.010  16.350   6.344  0.00  0.00     0.046 C 
ENDBRANCH   5  30
TORSDOF 6
ENDMDL
