REMARK  11 active torsions:
REMARK  status: ('A' for Active; 'I' for Inactive)
REMARK    1  A    between atoms: C_2  and  C_4 
REMARK    2  A    between atoms: C_2  and  C_6 
REMARK    3  A    between atoms: C_4  and  O_5 
REMARK    4  A    between atoms: C_10  and  N_21 
REMARK    5  A    between atoms: N_14  and  C_15 
REMARK    6  A    between atoms: C_15  and  C_16 
REMARK    7  A    between atoms: C_16  and  C_17 
REMARK    8  A    between atoms: C_16  and  O_19 
REMARK    9  A    between atoms: C_17  and  O_18 
REMARK       I    between atoms: N_21  and  C_22 
REMARK   10  A    between atoms: C_22  and  C_24 
REMARK   11  A    between atoms: C_24  and  C_27 
ROOT
HETATM    1  C   UNK N   1       5.935  -3.657  -0.243  0.00  0.00     0.023 A 
HETATM    2  C   UNK N   1       4.801  -2.939  -0.665  0.00  0.00     0.039 A 
HETATM    3  C   UNK N   1       5.136  -1.612  -0.489  0.00  0.00    -0.005 A 
HETATM    4  C   UNK N   1       4.402  -0.450  -0.709  0.00  0.00     0.046 A 
HETATM    5  C   UNK N   1       5.002   0.789  -0.389  0.00  0.00     0.074 A 
HETATM    6  C   UNK N   1       6.310   0.819   0.172  0.00  0.00     0.145 A 
HETATM    7  C   UNK N   1       7.008  -0.366   0.372  0.00  0.00     0.075 A 
HETATM    8  C   UNK N   1       6.397  -1.559   0.026  0.00  0.00     0.048 A 
HETATM    9  N   UNK N   1       6.900  -2.790   0.168  0.00  0.00    -0.346 N 
HETATM   10  F   UNK N   1       6.876   1.966   0.611  0.00  0.00    -0.204 F 
ENDROOT
BRANCH   5  11
HETATM   11  N   UNK N   1       4.196   1.944  -0.420  0.00  0.00    -0.324 N 
HETATM   12  C   UNK N   1       4.581   3.248  -0.365  0.00  0.00     0.235 C 
HETATM   13  O   UNK N   1       5.674   3.613  -0.774  0.00  0.00    -0.272 OA
HETATM   14  H   UNK N   1       3.227   1.788  -0.490  0.00  0.00     0.169 HD
BRANCH  12  15
HETATM   15  C   UNK N   1       3.625   4.209   0.284  0.00  0.00     0.068 A 
HETATM   16  C   UNK N   1       3.856   5.708   0.358  0.00  0.00     0.026 A 
HETATM   17  C   UNK N   1       4.303   4.829   1.501  0.00  0.00     0.026 A 
BRANCH  15  18
HETATM   18  C   UNK N   1       2.342   3.549   0.687  0.00  0.00    -0.037 A 
HETATM   19  C   UNK N   1       2.368   2.560   1.714  0.00  0.00     0.011 A 
HETATM   20  C   UNK N   1       1.348   1.600   1.806  0.00  0.00     0.040 A 
HETATM   21  C   UNK N   1       0.354   1.638   0.836  0.00  0.00     0.111 A 
HETATM   22  C   UNK N   1       0.317   2.578  -0.119  0.00  0.00     0.112 A 
HETATM   23  O   UNK N   1      -0.652   0.786   0.651  0.00  0.00    -0.256 OA
HETATM   24  C   UNK N   1       1.293   3.555  -0.245  0.00  0.00     0.048 A 
HETATM   25  O   UNK N   1      -0.719   2.350  -0.921  0.00  0.00    -0.256 OA
HETATM   26  C   UNK N   1      -1.363   1.190  -0.485  0.00  0.00     0.498 A 
HETATM   27  F   UNK N   1      -2.676   1.458  -0.155  0.00  0.00    -0.147 F 
HETATM   28  F   UNK N   1      -1.297   0.220  -1.469  0.00  0.00    -0.147 F 
ENDBRANCH  15  18
ENDBRANCH  12  15
ENDBRANCH   5  11
BRANCH   1  29
HETATM   29  C   UNK N   1       6.004  -5.177  -0.232  0.00  0.00     0.016 C 
HETATM   30  C   UNK N   1       5.021  -5.695   0.801  0.00  0.00     0.023 C 
HETATM   31  C   UNK N   1       5.584  -5.721  -1.590  0.00  0.00     0.023 C 
BRANCH  29  32
HETATM   32  C   UNK N   1       7.377  -5.753   0.110  0.00  0.00     0.179 C 
BRANCH  32  33
HETATM   33  O   UNK N   1       8.307  -5.470  -0.896  0.00  0.00    -0.400 OA
HETATM   34  H   UNK N   1       8.800  -5.930  -1.593  0.00  0.00     0.209 HD
ENDBRANCH  32  33
ENDBRANCH  29  32
ENDBRANCH   1  29
BRANCH   9  35
HETATM   35  C   UNK N   1       8.219  -3.055   0.746  0.00  0.00     0.163 C 
BRANCH  35  36
HETATM   36  C   UNK N   1       9.373  -2.681  -0.191  0.00  0.00     0.160 C 
BRANCH  36  37
HETATM   37  C   UNK N   1      10.574  -2.325   0.654  0.00  0.00     0.197 C 
BRANCH  37  38
HETATM   38  O   UNK N   1      11.662  -3.101   0.262  0.00  0.00    -0.398 OA
HETATM   39  H   UNK N   1      11.572  -4.028  -0.011  0.00  0.00     0.209 HD
ENDBRANCH  37  38
ENDBRANCH  36  37
BRANCH  36  40
HETATM   40  O   UNK N   1       9.075  -1.607  -1.034  0.00  0.00    -0.392 OA
HETATM   41  H   UNK N   1       9.618  -1.056  -1.620  0.00  0.00     0.210 HD
ENDBRANCH  36  40
ENDBRANCH  35  36
ENDBRANCH   9  35
TORSDOF 11
