MODEL 1
REMARK VINA RESULT:      -7.6      0.000      0.000
REMARK  6 active torsions:
REMARK  status: ('A' for Active; 'I' for Inactive)
REMARK    1  A    between atoms: C_7  and  N_8 
REMARK    2  A    between atoms: N_8  and  C_9 
REMARK       I    between atoms: N_8  and  C_26 
REMARK    3  A    between atoms: C_9  and  C_10 
REMARK       I    between atoms: C_10  and  N_12 
REMARK    4  A    between atoms: N_12  and  C_13 
REMARK    5  A    between atoms: C_16  and  C_19 
REMARK    6  A    between atoms: C_26  and  C_28 
ROOT
HETATM    1  N   UNK N   1      27.844  25.488  -6.031  0.00  0.00    -0.308 N 
HETATM    2  C   UNK N   1      27.124  26.588  -6.446  0.00  0.00     0.229 C 
HETATM    3  O   UNK N   1      26.427  26.529  -7.450  0.00  0.00    -0.273 OA
ENDROOT
BRANCH   1   4
HETATM    4  C   UNK N   1      27.875  24.257  -6.795  0.00  0.00     0.049 A 
HETATM    5  C   UNK N   1      28.953  23.974  -7.690  0.00  0.00    -0.035 A 
HETATM    6  C   UNK N   1      28.971  22.787  -8.425  0.00  0.00     0.009 A 
HETATM    7  C   UNK N   1      30.130  24.876  -7.848  0.00  0.00     0.050 C 
HETATM    8  C   UNK N   1      27.939  21.866  -8.314  0.00  0.00     0.001 A 
HETATM    9  C   UNK N   1      26.867  22.125  -7.467  0.00  0.00     0.009 A 
HETATM   10  C   UNK N   1      26.819  23.298  -6.710  0.00  0.00    -0.035 A 
HETATM   11  C   UNK N   1      25.587  23.523  -5.900  0.00  0.00     0.050 C 
ENDBRANCH   1   4
BRANCH   1  12
HETATM   12  C   UNK N   1      28.466  25.490  -4.714  0.00  0.00     0.235 C 
BRANCH  12  13
HETATM   13  C   UNK N   1      27.740  24.758  -3.606  0.00  0.00     0.240 C 
HETATM   14  O   UNK N   1      26.723  25.230  -3.128  0.00  0.00    -0.271 OA
HETATM   15  N   UNK N   1      28.204  23.567  -3.124  0.00  0.00    -0.326 N 
HETATM   16  H   UNK N   1      27.609  23.073  -2.513  0.00  0.00     0.169 HD
BRANCH  15  17
HETATM   17  C   UNK N   1      29.467  22.967  -3.420  0.00  0.00     0.034 A 
HETATM   18  C   UNK N   1      30.559  23.084  -2.550  0.00  0.00     0.030 A 
HETATM   19  C   UNK N   1      31.718  22.346  -2.746  0.00  0.00     0.017 A 
HETATM   20  C   UNK N   1      31.809  21.458  -3.817  0.00  0.00     0.010 A 
HETATM   21  C   UNK N   1      30.742  21.358  -4.724  0.00  0.00     0.017 A 
HETATM   22  C   UNK N   1      29.574  22.107  -4.522  0.00  0.00     0.030 A 
BRANCH  20  23
HETATM   23  C   UNK N   1      32.977  20.574  -3.916  0.00  0.00     0.137 A 
HETATM   24  N   UNK N   1      32.910  19.277  -4.274  0.00  0.00    -0.329 N 
HETATM   25  C   UNK N   1      34.202  18.897  -4.312  0.00  0.00     0.261 A 
ATOM     26  HN  UNK N   1      32.080  18.717  -4.470  1.00  0.00     0.168 HD
HETATM   27  O   UNK N   1      34.972  19.916  -3.998  0.00  0.00    -0.231 OA
HETATM   28  N   UNK N   1      34.249  20.966  -3.751  0.00  0.00    -0.243 N 
ATOM     29  HN  UNK N   1      34.580  21.895  -3.487  1.00  0.00     0.196 HD
ENDBRANCH  20  23
ENDBRANCH  15  17
ENDBRANCH  12  13
ENDBRANCH   1  12
BRANCH   2  30
HETATM   30  C   UNK N   1      27.123  27.874  -5.667  0.00  0.00     0.080 C 
HETATM   31  C   UNK N   1      26.017  28.195  -4.661  0.00  0.00     0.029 C 
HETATM   32  C   UNK N   1      26.357  29.549  -3.997  0.00  0.00     0.141 C 
HETATM   33  S   UNK N   1      28.124  29.641  -3.447  0.00  0.00     0.144 S 
HETATM   34  O   UNK N   1      27.269  30.384  -2.411  0.00  0.00    -0.228 OA
HETATM   35  O   UNK N   1      28.747  31.033  -3.634  0.00  0.00    -0.228 OA
HETATM   36  C   UNK N   1      27.823  30.203  -5.177  0.00  0.00     0.141 C 
HETATM   37  C   UNK N   1      27.983  29.036  -6.167  0.00  0.00     0.029 C 
ENDBRANCH   2  30
TORSDOF 6
ENDMDL
MODEL 2
REMARK VINA RESULT:      -7.5     18.040     21.988
REMARK  6 active torsions:
REMARK  status: ('A' for Active; 'I' for Inactive)
REMARK    1  A    between atoms: C_7  and  N_8 
REMARK    2  A    between atoms: N_8  and  C_9 
REMARK       I    between atoms: N_8  and  C_26 
REMARK    3  A    between atoms: C_9  and  C_10 
REMARK       I    between atoms: C_10  and  N_12 
REMARK    4  A    between atoms: N_12  and  C_13 
REMARK    5  A    between atoms: C_16  and  C_19 
REMARK    6  A    between atoms: C_26  and  C_28 
ROOT
HETATM    1  N   UNK N   1      35.387  12.853  10.477  0.00  0.00    -0.308 N 
HETATM    2  C   UNK N   1      35.153  12.984   9.124  0.00  0.00     0.229 C 
HETATM    3  O   UNK N   1      35.375  12.051   8.365  0.00  0.00    -0.273 OA
ENDROOT
BRANCH   1   4
HETATM    4  C   UNK N   1      35.972  11.654  11.043  0.00  0.00     0.049 A 
HETATM    5  C   UNK N   1      37.391  11.487  11.104  0.00  0.00    -0.035 A 
HETATM    6  C   UNK N   1      37.945  10.327  11.646  0.00  0.00     0.009 A 
HETATM    7  C   UNK N   1      38.349  12.540  10.658  0.00  0.00     0.050 C 
HETATM    8  C   UNK N   1      37.133   9.307  12.125  0.00  0.00     0.001 A 
HETATM    9  C   UNK N   1      35.751   9.434  12.059  0.00  0.00     0.009 A 
HETATM   10  C   UNK N   1      35.160  10.584  11.530  0.00  0.00    -0.035 A 
HETATM   11  C   UNK N   1      33.672  10.586  11.424  0.00  0.00     0.050 C 
ENDBRANCH   1   4
BRANCH   1  12
HETATM   12  C   UNK N   1      34.891  13.870  11.394  0.00  0.00     0.235 C 
BRANCH  12  13
HETATM   13  C   UNK N   1      35.899  14.852  11.950  0.00  0.00     0.240 C 
HETATM   14  O   UNK N   1      36.280  15.787  11.266  0.00  0.00    -0.271 OA
HETATM   15  N   UNK N   1      36.396  14.715  13.215  0.00  0.00    -0.326 N 
HETATM   16  H   UNK N   1      36.930  15.464  13.566  0.00  0.00     0.169 HD
BRANCH  15  17
HETATM   17  C   UNK N   1      36.218  13.590  14.078  0.00  0.00     0.034 A 
HETATM   18  C   UNK N   1      34.945  13.172  14.488  0.00  0.00     0.030 A 
HETATM   19  C   UNK N   1      34.765  11.974  15.165  0.00  0.00     0.017 A 
HETATM   20  C   UNK N   1      35.859  11.154  15.441  0.00  0.00     0.010 A 
HETATM   21  C   UNK N   1      37.147  11.575  15.075  0.00  0.00     0.017 A 
HETATM   22  C   UNK N   1      37.324  12.788  14.392  0.00  0.00     0.030 A 
BRANCH  20  23
HETATM   23  C   UNK N   1      35.628   9.823  16.015  0.00  0.00     0.137 A 
HETATM   24  N   UNK N   1      36.243   8.703  15.588  0.00  0.00    -0.329 N 
HETATM   25  C   UNK N   1      35.800   7.759  16.442  0.00  0.00     0.261 A 
ATOM     26  HN  UNK N   1      36.889   8.595  14.806  1.00  0.00     0.168 HD
HETATM   27  O   UNK N   1      34.980   8.302  17.315  0.00  0.00    -0.231 OA
HETATM   28  N   UNK N   1      34.854   9.574  17.082  0.00  0.00    -0.243 N 
ATOM     29  HN  UNK N   1      34.286  10.243  17.602  1.00  0.00     0.196 HD
ENDBRANCH  20  23
ENDBRANCH  15  17
ENDBRANCH  12  13
ENDBRANCH   1  12
BRANCH   2  30
HETATM   30  C   UNK N   1      34.577  14.243   8.537  0.00  0.00     0.080 C 
HETATM   31  C   UNK N   1      33.105  14.609   8.728  0.00  0.00     0.029 C 
HETATM   32  C   UNK N   1      32.868  15.984   8.062  0.00  0.00     0.141 C 
HETATM   33  S   UNK N   1      34.166  17.223   8.519  0.00  0.00     0.144 S 
HETATM   34  O   UNK N   1      32.824  17.962   8.416  0.00  0.00    -0.228 OA
HETATM   35  O   UNK N   1      34.543  18.163   7.363  0.00  0.00    -0.228 OA
HETATM   36  C   UNK N   1      34.555  16.211   7.028  0.00  0.00     0.141 C 
HETATM   37  C   UNK N   1      35.342  14.947   7.415  0.00  0.00     0.029 C 
ENDBRANCH   2  30
TORSDOF 6
ENDMDL
MODEL 3
REMARK VINA RESULT:      -7.4     18.002     22.005
REMARK  6 active torsions:
REMARK  status: ('A' for Active; 'I' for Inactive)
REMARK    1  A    between atoms: C_7  and  N_8 
REMARK    2  A    between atoms: N_8  and  C_9 
REMARK       I    between atoms: N_8  and  C_26 
REMARK    3  A    between atoms: C_9  and  C_10 
REMARK       I    between atoms: C_10  and  N_12 
REMARK    4  A    between atoms: N_12  and  C_13 
REMARK    5  A    between atoms: C_16  and  C_19 
REMARK    6  A    between atoms: C_26  and  C_28 
ROOT
HETATM    1  N   UNK N   1      35.410  12.853  10.413  0.00  0.00    -0.308 N 
HETATM    2  C   UNK N   1      35.181  12.995   9.061  0.00  0.00     0.229 C 
HETATM    3  O   UNK N   1      35.413  12.071   8.293  0.00  0.00    -0.273 OA
ENDROOT
BRANCH   1   4
HETATM    4  C   UNK N   1      36.003  11.653  10.970  0.00  0.00     0.049 A 
HETATM    5  C   UNK N   1      35.184  10.592  11.468  0.00  0.00    -0.035 A 
HETATM    6  C   UNK N   1      35.763   9.442  12.008  0.00  0.00     0.009 A 
HETATM    7  C   UNK N   1      33.695  10.616  11.391  0.00  0.00     0.050 C 
HETATM    8  C   UNK N   1      37.143   9.311  12.084  0.00  0.00     0.001 A 
HETATM    9  C   UNK N   1      37.963  10.335  11.627  0.00  0.00     0.009 A 
HETATM   10  C   UNK N   1      37.420  11.497  11.073  0.00  0.00    -0.035 A 
HETATM   11  C   UNK N   1      38.380  12.572  10.693  0.00  0.00     0.050 C 
ENDBRANCH   1   4
BRANCH   1  12
HETATM   12  C   UNK N   1      34.902  13.856  11.339  0.00  0.00     0.235 C 
BRANCH  12  13
HETATM   13  C   UNK N   1      35.900  14.842  11.906  0.00  0.00     0.240 C 
HETATM   14  O   UNK N   1      36.285  15.778  11.227  0.00  0.00    -0.271 OA
HETATM   15  N   UNK N   1      36.383  14.708  13.177  0.00  0.00    -0.326 N 
HETATM   16  H   UNK N   1      36.910  15.459  13.534  0.00  0.00     0.169 HD
BRANCH  15  17
HETATM   17  C   UNK N   1      36.200  13.582  14.038  0.00  0.00     0.034 A 
HETATM   18  C   UNK N   1      34.923  13.141  14.411  0.00  0.00     0.030 A 
HETATM   19  C   UNK N   1      34.745  11.942  15.086  0.00  0.00     0.017 A 
HETATM   20  C   UNK N   1      35.845  11.144  15.398  0.00  0.00     0.010 A 
HETATM   21  C   UNK N   1      37.136  11.588  15.070  0.00  0.00     0.017 A 
HETATM   22  C   UNK N   1      37.310  12.802  14.389  0.00  0.00     0.030 A 
BRANCH  20  23
HETATM   23  C   UNK N   1      35.622   9.810  15.970  0.00  0.00     0.137 A 
HETATM   24  N   UNK N   1      36.197   8.686  15.501  0.00  0.00    -0.329 N 
HETATM   25  C   UNK N   1      35.783   7.739  16.366  0.00  0.00     0.261 A 
ATOM     26  HN  UNK N   1      36.801   8.576  14.686  1.00  0.00     0.168 HD
HETATM   27  O   UNK N   1      35.016   8.285  17.285  0.00  0.00    -0.231 OA
HETATM   28  N   UNK N   1      34.899   9.562  17.072  0.00  0.00    -0.243 N 
ATOM     29  HN  UNK N   1      34.368  10.234  17.627  1.00  0.00     0.196 HD
ENDBRANCH  20  23
ENDBRANCH  15  17
ENDBRANCH  12  13
ENDBRANCH   1  12
BRANCH   2  30
HETATM   30  C   UNK N   1      34.597  14.255   8.485  0.00  0.00     0.080 C 
HETATM   31  C   UNK N   1      33.128  14.624   8.702  0.00  0.00     0.029 C 
HETATM   32  C   UNK N   1      32.882  15.999   8.041  0.00  0.00     0.141 C 
HETATM   33  S   UNK N   1      34.190  17.236   8.475  0.00  0.00     0.144 S 
HETATM   34  O   UNK N   1      32.848  17.977   8.396  0.00  0.00    -0.228 OA
HETATM   35  O   UNK N   1      34.548  18.176   7.313  0.00  0.00    -0.228 OA
HETATM   36  C   UNK N   1      34.551  16.225   6.977  0.00  0.00     0.141 C 
HETATM   37  C   UNK N   1      35.343  14.958   7.350  0.00  0.00     0.029 C 
ENDBRANCH   2  30
TORSDOF 6
ENDMDL
MODEL 4
REMARK VINA RESULT:      -7.2     14.639     18.650
REMARK  6 active torsions:
REMARK  status: ('A' for Active; 'I' for Inactive)
REMARK    1  A    between atoms: C_7  and  N_8 
REMARK    2  A    between atoms: N_8  and  C_9 
REMARK       I    between atoms: N_8  and  C_26 
REMARK    3  A    between atoms: C_9  and  C_10 
REMARK       I    between atoms: C_10  and  N_12 
REMARK    4  A    between atoms: N_12  and  C_13 
REMARK    5  A    between atoms: C_16  and  C_19 
REMARK    6  A    between atoms: C_26  and  C_28 
ROOT
HETATM    1  N   UNK N   1      33.324  15.271   6.737  0.00  0.00    -0.308 N 
HETATM    2  C   UNK N   1      33.245  13.897   6.806  0.00  0.00     0.229 C 
HETATM    3  O   UNK N   1      32.278  13.308   6.344  0.00  0.00    -0.273 OA
ENDROOT
BRANCH   1   4
HETATM    4  C   UNK N   1      32.246  16.076   6.196  0.00  0.00     0.049 A 
HETATM    5  C   UNK N   1      32.247  16.478   4.823  0.00  0.00    -0.035 A 
HETATM    6  C   UNK N   1      31.208  17.257   4.313  0.00  0.00     0.009 A 
HETATM    7  C   UNK N   1      33.299  16.050   3.857  0.00  0.00     0.050 C 
HETATM    8  C   UNK N   1      30.162  17.671   5.127  0.00  0.00     0.001 A 
HETATM    9  C   UNK N   1      30.148  17.313   6.470  0.00  0.00     0.009 A 
HETATM   10  C   UNK N   1      31.165  16.527   7.015  0.00  0.00    -0.035 A 
HETATM   11  C   UNK N   1      31.104  16.271   8.483  0.00  0.00     0.050 C 
ENDBRANCH   1   4
BRANCH   1  12
HETATM   12  C   UNK N   1      34.578  15.938   7.061  0.00  0.00     0.235 C 
BRANCH  12  13
HETATM   13  C   UNK N   1      34.489  17.282   7.750  0.00  0.00     0.240 C 
HETATM   14  O   UNK N   1      34.344  18.297   7.090  0.00  0.00    -0.271 OA
HETATM   15  N   UNK N   1      34.565  17.385   9.110  0.00  0.00    -0.326 N 
HETATM   16  H   UNK N   1      34.352  18.264   9.501  0.00  0.00     0.169 HD
BRANCH  15  17
HETATM   17  C   UNK N   1      34.925  16.344  10.020  0.00  0.00     0.034 A 
HETATM   18  C   UNK N   1      36.183  16.307  10.636  0.00  0.00     0.030 A 
HETATM   19  C   UNK N   1      36.458  15.409  11.658  0.00  0.00     0.017 A 
HETATM   20  C   UNK N   1      35.472  14.526  12.097  0.00  0.00     0.010 A 
HETATM   21  C   UNK N   1      34.220  14.518  11.464  0.00  0.00     0.017 A 
HETATM   22  C   UNK N   1      33.947  15.427  10.431  0.00  0.00     0.030 A 
BRANCH  20  23
HETATM   23  C   UNK N   1      35.732  13.695  13.280  0.00  0.00     0.137 A 
HETATM   24  N   UNK N   1      35.019  12.597  13.598  0.00  0.00    -0.329 N 
HETATM   25  C   UNK N   1      35.653  12.119  14.687  0.00  0.00     0.261 A 
ATOM     26  HN  UNK N   1      34.197  12.218  13.129  1.00  0.00     0.168 HD
HETATM   27  O   UNK N   1      36.676  12.893  14.979  0.00  0.00    -0.231 OA
HETATM   28  N   UNK N   1      36.755  13.872  14.129  0.00  0.00    -0.243 N 
ATOM     29  HN  UNK N   1      37.450  14.620  14.111  1.00  0.00     0.196 HD
ENDBRANCH  20  23
ENDBRANCH  15  17
ENDBRANCH  12  13
ENDBRANCH   1  12
BRANCH   2  30
HETATM   30  C   UNK N   1      34.352  13.069   7.398  0.00  0.00     0.080 C 
HETATM   31  C   UNK N   1      35.541  12.607   6.555  0.00  0.00     0.029 C 
HETATM   32  C   UNK N   1      36.514  11.845   7.483  0.00  0.00     0.141 C 
HETATM   33  S   UNK N   1      36.836  12.750   9.066  0.00  0.00     0.144 S 
HETATM   34  O   UNK N   1      38.141  12.062   8.643  0.00  0.00    -0.228 OA
HETATM   35  O   UNK N   1      36.975  11.820  10.281  0.00  0.00    -0.228 OA
HETATM   36  C   UNK N   1      35.392  11.606   9.112  0.00  0.00     0.141 C 
HETATM   37  C   UNK N   1      34.098  12.342   8.720  0.00  0.00     0.029 C 
ENDBRANCH   2  30
TORSDOF 6
ENDMDL
MODEL 5
REMARK VINA RESULT:      -7.0     12.222     17.037
REMARK  6 active torsions:
REMARK  status: ('A' for Active; 'I' for Inactive)
REMARK    1  A    between atoms: C_7  and  N_8 
REMARK    2  A    between atoms: N_8  and  C_9 
REMARK       I    between atoms: N_8  and  C_26 
REMARK    3  A    between atoms: C_9  and  C_10 
REMARK       I    between atoms: C_10  and  N_12 
REMARK    4  A    between atoms: N_12  and  C_13 
REMARK    5  A    between atoms: C_16  and  C_19 
REMARK    6  A    between atoms: C_26  and  C_28 
ROOT
HETATM    1  N   UNK N   1      34.420  14.802   6.165  0.00  0.00    -0.308 N 
HETATM    2  C   UNK N   1      35.767  14.677   6.430  0.00  0.00     0.229 C 
HETATM    3  O   UNK N   1      36.588  15.293   5.764  0.00  0.00    -0.273 OA
ENDROOT
BRANCH   1   4
HETATM    4  C   UNK N   1      33.925  15.592   5.054  0.00  0.00     0.049 A 
HETATM    5  C   UNK N   1      33.514  16.949   5.243  0.00  0.00    -0.035 A 
HETATM    6  C   UNK N   1      33.034  17.699   4.169  0.00  0.00     0.009 A 
HETATM    7  C   UNK N   1      33.626  17.652   6.553  0.00  0.00     0.050 C 
HETATM    8  C   UNK N   1      32.932  17.143   2.901  0.00  0.00     0.001 A 
HETATM    9  C   UNK N   1      33.304  15.820   2.694  0.00  0.00     0.009 A 
HETATM   10  C   UNK N   1      33.797  15.040   3.743  0.00  0.00    -0.035 A 
HETATM   11  C   UNK N   1      34.085  13.609   3.437  0.00  0.00     0.050 C 
ENDBRANCH   1   4
BRANCH   1  12
HETATM   12  C   UNK N   1      33.448  14.268   7.109  0.00  0.00     0.235 C 
BRANCH  12  13
HETATM   13  C   UNK N   1      32.501  13.203   6.600  0.00  0.00     0.240 C 
HETATM   14  O   UNK N   1      32.848  12.035   6.588  0.00  0.00    -0.271 OA
HETATM   15  N   UNK N   1      31.252  13.525   6.150  0.00  0.00    -0.326 N 
HETATM   16  H   UNK N   1      30.637  12.776   5.974  0.00  0.00     0.169 HD
BRANCH  15  17
HETATM   17  C   UNK N   1      30.751  14.842   5.909  0.00  0.00     0.034 A 
HETATM   18  C   UNK N   1      30.202  15.205   4.672  0.00  0.00     0.030 A 
HETATM   19  C   UNK N   1      29.547  16.416   4.503  0.00  0.00     0.017 A 
HETATM   20  C   UNK N   1      29.414  17.295   5.577  0.00  0.00     0.010 A 
HETATM   21  C   UNK N   1      29.993  16.969   6.813  0.00  0.00     0.017 A 
HETATM   22  C   UNK N   1      30.656  15.743   6.978  0.00  0.00     0.030 A 
BRANCH  20  23
HETATM   23  C   UNK N   1      28.584  18.496   5.420  0.00  0.00     0.137 A 
HETATM   24  N   UNK N   1      27.879  19.059   6.421  0.00  0.00    -0.329 N 
HETATM   25  C   UNK N   1      27.353  20.161   5.851  0.00  0.00     0.261 A 
ATOM     26  HN  UNK N   1      27.769  18.730   7.380  1.00  0.00     0.168 HD
HETATM   27  O   UNK N   1      27.735  20.233   4.594  0.00  0.00    -0.231 OA
HETATM   28  N   UNK N   1      28.497  19.225   4.297  0.00  0.00    -0.243 N 
ATOM     29  HN  UNK N   1      28.938  19.028   3.398  1.00  0.00     0.196 HD
ENDBRANCH  20  23
ENDBRANCH  15  17
ENDBRANCH  12  13
ENDBRANCH   1  12
BRANCH   2  30
HETATM   30  C   UNK N   1      36.276  13.830   7.562  0.00  0.00     0.080 C 
HETATM   31  C   UNK N   1      36.437  12.316   7.415  0.00  0.00     0.029 C 
HETATM   32  C   UNK N   1      37.042  11.773   8.730  0.00  0.00     0.141 C 
HETATM   33  S   UNK N   1      38.487  12.775   9.310  0.00  0.00     0.144 S 
HETATM   34  O   UNK N   1      38.774  11.303   9.636  0.00  0.00    -0.228 OA
HETATM   35  O   UNK N   1      38.555  12.918  10.838  0.00  0.00    -0.228 OA
HETATM   36  C   UNK N   1      36.850  13.353   9.929  0.00  0.00     0.141 C 
HETATM   37  C   UNK N   1      36.246  14.404   8.980  0.00  0.00     0.029 C 
ENDBRANCH   2  30
TORSDOF 6
ENDMDL
MODEL 6
REMARK VINA RESULT:      -7.0     14.363     17.168
REMARK  6 active torsions:
REMARK  status: ('A' for Active; 'I' for Inactive)
REMARK    1  A    between atoms: C_7  and  N_8 
REMARK    2  A    between atoms: N_8  and  C_9 
REMARK       I    between atoms: N_8  and  C_26 
REMARK    3  A    between atoms: C_9  and  C_10 
REMARK       I    between atoms: C_10  and  N_12 
REMARK    4  A    between atoms: N_12  and  C_13 
REMARK    5  A    between atoms: C_16  and  C_19 
REMARK    6  A    between atoms: C_26  and  C_28 
ROOT
HETATM    1  N   UNK N   1      23.014  13.611   7.044  0.00  0.00    -0.308 N 
HETATM    2  C   UNK N   1      24.109  14.435   6.895  0.00  0.00     0.229 C 
HETATM    3  O   UNK N   1      24.819  14.701   7.855  0.00  0.00    -0.273 OA
ENDROOT
BRANCH   1   4
HETATM    4  C   UNK N   1      22.612  13.093   8.337  0.00  0.00     0.049 A 
HETATM    5  C   UNK N   1      23.052  11.807   8.782  0.00  0.00    -0.035 A 
HETATM    6  C   UNK N   1      22.655  11.314  10.026  0.00  0.00     0.009 A 
HETATM    7  C   UNK N   1      23.987  10.955   7.993  0.00  0.00     0.050 C 
HETATM    8  C   UNK N   1      21.817  12.054  10.850  0.00  0.00     0.001 A 
HETATM    9  C   UNK N   1      21.358  13.298  10.434  0.00  0.00     0.009 A 
HETATM   10  C   UNK N   1      21.740  13.827   9.199  0.00  0.00    -0.035 A 
HETATM   11  C   UNK N   1      21.124  15.128   8.807  0.00  0.00     0.050 C 
ENDBRANCH   1   4
BRANCH   1  12
HETATM   12  C   UNK N   1      22.327  13.105   5.863  0.00  0.00     0.235 C 
BRANCH  12  13
HETATM   13  C   UNK N   1      20.826  12.942   5.953  0.00  0.00     0.240 C 
HETATM   14  O   UNK N   1      20.350  11.901   6.374  0.00  0.00    -0.271 OA
HETATM   15  N   UNK N   1      19.982  13.945   5.571  0.00  0.00    -0.326 N 
HETATM   16  H   UNK N   1      19.029  13.833   5.793  0.00  0.00     0.169 HD
BRANCH  15  17
HETATM   17  C   UNK N   1      20.346  15.142   4.880  0.00  0.00     0.034 A 
HETATM   18  C   UNK N   1      20.502  15.170   3.488  0.00  0.00     0.030 A 
HETATM   19  C   UNK N   1      20.667  16.367   2.806  0.00  0.00     0.017 A 
HETATM   20  C   UNK N   1      20.669  17.575   3.502  0.00  0.00     0.010 A 
HETATM   21  C   UNK N   1      20.556  17.565   4.901  0.00  0.00     0.017 A 
HETATM   22  C   UNK N   1      20.392  16.352   5.586  0.00  0.00     0.030 A 
BRANCH  20  23
HETATM   23  C   UNK N   1      20.686  18.835   2.749  0.00  0.00     0.137 A 
HETATM   24  N   UNK N   1      21.014  20.027   3.285  0.00  0.00    -0.329 N 
HETATM   25  C   UNK N   1      20.976  20.864   2.230  0.00  0.00     0.261 A 
ATOM     26  HN  UNK N   1      21.236  20.244   4.256  1.00  0.00     0.168 HD
HETATM   27  O   UNK N   1      20.651  20.194   1.146  0.00  0.00    -0.231 OA
HETATM   28  N   UNK N   1      20.468  18.940   1.430  0.00  0.00    -0.243 N 
ATOM     29  HN  UNK N   1      20.211  18.192   0.785  1.00  0.00     0.196 HD
ENDBRANCH  20  23
ENDBRANCH  15  17
ENDBRANCH  12  13
ENDBRANCH   1  12
BRANCH   2  30
HETATM   30  C   UNK N   1      24.502  14.997   5.557  0.00  0.00     0.080 C 
HETATM   31  C   UNK N   1      23.918  16.314   5.043  0.00  0.00     0.029 C 
HETATM   32  C   UNK N   1      24.581  16.629   3.683  0.00  0.00     0.141 C 
HETATM   33  S   UNK N   1      26.421  16.422   3.730  0.00  0.00     0.144 S 
HETATM   34  O   UNK N   1      26.104  17.618   2.821  0.00  0.00    -0.228 OA
HETATM   35  O   UNK N   1      27.002  15.845   2.429  0.00  0.00    -0.228 OA
HETATM   36  C   UNK N   1      25.484  14.899   3.281  0.00  0.00     0.141 C 
HETATM   37  C   UNK N   1      25.158  14.068   4.535  0.00  0.00     0.029 C 
ENDBRANCH   2  30
TORSDOF 6
ENDMDL
MODEL 7
REMARK VINA RESULT:      -7.0      2.239      5.088
REMARK  6 active torsions:
REMARK  status: ('A' for Active; 'I' for Inactive)
REMARK    1  A    between atoms: C_7  and  N_8 
REMARK    2  A    between atoms: N_8  and  C_9 
REMARK       I    between atoms: N_8  and  C_26 
REMARK    3  A    between atoms: C_9  and  C_10 
REMARK       I    between atoms: C_10  and  N_12 
REMARK    4  A    between atoms: N_12  and  C_13 
REMARK    5  A    between atoms: C_16  and  C_19 
REMARK    6  A    between atoms: C_26  and  C_28 
ROOT
HETATM    1  N   UNK N   1      27.558  26.669  -5.659  0.00  0.00    -0.308 N 
HETATM    2  C   UNK N   1      26.886  26.177  -6.756  0.00  0.00     0.229 C 
HETATM    3  O   UNK N   1      26.408  26.941  -7.584  0.00  0.00    -0.273 OA
ENDROOT
BRANCH   1   4
HETATM    4  C   UNK N   1      27.661  28.090  -5.394  0.00  0.00     0.049 A 
HETATM    5  C   UNK N   1      28.801  28.838  -5.828  0.00  0.00    -0.035 A 
HETATM    6  C   UNK N   1      28.893  30.205  -5.564  0.00  0.00     0.009 A 
HETATM    7  C   UNK N   1      29.908  28.234  -6.624  0.00  0.00     0.050 C 
HETATM    8  C   UNK N   1      27.891  30.864  -4.865  0.00  0.00     0.001 A 
HETATM    9  C   UNK N   1      26.783  30.158  -4.413  0.00  0.00     0.009 A 
HETATM   10  C   UNK N   1      26.651  28.791  -4.665  0.00  0.00    -0.035 A 
HETATM   11  C   UNK N   1      25.469  28.108  -4.064  0.00  0.00     0.050 C 
ENDBRANCH   1   4
BRANCH   1  12
HETATM   12  C   UNK N   1      28.330  25.761  -4.820  0.00  0.00     0.235 C 
BRANCH  12  13
HETATM   13  C   UNK N   1      27.586  25.031  -3.724  0.00  0.00     0.240 C 
HETATM   14  O   UNK N   1      26.575  25.517  -3.245  0.00  0.00    -0.271 OA
HETATM   15  N   UNK N   1      28.024  23.826  -3.254  0.00  0.00    -0.326 N 
HETATM   16  H   UNK N   1      27.418  23.337  -2.651  0.00  0.00     0.169 HD
BRANCH  15  17
HETATM   17  C   UNK N   1      29.277  23.205  -3.551  0.00  0.00     0.034 A 
HETATM   18  C   UNK N   1      30.317  23.163  -2.613  0.00  0.00     0.030 A 
HETATM   19  C   UNK N   1      31.454  22.398  -2.834  0.00  0.00     0.017 A 
HETATM   20  C   UNK N   1      31.574  21.644  -4.001  0.00  0.00     0.010 A 
HETATM   21  C   UNK N   1      30.562  21.706  -4.971  0.00  0.00     0.017 A 
HETATM   22  C   UNK N   1      29.415  22.482  -4.743  0.00  0.00     0.030 A 
BRANCH  20  23
HETATM   23  C   UNK N   1      32.708  20.722  -4.143  0.00  0.00     0.137 A 
HETATM   24  N   UNK N   1      33.079  20.161  -5.310  0.00  0.00    -0.329 N 
HETATM   25  C   UNK N   1      34.193  19.475  -4.986  0.00  0.00     0.261 A 
ATOM     26  HN  UNK N   1      32.625  20.235  -6.220  1.00  0.00     0.168 HD
HETATM   27  O   UNK N   1      34.454  19.634  -3.707  0.00  0.00    -0.231 OA
HETATM   28  N   UNK N   1      33.560  20.400  -3.158  0.00  0.00    -0.243 N 
ATOM     29  HN  UNK N   1      33.516  20.695  -2.182  1.00  0.00     0.196 HD
ENDBRANCH  20  23
ENDBRANCH  15  17
ENDBRANCH  12  13
ENDBRANCH   1  12
BRANCH   2  30
HETATM   30  C   UNK N   1      26.753  24.700  -7.008  0.00  0.00     0.080 C 
HETATM   31  C   UNK N   1      25.722  23.854  -6.260  0.00  0.00     0.029 C 
HETATM   32  C   UNK N   1      25.807  22.410  -6.805  0.00  0.00     0.141 C 
HETATM   33  S   UNK N   1      25.840  22.354  -8.656  0.00  0.00     0.144 S 
HETATM   34  O   UNK N   1      25.028  21.148  -8.162  0.00  0.00    -0.228 OA
HETATM   35  O   UNK N   1      26.755  21.253  -9.215  0.00  0.00    -0.228 OA
HETATM   36  C   UNK N   1      27.497  22.491  -7.859  0.00  0.00     0.141 C 
HETATM   37  C   UNK N   1      27.905  23.966  -7.697  0.00  0.00     0.029 C 
ENDBRANCH   2  30
TORSDOF 6
ENDMDL
MODEL 8
REMARK VINA RESULT:      -7.0      3.959      9.426
REMARK  6 active torsions:
REMARK  status: ('A' for Active; 'I' for Inactive)
REMARK    1  A    between atoms: C_7  and  N_8 
REMARK    2  A    between atoms: N_8  and  C_9 
REMARK       I    between atoms: N_8  and  C_26 
REMARK    3  A    between atoms: C_9  and  C_10 
REMARK       I    between atoms: C_10  and  N_12 
REMARK    4  A    between atoms: N_12  and  C_13 
REMARK    5  A    between atoms: C_16  and  C_19 
REMARK    6  A    between atoms: C_26  and  C_28 
ROOT
HETATM    1  N   UNK N   1      32.907  21.159  -4.939  0.00  0.00    -0.308 N 
HETATM    2  C   UNK N   1      33.864  20.572  -4.140  0.00  0.00     0.229 C 
HETATM    3  O   UNK N   1      34.117  21.033  -3.036  0.00  0.00    -0.273 OA
ENDROOT
BRANCH   1   4
HETATM    4  C   UNK N   1      32.224  22.377  -4.551  0.00  0.00     0.049 A 
HETATM    5  C   UNK N   1      30.955  22.330  -3.893  0.00  0.00    -0.035 A 
HETATM    6  C   UNK N   1      30.302  23.508  -3.527  0.00  0.00     0.009 A 
HETATM    7  C   UNK N   1      30.291  21.051  -3.509  0.00  0.00     0.050 C 
HETATM    8  C   UNK N   1      30.862  24.748  -3.806  0.00  0.00     0.001 A 
HETATM    9  C   UNK N   1      32.084  24.823  -4.464  0.00  0.00     0.009 A 
HETATM   10  C   UNK N   1      32.771  23.666  -4.838  0.00  0.00    -0.035 A 
HETATM   11  C   UNK N   1      34.030  23.854  -5.615  0.00  0.00     0.050 C 
ENDBRANCH   1   4
BRANCH   1  12
HETATM   12  C   UNK N   1      32.441  20.466  -6.133  0.00  0.00     0.235 C 
BRANCH  12  13
HETATM   13  C   UNK N   1      32.866  21.030  -7.471  0.00  0.00     0.240 C 
HETATM   14  O   UNK N   1      34.001  20.849  -7.876  0.00  0.00    -0.271 OA
HETATM   15  N   UNK N   1      31.996  21.745  -8.245  0.00  0.00    -0.326 N 
HETATM   16  H   UNK N   1      32.287  21.954  -9.163  0.00  0.00     0.169 HD
BRANCH  15  17
HETATM   17  C   UNK N   1      30.706  22.219  -7.854  0.00  0.00     0.034 A 
HETATM   18  C   UNK N   1      29.684  21.339  -7.473  0.00  0.00     0.030 A 
HETATM   19  C   UNK N   1      28.503  21.807  -6.914  0.00  0.00     0.017 A 
HETATM   20  C   UNK N   1      28.319  23.174  -6.711  0.00  0.00     0.010 A 
HETATM   21  C   UNK N   1      29.313  24.074  -7.124  0.00  0.00     0.017 A 
HETATM   22  C   UNK N   1      30.504  23.596  -7.690  0.00  0.00     0.030 A 
BRANCH  20  23
HETATM   23  C   UNK N   1      27.134  23.635  -5.977  0.00  0.00     0.137 A 
HETATM   24  N   UNK N   1      27.186  24.312  -4.813  0.00  0.00    -0.329 N 
HETATM   25  C   UNK N   1      25.894  24.596  -4.559  0.00  0.00     0.261 A 
ATOM     26  HN  UNK N   1      28.007  24.552  -4.257  1.00  0.00     0.168 HD
HETATM   27  O   UNK N   1      25.138  24.116  -5.522  0.00  0.00    -0.231 OA
HETATM   28  N   UNK N   1      25.870  23.520  -6.414  0.00  0.00    -0.243 N 
ATOM     29  HN  UNK N   1      25.552  23.061  -7.267  1.00  0.00     0.196 HD
ENDBRANCH  20  23
ENDBRANCH  15  17
ENDBRANCH  12  13
ENDBRANCH   1  12
BRANCH   2  30
HETATM   30  C   UNK N   1      34.594  19.327  -4.563  0.00  0.00     0.080 C 
HETATM   31  C   UNK N   1      34.227  17.956  -3.993  0.00  0.00     0.029 C 
HETATM   32  C   UNK N   1      35.118  16.900  -4.685  0.00  0.00     0.141 C 
HETATM   33  S   UNK N   1      35.175  17.119  -6.524  0.00  0.00     0.144 S 
HETATM   34  O   UNK N   1      35.192  15.613  -6.229  0.00  0.00    -0.228 OA
HETATM   35  O   UNK N   1      36.552  16.812  -7.131  0.00  0.00    -0.228 OA
HETATM   36  C   UNK N   1      36.461  18.058  -5.594  0.00  0.00     0.141 C 
HETATM   37  C   UNK N   1      35.958  19.469  -5.240  0.00  0.00     0.029 C 
ENDBRANCH   2  30
TORSDOF 6
ENDMDL
MODEL 9
REMARK VINA RESULT:      -6.9     18.881     23.028
REMARK  6 active torsions:
REMARK  status: ('A' for Active; 'I' for Inactive)
REMARK    1  A    between atoms: C_7  and  N_8 
REMARK    2  A    between atoms: N_8  and  C_9 
REMARK       I    between atoms: N_8  and  C_26 
REMARK    3  A    between atoms: C_9  and  C_10 
REMARK       I    between atoms: C_10  and  N_12 
REMARK    4  A    between atoms: N_12  and  C_13 
REMARK    5  A    between atoms: C_16  and  C_19 
REMARK    6  A    between atoms: C_26  and  C_28 
ROOT
HETATM    1  N   UNK N   1      36.077  12.850  11.512  0.00  0.00    -0.308 N 
HETATM    2  C   UNK N   1      36.638  13.720  10.602  0.00  0.00     0.229 C 
HETATM    3  O   UNK N   1      37.843  13.927  10.605  0.00  0.00    -0.273 OA
ENDROOT
BRANCH   1   4
HETATM    4  C   UNK N   1      36.863  12.211  12.548  0.00  0.00     0.049 A 
HETATM    5  C   UNK N   1      37.680  11.073  12.256  0.00  0.00    -0.035 A 
HETATM    6  C   UNK N   1      38.429  10.461  13.262  0.00  0.00     0.009 A 
HETATM    7  C   UNK N   1      37.829  10.518  10.880  0.00  0.00     0.050 C 
HETATM    8  C   UNK N   1      38.387  10.933  14.567  0.00  0.00     0.001 A 
HETATM    9  C   UNK N   1      37.585  12.023  14.884  0.00  0.00     0.009 A 
HETATM   10  C   UNK N   1      36.828  12.667  13.902  0.00  0.00    -0.035 A 
HETATM   11  C   UNK N   1      35.934  13.770  14.359  0.00  0.00     0.050 C 
ENDBRANCH   1   4
BRANCH   1  12
HETATM   12  C   UNK N   1      34.694  12.423  11.342  0.00  0.00     0.235 C 
BRANCH  12  13
HETATM   13  C   UNK N   1      34.461  11.076  10.694  0.00  0.00     0.240 C 
HETATM   14  O   UNK N   1      34.304  10.999   9.488  0.00  0.00    -0.271 OA
HETATM   15  N   UNK N   1      34.424   9.931  11.438  0.00  0.00    -0.326 N 
HETATM   16  H   UNK N   1      34.417   9.080  10.943  0.00  0.00     0.169 HD
BRANCH  15  17
HETATM   17  C   UNK N   1      34.392   9.848  12.865  0.00  0.00     0.034 A 
HETATM   18  C   UNK N   1      35.233   8.977  13.570  0.00  0.00     0.030 A 
HETATM   19  C   UNK N   1      35.334   9.037  14.953  0.00  0.00     0.017 A 
HETATM   20  C   UNK N   1      34.600   9.982  15.668  0.00  0.00     0.010 A 
HETATM   21  C   UNK N   1      33.719  10.834  14.984  0.00  0.00     0.017 A 
HETATM   22  C   UNK N   1      33.620  10.769  13.586  0.00  0.00     0.030 A 
BRANCH  20  23
HETATM   23  C   UNK N   1      34.839  10.133  17.108  0.00  0.00     0.137 A 
HETATM   24  N   UNK N   1      35.397  11.224  17.667  0.00  0.00    -0.329 N 
HETATM   25  C   UNK N   1      35.340  10.962  18.988  0.00  0.00     0.261 A 
ATOM     26  HN  UNK N   1      35.773  12.051  17.203  1.00  0.00     0.168 HD
HETATM   27  O   UNK N   1      34.778   9.789  19.182  0.00  0.00    -0.231 OA
HETATM   28  N   UNK N   1      34.453   9.252  18.044  0.00  0.00    -0.243 N 
ATOM     29  HN  UNK N   1      34.001   8.350  17.894  1.00  0.00     0.196 HD
ENDBRANCH  20  23
ENDBRANCH  15  17
ENDBRANCH  12  13
ENDBRANCH   1  12
BRANCH   2  30
HETATM   30  C   UNK N   1      35.812  14.407   9.549  0.00  0.00     0.080 C 
HETATM   31  C   UNK N   1      35.791  13.909   8.103  0.00  0.00     0.029 C 
HETATM   32  C   UNK N   1      34.798  14.790   7.312  0.00  0.00     0.141 C 
HETATM   33  S   UNK N   1      33.191  15.018   8.204  0.00  0.00     0.144 S 
HETATM   34  O   UNK N   1      32.886  14.918   6.703  0.00  0.00    -0.228 OA
HETATM   35  O   UNK N   1      32.591  16.422   8.027  0.00  0.00    -0.228 OA
HETATM   36  C   UNK N   1      34.480  16.274   8.603  0.00  0.00     0.141 C 
HETATM   37  C   UNK N   1      35.319  15.830   9.814  0.00  0.00     0.029 C 
ENDBRANCH   2  30
TORSDOF 6
ENDMDL
