MODEL 1
REMARK VINA RESULT:      -7.4      0.000      0.000
REMARK  17 active torsions:
REMARK  status: ('A' for Active; 'I' for Inactive)
REMARK    1  A    between atoms: C_11  and  C_10 
REMARK    2  A    between atoms: C_12  and  C_11 
REMARK    3  A    between atoms: C_14  and  C_13 
REMARK    4  A    between atoms: C_39  and  C_15 
REMARK    5  A    between atoms: C_40  and  C_20 
REMARK    6  A    between atoms: C_41  and  C_22 
REMARK    7  A    between atoms: C_37  and  C_28 
REMARK    8  A    between atoms: C_28  and  O_48 
REMARK    9  A    between atoms: O_59  and  C_29 
REMARK   10  A    between atoms: C_32  and  O_50 
REMARK   11  A    between atoms: C_38  and  O_59 
REMARK   12  A    between atoms: O_62  and  C_39 
REMARK   13  A    between atoms: O_57  and  C_40 
REMARK   14  A    between atoms: O_58  and  C_41 
REMARK   15  A    between atoms: C_43  and  O_62 
REMARK   16  A    between atoms: C_46  and  O_55 
REMARK   17  A    between atoms: C_47  and  O_56 
ROOT
HETATM    1  C   UNK N   1      26.073  18.790   2.924  0.00  0.00     0.025 C 
HETATM    2  C   UNK N   1      26.903  20.168   4.781  0.00  0.00     0.025 C 
HETATM    3  C   UNK N   1      18.961  13.812   2.292  0.00  0.00     0.023 C 
HETATM    4  C   UNK N   1      20.858  14.720   1.028  0.00  0.00     0.023 C 
HETATM    5  C   UNK N   1      24.052  18.590   4.938  0.00  0.00     0.002 C 
HETATM    6  C   UNK N   1      25.341  18.250   5.211  0.00  0.00    -0.014 C 
HETATM    7  C   UNK N   1      23.308  16.432   6.074  0.00  0.00     0.070 C 
HETATM    8  C   UNK N   1      23.541  16.029   3.548  0.00  0.00     0.066 C 
HETATM    9  C   UNK N   1      24.601  14.487   5.121  0.00  0.00     0.085 C 
HETATM   10  C   UNK N   1      29.125  15.405   5.637  0.00  0.00     0.069 C 
HETATM   11  C   UNK N   1      30.906  17.103   5.285  0.00  0.00     0.087 C 
HETATM   12  C   UNK N   1      24.394  12.204   2.605  0.00  0.00     0.064 C 
HETATM   13  C   UNK N   1      26.776  11.635   2.337  0.00  0.00     0.142 C 
HETATM   14  C   UNK N   1      27.791  14.083   3.850  0.00  0.00     0.067 C 
HETATM   15  C   UNK N   1      22.329  12.206   1.311  0.00  0.00     0.065 C 
HETATM   16  C   UNK N   1      21.125  15.343   4.027  0.00  0.00     0.101 C 
HETATM   17  C   UNK N   1      23.877  15.602   4.946  0.00  0.00    -0.069 C 
HETATM   18  C   UNK N   1      29.624  16.791   5.602  0.00  0.00    -0.037 C 
HETATM   19  C   UNK N   1      25.596  12.348   1.686  0.00  0.00     0.130 C 
HETATM   20  C   UNK N   1      22.864  17.793   5.486  0.00  0.00     0.148 C 
HETATM   21  C   UNK N   1      27.811  15.258   4.857  0.00  0.00     0.132 C 
HETATM   22  C   UNK N   1      23.183  13.061   2.241  0.00  0.00     0.130 C 
HETATM   23  C   UNK N   1      22.077  16.483   3.575  0.00  0.00     0.131 C 
HETATM   24  C   UNK N   1      28.929  13.961   2.811  0.00  0.00     0.162 C 
HETATM   25  C   UNK N   1      20.837  12.262   1.621  0.00  0.00     0.147 C 
HETATM   26  C   UNK N   1      28.052  11.983   1.640  0.00  0.00     0.261 C 
HETATM   27  C   UNK N   1      28.580  17.874   5.754  0.00  0.00     0.224 C 
HETATM   28  C   UNK N   1      26.519  18.747   4.389  0.00  0.00     0.029 C 
HETATM   29  C   UNK N   1      20.471  13.688   2.086  0.00  0.00     0.036 C 
HETATM   30  C   UNK N   1      21.218  13.897   3.449  0.00  0.00     0.173 C 
HETATM   31  C   UNK N   1      27.721  17.724   4.473  0.00  0.00     0.204 C 
HETATM   32  O   UNK N   1      28.602  11.137   0.953  0.00  0.00    -0.265 OA
HETATM   33  O   UNK N   1      21.884  17.617   4.444  0.00  0.00    -0.376 OA
HETATM   34  O   UNK N   1      28.550  13.248   1.674  0.00  0.00    -0.313 OA
HETATM   35  O   UNK N   1      22.562  13.417   3.470  0.00  0.00    -0.349 OA
HETATM   36  O   UNK N   1      27.181  16.408   4.277  0.00  0.00    -0.346 OA
ENDROOT
BRANCH  27  37
HETATM   37  O   UNK N   1      27.831  17.762   6.930  0.00  0.00    -0.303 OA
BRANCH  37  38
HETATM   38  C   UNK N   1      28.254  17.942   8.227  0.00  0.00     0.283 C 
HETATM   39  O   UNK N   1      27.438  18.296   9.061  0.00  0.00    -0.260 OA
BRANCH  38  40
HETATM   40  C   UNK N   1      29.573  17.448   8.693  0.00  0.00     0.082 C 
HETATM   41  C   UNK N   1      30.659  18.228   8.687  0.00  0.00     0.006 C 
BRANCH  41  42
HETATM   42  C   UNK N   1      32.010  17.653   8.820  0.00  0.00    -0.004 C 
HETATM   43  C   UNK N   1      33.063  18.312   8.309  0.00  0.00    -0.027 C 
BRANCH  43  44
HETATM   44  C   UNK N   1      34.420  17.685   8.176  0.00  0.00     0.027 C 
BRANCH  44  45
HETATM   45  C   UNK N   1      34.841  16.849   9.366  0.00  0.00    -0.001 C 
HETATM   46  C   UNK N   1      34.951  15.403   8.921  0.00  0.00     0.005 C 
ENDBRANCH  44  45
ENDBRANCH  43  44
ENDBRANCH  41  42
ENDBRANCH  38  40
ENDBRANCH  37  38
ENDBRANCH  27  37
BRANCH  31  47
HETATM   47  O   UNK N   1      28.580  17.984   3.394  0.00  0.00    -0.362 OA
HETATM   48  H   UNK N   1      28.736  17.894   2.440  0.00  0.00     0.213 HD
ENDBRANCH  31  47
BRANCH  11  49
HETATM   49  C   UNK N   1      32.051  16.164   5.071  0.00  0.00     0.282 C 
HETATM   50  O   UNK N   1      32.500  16.073   3.940  0.00  0.00    -0.260 OA
BRANCH  49  51
HETATM   51  O   UNK N   1      32.680  15.477   6.061  0.00  0.00    -0.323 OA
HETATM   52  C   UNK N   1      32.693  14.108   6.173  0.00  0.00     0.213 C 
ENDBRANCH  49  51
ENDBRANCH  11  49
BRANCH  24  53
HETATM   53  C   UNK N   1      30.192  13.318   3.417  0.00  0.00     0.143 C 
HETATM   54  C   UNK N   1      29.877  12.181   4.379  0.00  0.00     0.042 C 
BRANCH  53  55
HETATM   55  O   UNK N   1      31.021  12.841   2.401  0.00  0.00    -0.393 OA
HETATM   56  H   UNK N   1      31.566  12.046   2.290  0.00  0.00     0.210 HD
ENDBRANCH  53  55
ENDBRANCH  24  53
BRANCH   9  57
HETATM   57  C   UNK N   1      24.951  13.896   6.445  0.00  0.00     0.282 C 
HETATM   58  O   UNK N   1      25.680  14.493   7.207  0.00  0.00    -0.260 OA
BRANCH  57  59
HETATM   59  O   UNK N   1      24.469  12.676   6.812  0.00  0.00    -0.323 OA
HETATM   60  C   UNK N   1      23.134  12.366   6.894  0.00  0.00     0.213 C 
ENDBRANCH  57  59
ENDBRANCH   9  57
BRANCH  19  61
HETATM   61  O   UNK N   1      25.325  11.786   0.437  0.00  0.00    -0.395 OA
HETATM   62  H   UNK N   1      24.968  10.904   0.246  0.00  0.00     0.210 HD
ENDBRANCH  19  61
BRANCH  30  63
HETATM   63  O   UNK N   1      20.551  13.108   4.392  0.00  0.00    -0.364 OA
HETATM   64  H   UNK N   1      19.847  12.796   4.982  0.00  0.00     0.213 HD
ENDBRANCH  30  63
BRANCH  25  65
HETATM   65  O   UNK N   1      20.116  11.854   0.512  0.00  0.00    -0.315 OA
BRANCH  65  66
HETATM   66  C   UNK N   1      19.430  10.677   0.469  0.00  0.00     0.255 C 
HETATM   67  C   UNK N   1      18.237  10.552  -0.410  0.00  0.00     0.126 C 
HETATM   68  O   UNK N   1      19.777   9.720   1.147  0.00  0.00    -0.266 OA
ENDBRANCH  65  66
ENDBRANCH  25  65
TORSDOF 17
ENDMDL
MODEL 2
REMARK VINA RESULT:      -7.0      2.534      9.442
REMARK  17 active torsions:
REMARK  status: ('A' for Active; 'I' for Inactive)
REMARK    1  A    between atoms: C_11  and  C_10 
REMARK    2  A    between atoms: C_12  and  C_11 
REMARK    3  A    between atoms: C_14  and  C_13 
REMARK    4  A    between atoms: C_39  and  C_15 
REMARK    5  A    between atoms: C_40  and  C_20 
REMARK    6  A    between atoms: C_41  and  C_22 
REMARK    7  A    between atoms: C_37  and  C_28 
REMARK    8  A    between atoms: C_28  and  O_48 
REMARK    9  A    between atoms: O_59  and  C_29 
REMARK   10  A    between atoms: C_32  and  O_50 
REMARK   11  A    between atoms: C_38  and  O_59 
REMARK   12  A    between atoms: O_62  and  C_39 
REMARK   13  A    between atoms: O_57  and  C_40 
REMARK   14  A    between atoms: O_58  and  C_41 
REMARK   15  A    between atoms: C_43  and  O_62 
REMARK   16  A    between atoms: C_46  and  O_55 
REMARK   17  A    between atoms: C_47  and  O_56 
ROOT
HETATM    1  C   UNK N   1      24.043  12.759  -0.057  0.00  0.00     0.025 C 
HETATM    2  C   UNK N   1      21.878  11.642   0.268  0.00  0.00     0.025 C 
HETATM    3  C   UNK N   1      31.907  10.937   3.197  0.00  0.00     0.023 C 
HETATM    4  C   UNK N   1      30.709  12.372   1.608  0.00  0.00     0.023 C 
HETATM    5  C   UNK N   1      24.635  10.482   1.569  0.00  0.00     0.002 C 
HETATM    6  C   UNK N   1      23.710  11.397   1.967  0.00  0.00    -0.014 C 
HETATM    7  C   UNK N   1      25.630  10.561   3.916  0.00  0.00     0.070 C 
HETATM    8  C   UNK N   1      26.886  12.211   2.400  0.00  0.00     0.066 C 
HETATM    9  C   UNK N   1      26.052  12.960   4.572  0.00  0.00     0.085 C 
HETATM   10  C   UNK N   1      22.041  15.266   4.166  0.00  0.00     0.069 C 
HETATM   11  C   UNK N   1      20.111  15.737   2.671  0.00  0.00     0.087 C 
HETATM   12  C   UNK N   1      28.503  15.315   4.399  0.00  0.00     0.064 C 
HETATM   13  C   UNK N   1      27.146  17.366   4.544  0.00  0.00     0.142 C 
HETATM   14  C   UNK N   1      24.515  15.976   3.866  0.00  0.00     0.067 C 
HETATM   15  C   UNK N   1      30.657  14.571   3.538  0.00  0.00     0.065 C 
HETATM   16  C   UNK N   1      28.749  10.704   3.290  0.00  0.00     0.101 C 
HETATM   17  C   UNK N   1      26.152  11.960   3.684  0.00  0.00    -0.069 C 
HETATM   18  C   UNK N   1      21.045  14.878   3.152  0.00  0.00    -0.037 C 
HETATM   19  C   UNK N   1      28.002  16.515   3.613  0.00  0.00     0.130 C 
HETATM   20  C   UNK N   1      25.611   9.828   2.553  0.00  0.00     0.148 C 
HETATM   21  C   UNK N   1      23.459  14.851   3.753  0.00  0.00     0.132 C 
HETATM   22  C   UNK N   1      29.174  14.220   3.572  0.00  0.00     0.130 C 
HETATM   23  C   UNK N   1      27.739  10.964   2.140  0.00  0.00     0.131 C 
HETATM   24  C   UNK N   1      24.245  17.335   3.183  0.00  0.00     0.162 C 
HETATM   25  C   UNK N   1      31.578  13.376   3.760  0.00  0.00     0.147 C 
HETATM   26  C   UNK N   1      26.388  18.395   3.768  0.00  0.00     0.261 C 
HETATM   27  C   UNK N   1      21.234  13.515   2.526  0.00  0.00     0.224 C 
HETATM   28  C   UNK N   1      23.015  12.342   1.001  0.00  0.00     0.029 C 
HETATM   29  C   UNK N   1      30.955  12.128   3.096  0.00  0.00     0.036 C 
HETATM   30  C   UNK N   1      29.639  11.833   3.895  0.00  0.00     0.173 C 
HETATM   31  C   UNK N   1      22.566  13.662   1.747  0.00  0.00     0.204 C 
HETATM   32  O   UNK N   1      26.713  19.567   3.861  0.00  0.00    -0.265 OA
HETATM   33  O   UNK N   1      26.927   9.787   1.965  0.00  0.00    -0.376 OA
HETATM   34  O   UNK N   1      25.414  18.036   2.888  0.00  0.00    -0.313 OA
HETATM   35  O   UNK N   1      28.862  12.989   4.211  0.00  0.00    -0.349 OA
HETATM   36  O   UNK N   1      23.672  14.101   2.549  0.00  0.00    -0.346 OA
ENDROOT
BRANCH  27  37
HETATM   37  O   UNK N   1      21.261  12.474   3.461  0.00  0.00    -0.303 OA
BRANCH  37  38
HETATM   38  C   UNK N   1      20.326  12.175   4.425  0.00  0.00     0.283 C 
HETATM   39  O   UNK N   1      19.178  11.954   4.073  0.00  0.00    -0.260 OA
BRANCH  38  40
HETATM   40  C   UNK N   1      20.718  11.830   5.814  0.00  0.00     0.082 C 
HETATM   41  C   UNK N   1      20.917  12.771   6.743  0.00  0.00     0.006 C 
BRANCH  41  42
HETATM   42  C   UNK N   1      21.625  12.463   7.998  0.00  0.00    -0.004 C 
HETATM   43  C   UNK N   1      22.432  13.386   8.546  0.00  0.00    -0.027 C 
BRANCH  43  44
HETATM   44  C   UNK N   1      23.377  13.067   9.669  0.00  0.00     0.027 C 
BRANCH  44  45
HETATM   45  C   UNK N   1      23.132  11.727  10.330  0.00  0.00    -0.001 C 
HETATM   46  C   UNK N   1      22.704  11.972  11.764  0.00  0.00     0.005 C 
ENDBRANCH  44  45
ENDBRANCH  43  44
ENDBRANCH  41  42
ENDBRANCH  38  40
ENDBRANCH  37  38
ENDBRANCH  27  37
BRANCH  31  47
HETATM   47  O   UNK N   1      22.342  14.648   0.774  0.00  0.00    -0.362 OA
HETATM   48  H   UNK N   1      22.644  15.480   0.376  0.00  0.00     0.213 HD
ENDBRANCH  31  47
BRANCH  11  49
HETATM   49  C   UNK N   1      19.811  17.123   3.148  0.00  0.00     0.282 C 
HETATM   50  O   UNK N   1      19.222  17.238   4.211  0.00  0.00    -0.260 OA
BRANCH  49  51
HETATM   51  O   UNK N   1      20.226  18.259   2.527  0.00  0.00    -0.323 OA
HETATM   52  C   UNK N   1      19.940  19.532   2.958  0.00  0.00     0.213 C 
ENDBRANCH  49  51
ENDBRANCH  11  49
BRANCH  24  53
HETATM   53  C   UNK N   1      23.317  18.228   4.031  0.00  0.00     0.143 C 
HETATM   54  C   UNK N   1      23.550  18.076   5.527  0.00  0.00     0.042 C 
BRANCH  53  55
HETATM   55  O   UNK N   1      23.486  19.567   3.676  0.00  0.00    -0.393 OA
HETATM   56  H   UNK N   1      24.104  20.265   3.943  0.00  0.00     0.210 HD
ENDBRANCH  53  55
ENDBRANCH  24  53
BRANCH   9  57
HETATM   57  C   UNK N   1      25.419  12.844   5.918  0.00  0.00     0.282 C 
HETATM   58  O   UNK N   1      24.476  12.104   6.089  0.00  0.00    -0.260 OA
BRANCH  57  59
HETATM   59  O   UNK N   1      25.882  13.576   6.970  0.00  0.00    -0.323 OA
HETATM   60  C   UNK N   1      25.709  14.931   7.104  0.00  0.00     0.213 C 
ENDBRANCH  57  59
ENDBRANCH   9  57
BRANCH  19  61
HETATM   61  O   UNK N   1      29.077  17.264   3.130  0.00  0.00    -0.395 OA
HETATM   62  H   UNK N   1      29.676  17.044   2.399  0.00  0.00     0.210 HD
ENDBRANCH  19  61
BRANCH  30  63
HETATM   63  O   UNK N   1      30.034  11.329   5.139  0.00  0.00    -0.364 OA
HETATM   64  H   UNK N   1      30.171  11.278   6.098  0.00  0.00     0.213 HD
ENDBRANCH  30  63
BRANCH  25  65
HETATM   65  O   UNK N   1      32.843  13.668   3.280  0.00  0.00    -0.315 OA
BRANCH  65  66
HETATM   66  C   UNK N   1      33.399  14.909   3.369  0.00  0.00     0.255 C 
HETATM   67  C   UNK N   1      33.891  15.403   4.682  0.00  0.00     0.126 C 
HETATM   68  O   UNK N   1      33.496  15.628   2.384  0.00  0.00    -0.266 OA
ENDBRANCH  65  66
ENDBRANCH  25  65
TORSDOF 17
ENDMDL
MODEL 3
REMARK VINA RESULT:      -6.9      2.638      9.295
REMARK  17 active torsions:
REMARK  status: ('A' for Active; 'I' for Inactive)
REMARK    1  A    between atoms: C_11  and  C_10 
REMARK    2  A    between atoms: C_12  and  C_11 
REMARK    3  A    between atoms: C_14  and  C_13 
REMARK    4  A    between atoms: C_39  and  C_15 
REMARK    5  A    between atoms: C_40  and  C_20 
REMARK    6  A    between atoms: C_41  and  C_22 
REMARK    7  A    between atoms: C_37  and  C_28 
REMARK    8  A    between atoms: C_28  and  O_48 
REMARK    9  A    between atoms: O_59  and  C_29 
REMARK   10  A    between atoms: C_32  and  O_50 
REMARK   11  A    between atoms: C_38  and  O_59 
REMARK   12  A    between atoms: O_62  and  C_39 
REMARK   13  A    between atoms: O_57  and  C_40 
REMARK   14  A    between atoms: O_58  and  C_41 
REMARK   15  A    between atoms: C_43  and  O_62 
REMARK   16  A    between atoms: C_46  and  O_55 
REMARK   17  A    between atoms: C_47  and  O_56 
ROOT
HETATM    1  C   UNK N   1      23.159  14.080   7.837  0.00  0.00     0.025 C 
HETATM    2  C   UNK N   1      20.798  14.586   7.382  0.00  0.00     0.025 C 
HETATM    3  C   UNK N   1      30.436  17.625   4.638  0.00  0.00     0.023 C 
HETATM    4  C   UNK N   1      29.575  16.039   6.300  0.00  0.00     0.023 C 
HETATM    5  C   UNK N   1      23.224  16.322   6.063  0.00  0.00     0.002 C 
HETATM    6  C   UNK N   1      22.577  15.178   5.711  0.00  0.00    -0.014 C 
HETATM    7  C   UNK N   1      24.302  16.346   3.751  0.00  0.00     0.070 C 
HETATM    8  C   UNK N   1      25.870  15.172   5.411  0.00  0.00     0.066 C 
HETATM    9  C   UNK N   1      25.340  14.096   3.281  0.00  0.00     0.085 C 
HETATM   10  C   UNK N   1      22.026  10.878   3.764  0.00  0.00     0.069 C 
HETATM   11  C   UNK N   1      20.218  10.030   5.245  0.00  0.00     0.087 C 
HETATM   12  C   UNK N   1      28.296  12.457   3.681  0.00  0.00     0.064 C 
HETATM   13  C   UNK N   1      27.506  10.124   3.656  0.00  0.00     0.142 C 
HETATM   14  C   UNK N   1      24.585  10.841   4.171  0.00  0.00     0.067 C 
HETATM   15  C   UNK N   1      30.157  13.778   4.535  0.00  0.00     0.065 C 
HETATM   16  C   UNK N   1      27.328  17.042   4.456  0.00  0.00     0.101 C 
HETATM   17  C   UNK N   1      25.149  15.144   4.096  0.00  0.00    -0.069 C 
HETATM   18  C   UNK N   1      20.924  11.065   4.724  0.00  0.00    -0.037 C 
HETATM   19  C   UNK N   1      28.082  11.223   4.542  0.00  0.00     0.130 C 
HETATM   20  C   UNK N   1      24.043  17.137   5.056  0.00  0.00     0.148 C 
HETATM   21  C   UNK N   1      23.276  11.666   4.177  0.00  0.00     0.132 C 
HETATM   22  C   UNK N   1      28.636  13.738   4.442  0.00  0.00     0.130 C 
HETATM   23  C   UNK N   1      26.370  16.609   5.599  0.00  0.00     0.131 C 
HETATM   24  C   UNK N   1      24.639   9.505   4.945  0.00  0.00     0.162 C 
HETATM   25  C   UNK N   1      30.755  15.151   4.247  0.00  0.00     0.147 C 
HETATM   26  C   UNK N   1      27.001   8.989   4.487  0.00  0.00     0.261 C 
HETATM   27  C   UNK N   1      20.739  12.469   5.252  0.00  0.00     0.224 C 
HETATM   28  C   UNK N   1      22.103  14.152   6.728  0.00  0.00     0.029 C 
HETATM   29  C   UNK N   1      29.811  16.240   4.804  0.00  0.00     0.036 C 
HETATM   30  C   UNK N   1      28.497  16.138   3.955  0.00  0.00     0.173 C 
HETATM   31  C   UNK N   1      22.032  12.717   6.071  0.00  0.00     0.204 C 
HETATM   32  O   UNK N   1      27.615   7.934   4.488  0.00  0.00    -0.265 OA
HETATM   33  O   UNK N   1      25.281  17.550   5.669  0.00  0.00    -0.376 OA
HETATM   34  O   UNK N   1      25.933   9.144   5.317  0.00  0.00    -0.313 OA
HETATM   35  O   UNK N   1      28.050  14.805   3.708  0.00  0.00    -0.349 OA
HETATM   36  O   UNK N   1      23.244  12.521   5.328  0.00  0.00    -0.346 OA
ENDROOT
BRANCH  27  37
HETATM   37  O   UNK N   1      20.540  13.420   4.245  0.00  0.00    -0.303 OA
BRANCH  37  38
HETATM   38  C   UNK N   1      19.436  14.213   4.033  0.00  0.00     0.283 C 
HETATM   39  O   UNK N   1      18.350  13.813   4.420  0.00  0.00    -0.260 OA
BRANCH  38  40
HETATM   40  C   UNK N   1      19.563  15.635   3.626  0.00  0.00     0.082 C 
HETATM   41  C   UNK N   1      20.528  16.046   2.798  0.00  0.00     0.006 C 
BRANCH  41  42
HETATM   42  C   UNK N   1      20.860  17.476   2.666  0.00  0.00    -0.004 C 
HETATM   43  C   UNK N   1      20.824  18.266   3.752  0.00  0.00    -0.027 C 
BRANCH  43  44
HETATM   44  C   UNK N   1      20.896  19.763   3.664  0.00  0.00     0.027 C 
BRANCH  44  45
HETATM   45  C   UNK N   1      21.807  20.281   2.571  0.00  0.00    -0.001 C 
HETATM   46  C   UNK N   1      23.239  20.196   3.063  0.00  0.00     0.005 C 
ENDBRANCH  44  45
ENDBRANCH  43  44
ENDBRANCH  41  42
ENDBRANCH  38  40
ENDBRANCH  37  38
ENDBRANCH  27  37
BRANCH  31  47
HETATM   47  O   UNK N   1      22.024  11.771   7.108  0.00  0.00    -0.362 OA
HETATM   48  H   UNK N   1      22.168  10.847   7.365  0.00  0.00     0.213 HD
ENDBRANCH  31  47
BRANCH  11  49
HETATM   49  C   UNK N   1      20.296   8.585   4.863  0.00  0.00     0.282 C 
HETATM   50  O   UNK N   1      20.750   7.809   5.689  0.00  0.00    -0.260 OA
BRANCH  49  51
HETATM   51  O   UNK N   1      19.816   8.068   3.701  0.00  0.00    -0.323 OA
HETATM   52  C   UNK N   1      20.572   7.377   2.784  0.00  0.00     0.213 C 
ENDBRANCH  49  51
ENDBRANCH  11  49
BRANCH  24  53
HETATM   53  C   UNK N   1      24.000   8.352   4.144  0.00  0.00     0.143 C 
HETATM   54  C   UNK N   1      24.303   8.425   2.654  0.00  0.00     0.042 C 
BRANCH  53  55
HETATM   55  O   UNK N   1      24.438   7.124   4.640  0.00  0.00    -0.393 OA
HETATM   56  H   UNK N   1      24.719   6.808   5.514  0.00  0.00     0.210 HD
ENDBRANCH  53  55
ENDBRANCH  24  53
BRANCH   9  57
HETATM   57  C   UNK N   1      24.754  13.959   1.917  0.00  0.00     0.282 C 
HETATM   58  O   UNK N   1      25.341  14.396   0.952  0.00  0.00    -0.260 OA
BRANCH  57  59
HETATM   59  O   UNK N   1      23.546  13.354   1.736  0.00  0.00    -0.323 OA
HETATM   60  C   UNK N   1      22.612  13.756   0.814  0.00  0.00     0.213 C 
ENDBRANCH  57  59
ENDBRANCH   9  57
BRANCH  19  61
HETATM   61  O   UNK N   1      29.291  10.804   5.102  0.00  0.00    -0.395 OA
HETATM   62  H   UNK N   1      29.470   9.981   5.583  0.00  0.00     0.210 HD
ENDBRANCH  19  61
BRANCH  30  63
HETATM   63  O   UNK N   1      28.802  16.645   2.688  0.00  0.00    -0.364 OA
HETATM   64  H   UNK N   1      29.275  16.778   1.851  0.00  0.00     0.213 HD
ENDBRANCH  30  63
BRANCH  25  65
HETATM   65  O   UNK N   1      32.033  15.222   4.775  0.00  0.00    -0.315 OA
BRANCH  65  66
HETATM   66  C   UNK N   1      33.155  15.150   4.006  0.00  0.00     0.255 C 
HETATM   67  C   UNK N   1      33.311  16.062   2.843  0.00  0.00     0.126 C 
HETATM   68  O   UNK N   1      34.038  14.340   4.255  0.00  0.00    -0.266 OA
ENDBRANCH  65  66
ENDBRANCH  25  65
TORSDOF 17
ENDMDL
MODEL 4
REMARK VINA RESULT:      -6.5     12.655     17.146
REMARK  17 active torsions:
REMARK  status: ('A' for Active; 'I' for Inactive)
REMARK    1  A    between atoms: C_11  and  C_10 
REMARK    2  A    between atoms: C_12  and  C_11 
REMARK    3  A    between atoms: C_14  and  C_13 
REMARK    4  A    between atoms: C_39  and  C_15 
REMARK    5  A    between atoms: C_40  and  C_20 
REMARK    6  A    between atoms: C_41  and  C_22 
REMARK    7  A    between atoms: C_37  and  C_28 
REMARK    8  A    between atoms: C_28  and  O_48 
REMARK    9  A    between atoms: O_59  and  C_29 
REMARK   10  A    between atoms: C_32  and  O_50 
REMARK   11  A    between atoms: C_38  and  O_59 
REMARK   12  A    between atoms: O_62  and  C_39 
REMARK   13  A    between atoms: O_57  and  C_40 
REMARK   14  A    between atoms: O_58  and  C_41 
REMARK   15  A    between atoms: C_43  and  O_62 
REMARK   16  A    between atoms: C_46  and  O_55 
REMARK   17  A    between atoms: C_47  and  O_56 
ROOT
HETATM    1  C   UNK N   1      29.961  23.282  -9.637  0.00  0.00     0.025 C 
HETATM    2  C   UNK N   1      27.529  23.522  -9.376  0.00  0.00     0.025 C 
HETATM    3  C   UNK N   1      35.598  17.990  -5.642  0.00  0.00     0.023 C 
HETATM    4  C   UNK N   1      35.372  19.641  -7.442  0.00  0.00     0.023 C 
HETATM    5  C   UNK N   1      29.225  21.246  -7.769  0.00  0.00     0.002 C 
HETATM    6  C   UNK N   1      28.923  22.550  -7.527  0.00  0.00    -0.014 C 
HETATM    7  C   UNK N   1      30.073  21.065  -5.371  0.00  0.00     0.070 C 
HETATM    8  C   UNK N   1      32.037  21.613  -6.931  0.00  0.00     0.066 C 
HETATM    9  C   UNK N   1      31.696  22.939  -4.906  0.00  0.00     0.085 C 
HETATM   10  C   UNK N   1      29.533  26.946  -5.825  0.00  0.00     0.069 C 
HETATM   11  C   UNK N   1      28.174  28.183  -7.499  0.00  0.00     0.087 C 
HETATM   12  C   UNK N   1      35.027  23.610  -5.107  0.00  0.00     0.064 C 
HETATM   13  C   UNK N   1      34.967  26.068  -5.254  0.00  0.00     0.142 C 
HETATM   14  C   UNK N   1      32.010  26.204  -6.000  0.00  0.00     0.067 C 
HETATM   15  C   UNK N   1      36.468  21.748  -5.731  0.00  0.00     0.065 C 
HETATM   16  C   UNK N   1      32.799  19.468  -5.768  0.00  0.00     0.101 C 
HETATM   17  C   UNK N   1      31.262  21.940  -5.689  0.00  0.00    -0.069 C 
HETATM   18  C   UNK N   1      28.499  27.024  -6.872  0.00  0.00    -0.037 C 
HETATM   19  C   UNK N   1      35.253  24.791  -6.036  0.00  0.00     0.130 C 
HETATM   20  C   UNK N   1      29.688  20.297  -6.658  0.00  0.00     0.148 C 
HETATM   21  C   UNK N   1      30.519  25.800  -6.089  0.00  0.00     0.132 C 
HETATM   22  C   UNK N   1      35.025  22.237  -5.778  0.00  0.00     0.130 C 
HETATM   23  C   UNK N   1      32.100  20.084  -7.010  0.00  0.00     0.131 C 
HETATM   24  C   UNK N   1      32.516  27.411  -6.823  0.00  0.00     0.162 C 
HETATM   25  C   UNK N   1      36.608  20.282  -5.331  0.00  0.00     0.147 C 
HETATM   26  C   UNK N   1      34.884  27.243  -6.176  0.00  0.00     0.261 C 
HETATM   27  C   UNK N   1      27.945  25.703  -7.354  0.00  0.00     0.224 C 
HETATM   28  C   UNK N   1      28.852  23.598  -8.627  0.00  0.00     0.029 C 
HETATM   29  C   UNK N   1      35.427  19.482  -5.923  0.00  0.00     0.036 C 
HETATM   30  C   UNK N   1      34.144  20.021  -5.203  0.00  0.00     0.173 C 
HETATM   31  C   UNK N   1      29.162  25.033  -8.041  0.00  0.00     0.204 C 
HETATM   32  O   UNK N   1      35.782  28.068  -6.166  0.00  0.00    -0.265 OA
HETATM   33  O   UNK N   1      30.789  19.500  -7.138  0.00  0.00    -0.376 OA
HETATM   34  O   UNK N   1      33.883  27.350  -7.092  0.00  0.00    -0.313 OA
HETATM   35  O   UNK N   1      34.096  21.441  -5.054  0.00  0.00    -0.349 OA
HETATM   36  O   UNK N   1      30.320  24.915  -7.200  0.00  0.00    -0.346 OA
ENDROOT
BRANCH  27  37
HETATM   37  O   UNK N   1      27.398  24.923  -6.329  0.00  0.00    -0.303 OA
BRANCH  37  38
HETATM   38  C   UNK N   1      26.231  25.134  -5.632  0.00  0.00     0.283 C 
HETATM   39  O   UNK N   1      25.277  24.410  -5.865  0.00  0.00    -0.260 OA
BRANCH  38  40
HETATM   40  C   UNK N   1      26.185  25.999  -4.428  0.00  0.00     0.082 C 
HETATM   41  C   UNK N   1      25.758  27.265  -4.487  0.00  0.00     0.006 C 
BRANCH  41  42
HETATM   42  C   UNK N   1      26.029  28.212  -3.390  0.00  0.00    -0.004 C 
HETATM   43  C   UNK N   1      26.641  29.377  -3.658  0.00  0.00    -0.027 C 
BRANCH  43  44
HETATM   44  C   UNK N   1      27.178  30.273  -2.579  0.00  0.00     0.027 C 
BRANCH  44  45
HETATM   45  C   UNK N   1      28.450  29.771  -1.928  0.00  0.00    -0.001 C 
HETATM   46  C   UNK N   1      28.337  29.987  -0.431  0.00  0.00     0.005 C 
ENDBRANCH  44  45
ENDBRANCH  43  44
ENDBRANCH  41  42
ENDBRANCH  38  40
ENDBRANCH  37  38
ENDBRANCH  27  37
BRANCH  31  47
HETATM   47  O   UNK N   1      29.513  25.867  -9.114  0.00  0.00    -0.362 OA
HETATM   48  H   UNK N   1      29.946  26.687  -9.397  0.00  0.00     0.213 HD
ENDBRANCH  31  47
BRANCH  11  49
HETATM   49  C   UNK N   1      28.649  29.564  -7.175  0.00  0.00     0.282 C 
HETATM   50  O   UNK N   1      28.257  30.064  -6.133  0.00  0.00    -0.260 OA
BRANCH  49  51
HETATM   51  O   UNK N   1      29.554  30.260  -7.913  0.00  0.00    -0.323 OA
HETATM   52  C   UNK N   1      30.163  29.786  -9.050  0.00  0.00     0.213 C 
ENDBRANCH  49  51
ENDBRANCH  11  49
BRANCH  24  53
HETATM   53  C   UNK N   1      32.192  28.751  -6.134  0.00  0.00     0.143 C 
HETATM   54  C   UNK N   1      32.351  28.695  -4.621  0.00  0.00     0.042 C 
BRANCH  53  55
HETATM   55  O   UNK N   1      33.009  29.761  -6.643  0.00  0.00    -0.393 OA
HETATM   56  H   UNK N   1      33.357  29.970  -7.524  0.00  0.00     0.210 HD
ENDBRANCH  53  55
ENDBRANCH  24  53
BRANCH   9  57
HETATM   57  C   UNK N   1      31.078  23.334  -3.608  0.00  0.00     0.282 C 
HETATM   58  O   UNK N   1      31.555  22.953  -2.562  0.00  0.00    -0.260 OA
BRANCH  57  59
HETATM   59  O   UNK N   1      29.963  24.117  -3.577  0.00  0.00    -0.323 OA
HETATM   60  C   UNK N   1      28.752  23.718  -3.066  0.00  0.00     0.213 C 
ENDBRANCH  57  59
ENDBRANCH   9  57
BRANCH  19  61
HETATM   61  O   UNK N   1      36.569  24.799  -6.502  0.00  0.00    -0.395 OA
HETATM   62  H   UNK N   1      37.013  24.128  -7.044  0.00  0.00     0.210 HD
ENDBRANCH  19  61
BRANCH  30  63
HETATM   63  O   UNK N   1      34.190  19.535  -3.892  0.00  0.00    -0.364 OA
HETATM   64  H   UNK N   1      34.546  19.142  -3.080  0.00  0.00     0.213 HD
ENDBRANCH  30  63
BRANCH  25  65
HETATM   65  O   UNK N   1      37.842  19.805  -5.738  0.00  0.00    -0.315 OA
BRANCH  65  66
HETATM   66  C   UNK N   1      38.927  19.765  -4.914  0.00  0.00     0.255 C 
HETATM   67  C   UNK N   1      40.267  19.451  -5.476  0.00  0.00     0.126 C 
HETATM   68  O   UNK N   1      38.816  19.979  -3.715  0.00  0.00    -0.266 OA
ENDBRANCH  65  66
ENDBRANCH  25  65
TORSDOF 17
ENDMDL
MODEL 5
REMARK VINA RESULT:      -6.5      6.105     11.401
REMARK  17 active torsions:
REMARK  status: ('A' for Active; 'I' for Inactive)
REMARK    1  A    between atoms: C_11  and  C_10 
REMARK    2  A    between atoms: C_12  and  C_11 
REMARK    3  A    between atoms: C_14  and  C_13 
REMARK    4  A    between atoms: C_39  and  C_15 
REMARK    5  A    between atoms: C_40  and  C_20 
REMARK    6  A    between atoms: C_41  and  C_22 
REMARK    7  A    between atoms: C_37  and  C_28 
REMARK    8  A    between atoms: C_28  and  O_48 
REMARK    9  A    between atoms: O_59  and  C_29 
REMARK   10  A    between atoms: C_32  and  O_50 
REMARK   11  A    between atoms: C_38  and  O_59 
REMARK   12  A    between atoms: O_62  and  C_39 
REMARK   13  A    between atoms: O_57  and  C_40 
REMARK   14  A    between atoms: O_58  and  C_41 
REMARK   15  A    between atoms: C_43  and  O_62 
REMARK   16  A    between atoms: C_46  and  O_55 
REMARK   17  A    between atoms: C_47  and  O_56 
ROOT
HETATM    1  C   UNK N   1      38.607  13.272   7.483  0.00  0.00     0.025 C 
HETATM    2  C   UNK N   1      39.919  11.937   9.075  0.00  0.00     0.025 C 
HETATM    3  C   UNK N   1      31.524  18.184   8.687  0.00  0.00     0.023 C 
HETATM    4  C   UNK N   1      33.227  17.539   7.043  0.00  0.00     0.023 C 
HETATM    5  C   UNK N   1      37.408  13.787  10.028  0.00  0.00     0.002 C 
HETATM    6  C   UNK N   1      37.525  12.515   9.560  0.00  0.00    -0.014 C 
HETATM    7  C   UNK N   1      34.990  13.267  10.653  0.00  0.00     0.070 C 
HETATM    8  C   UNK N   1      35.057  14.331   8.316  0.00  0.00     0.066 C 
HETATM    9  C   UNK N   1      33.803  12.262   8.667  0.00  0.00     0.085 C 
HETATM   10  C   UNK N   1      36.222   8.539   7.306  0.00  0.00     0.069 C 
HETATM   11  C   UNK N   1      38.483   7.689   6.718  0.00  0.00     0.087 C 
HETATM   12  C   UNK N   1      31.976  13.228   5.963  0.00  0.00     0.064 C 
HETATM   13  C   UNK N   1      32.356  11.303   4.472  0.00  0.00     0.142 C 
HETATM   14  C   UNK N   1      34.769  10.258   6.021  0.00  0.00     0.067 C 
HETATM   15  C   UNK N   1      31.407  15.593   5.831  0.00  0.00     0.065 C 
HETATM   16  C   UNK N   1      33.479  15.870   9.612  0.00  0.00     0.101 C 
HETATM   17  C   UNK N   1      34.590  13.210   9.197  0.00  0.00    -0.069 C 
HETATM   18  C   UNK N   1      37.685   8.484   7.474  0.00  0.00    -0.037 C 
HETATM   19  C   UNK N   1      32.674  12.778   4.690  0.00  0.00     0.130 C 
HETATM   20  C   UNK N   1      36.165  14.267  10.785  0.00  0.00     0.148 C 
HETATM   21  C   UNK N   1      35.717   9.985   7.213  0.00  0.00     0.132 C 
HETATM   22  C   UNK N   1      32.376  14.609   6.478  0.00  0.00     0.130 C 
HETATM   23  C   UNK N   1      34.939  15.612   9.149  0.00  0.00     0.131 C 
HETATM   24  C   UNK N   1      35.215   9.861   4.595  0.00  0.00     0.162 C 
HETATM   25  C   UNK N   1      30.873  16.651   6.791  0.00  0.00     0.147 C 
HETATM   26  C   UNK N   1      33.238  10.725   3.412  0.00  0.00     0.261 C 
HETATM   27  C   UNK N   1      38.281   9.509   8.412  0.00  0.00     0.224 C 
HETATM   28  C   UNK N   1      38.526  12.118   8.488  0.00  0.00     0.029 C 
HETATM   29  C   UNK N   1      31.988  17.041   7.785  0.00  0.00     0.036 C 
HETATM   30  C   UNK N   1      32.262  15.758   8.643  0.00  0.00     0.173 C 
HETATM   31  C   UNK N   1      38.009  10.854   7.691  0.00  0.00     0.204 C 
HETATM   32  O   UNK N   1      32.755  10.443   2.328  0.00  0.00    -0.265 OA
HETATM   33  O   UNK N   1      35.791  15.576  10.311  0.00  0.00    -0.376 OA
HETATM   34  O   UNK N   1      34.580  10.605   3.601  0.00  0.00    -0.313 OA
HETATM   35  O   UNK N   1      32.306  14.541   7.897  0.00  0.00    -0.349 OA
HETATM   36  O   UNK N   1      36.628  11.081   7.371  0.00  0.00    -0.346 OA
ENDROOT
BRANCH  27  37
HETATM   37  O   UNK N   1      37.741   9.461   9.702  0.00  0.00    -0.303 OA
BRANCH  37  38
HETATM   38  C   UNK N   1      38.392   9.196  10.885  0.00  0.00     0.283 C 
HETATM   39  O   UNK N   1      39.495   8.677  10.837  0.00  0.00    -0.260 OA
BRANCH  38  40
HETATM   40  C   UNK N   1      37.937   9.775  12.173  0.00  0.00     0.082 C 
HETATM   41  C   UNK N   1      36.672  10.165  12.362  0.00  0.00     0.006 C 
BRANCH  41  42
HETATM   42  C   UNK N   1      36.305  11.037  13.492  0.00  0.00    -0.004 C 
HETATM   43  C   UNK N   1      37.028  12.142  13.736  0.00  0.00    -0.027 C 
BRANCH  43  44
HETATM   44  C   UNK N   1      36.884  12.938  15.002  0.00  0.00     0.027 C 
BRANCH  44  45
HETATM   45  C   UNK N   1      35.480  13.436  15.270  0.00  0.00    -0.001 C 
HETATM   46  C   UNK N   1      35.103  13.062  16.691  0.00  0.00     0.005 C 
ENDBRANCH  44  45
ENDBRANCH  43  44
ENDBRANCH  41  42
ENDBRANCH  38  40
ENDBRANCH  37  38
ENDBRANCH  27  37
BRANCH  31  47
HETATM   47  O   UNK N   1      38.712  10.796   6.478  0.00  0.00    -0.362 OA
HETATM   48  H   UNK N   1      38.668  10.854   5.511  0.00  0.00     0.213 HD
ENDBRANCH  31  47
BRANCH  11  49
HETATM   49  C   UNK N   1      38.065   6.650   5.726  0.00  0.00     0.282 C 
HETATM   50  O   UNK N   1      38.265   6.887   4.545  0.00  0.00    -0.260 OA
BRANCH  49  51
HETATM   51  O   UNK N   1      37.563   5.430   6.053  0.00  0.00    -0.323 OA
HETATM   52  C   UNK N   1      36.256   5.048   5.861  0.00  0.00     0.213 C 
ENDBRANCH  49  51
ENDBRANCH  11  49
BRANCH  24  53
HETATM   53  C   UNK N   1      34.998   8.359   4.324  0.00  0.00     0.143 C 
HETATM   54  C   UNK N   1      33.713   7.824   4.939  0.00  0.00     0.042 C 
BRANCH  53  55
HETATM   55  O   UNK N   1      34.982   8.118   2.949  0.00  0.00    -0.393 OA
HETATM   56  H   UNK N   1      34.877   7.324   2.403  0.00  0.00     0.210 HD
ENDBRANCH  53  55
ENDBRANCH  24  53
BRANCH   9  57
HETATM   57  C   UNK N   1      33.202  11.130   9.429  0.00  0.00     0.282 C 
HETATM   58  O   UNK N   1      32.002  10.966   9.437  0.00  0.00    -0.260 OA
BRANCH  57  59
HETATM   59  O   UNK N   1      33.989  10.270  10.135  0.00  0.00    -0.323 OA
HETATM   60  C   UNK N   1      33.575   9.045  10.596  0.00  0.00     0.213 C 
ENDBRANCH  57  59
ENDBRANCH   9  57
BRANCH  19  61
HETATM   61  O   UNK N   1      32.232  13.530   3.600  0.00  0.00    -0.395 OA
HETATM   62  H   UNK N   1      32.209  13.268   2.666  0.00  0.00     0.210 HD
ENDBRANCH  19  61
BRANCH  30  63
HETATM   63  O   UNK N   1      31.161  15.605   9.493  0.00  0.00    -0.364 OA
HETATM   64  H   UNK N   1      30.578  15.734  10.257  0.00  0.00     0.213 HD
ENDBRANCH  30  63
BRANCH  25  65
HETATM   65  O   UNK N   1      30.389  17.730   6.071  0.00  0.00    -0.315 OA
BRANCH  65  66
HETATM   66  C   UNK N   1      29.059  17.952   5.877  0.00  0.00     0.255 C 
HETATM   67  C   UNK N   1      28.068  17.359   6.813  0.00  0.00     0.126 C 
HETATM   68  O   UNK N   1      28.664  18.631   4.938  0.00  0.00    -0.266 OA
ENDBRANCH  65  66
ENDBRANCH  25  65
TORSDOF 17
ENDMDL
MODEL 6
REMARK VINA RESULT:      -6.4      6.426     13.983
REMARK  17 active torsions:
REMARK  status: ('A' for Active; 'I' for Inactive)
REMARK    1  A    between atoms: C_11  and  C_10 
REMARK    2  A    between atoms: C_12  and  C_11 
REMARK    3  A    between atoms: C_14  and  C_13 
REMARK    4  A    between atoms: C_39  and  C_15 
REMARK    5  A    between atoms: C_40  and  C_20 
REMARK    6  A    between atoms: C_41  and  C_22 
REMARK    7  A    between atoms: C_37  and  C_28 
REMARK    8  A    between atoms: C_28  and  O_48 
REMARK    9  A    between atoms: O_59  and  C_29 
REMARK   10  A    between atoms: C_32  and  O_50 
REMARK   11  A    between atoms: C_38  and  O_59 
REMARK   12  A    between atoms: O_62  and  C_39 
REMARK   13  A    between atoms: O_57  and  C_40 
REMARK   14  A    between atoms: O_58  and  C_41 
REMARK   15  A    between atoms: C_43  and  O_62 
REMARK   16  A    between atoms: C_46  and  O_55 
REMARK   17  A    between atoms: C_47  and  O_56 
ROOT
HETATM    1  C   UNK N   1      38.514  12.661   5.532  0.00  0.00     0.025 C 
HETATM    2  C   UNK N   1      37.242  12.981   3.454  0.00  0.00     0.025 C 
HETATM    3  C   UNK N   1      39.175   5.741  10.768  0.00  0.00     0.023 C 
HETATM    4  C   UNK N   1      40.051   7.994  10.349  0.00  0.00     0.023 C 
HETATM    5  C   UNK N   1      37.330  10.112   5.004  0.00  0.00     0.002 C 
HETATM    6  C   UNK N   1      36.557  11.227   5.115  0.00  0.00    -0.014 C 
HETATM    7  C   UNK N   1      35.690   8.900   6.535  0.00  0.00     0.070 C 
HETATM    8  C   UNK N   1      37.612   9.865   7.938  0.00  0.00     0.066 C 
HETATM    9  C   UNK N   1      35.299  10.278   8.612  0.00  0.00     0.085 C 
HETATM   10  C   UNK N   1      33.846  14.481   7.271  0.00  0.00     0.069 C 
HETATM   11  C   UNK N   1      34.304  16.403   5.762  0.00  0.00     0.087 C 
HETATM   12  C   UNK N   1      36.567  10.684  11.744  0.00  0.00     0.064 C 
HETATM   13  C   UNK N   1      35.826  12.986  12.217  0.00  0.00     0.142 C 
HETATM   14  C   UNK N   1      35.236  13.665   9.301  0.00  0.00     0.067 C 
HETATM   15  C   UNK N   1      38.310   9.121  12.415  0.00  0.00     0.065 C 
HETATM   16  C   UNK N   1      37.661   7.376   8.517  0.00  0.00     0.101 C 
HETATM   17  C   UNK N   1      36.134   9.725   7.720  0.00  0.00    -0.069 C 
HETATM   18  C   UNK N   1      34.298  15.066   5.996  0.00  0.00    -0.037 C 
HETATM   19  C   UNK N   1      37.043  12.117  11.918  0.00  0.00     0.130 C 
HETATM   20  C   UNK N   1      36.895   8.758   5.574  0.00  0.00     0.148 C 
HETATM   21  C   UNK N   1      34.856  13.462   7.815  0.00  0.00     0.132 C 
HETATM   22  C   UNK N   1      37.607   9.709  11.197  0.00  0.00     0.130 C 
HETATM   23  C   UNK N   1      38.228   8.501   7.610  0.00  0.00     0.131 C 
HETATM   24  C   UNK N   1      35.724  15.054   9.771  0.00  0.00     0.162 C 
HETATM   25  C   UNK N   1      38.528   7.614  12.332  0.00  0.00     0.147 C 
HETATM   26  C   UNK N   1      36.175  14.436  12.110  0.00  0.00     0.261 C 
HETATM   27  C   UNK N   1      34.939  14.108   5.019  0.00  0.00     0.224 C 
HETATM   28  C   UNK N   1      37.105  12.633   4.930  0.00  0.00     0.029 C 
HETATM   29  C   UNK N   1      38.835   7.228  10.869  0.00  0.00     0.036 C 
HETATM   30  C   UNK N   1      37.526   7.535  10.063  0.00  0.00     0.173 C 
HETATM   31  C   UNK N   1      36.238  13.673   5.745  0.00  0.00     0.204 C 
HETATM   32  O   UNK N   1      36.241  15.106  13.127  0.00  0.00    -0.265 OA
HETATM   33  O   UNK N   1      38.015   8.134   6.232  0.00  0.00    -0.376 OA
HETATM   34  O   UNK N   1      36.518  14.991  10.916  0.00  0.00    -0.313 OA
HETATM   35  O   UNK N   1      36.895   8.770  10.402  0.00  0.00    -0.349 OA
HETATM   36  O   UNK N   1      36.025  13.125   7.055  0.00  0.00    -0.346 OA
ENDROOT
BRANCH  27  37
HETATM   37  O   UNK N   1      34.117  13.028   4.679  0.00  0.00    -0.303 OA
BRANCH  37  38
HETATM   38  C   UNK N   1      33.184  12.957   3.670  0.00  0.00     0.283 C 
HETATM   39  O   UNK N   1      33.346  12.132   2.786  0.00  0.00    -0.260 OA
BRANCH  38  40
HETATM   40  C   UNK N   1      31.867  13.632   3.776  0.00  0.00     0.082 C 
HETATM   41  C   UNK N   1      31.679  14.883   3.343  0.00  0.00     0.006 C 
BRANCH  41  42
HETATM   42  C   UNK N   1      30.495  15.660   3.749  0.00  0.00    -0.004 C 
HETATM   43  C   UNK N   1      30.156  15.719   5.047  0.00  0.00    -0.027 C 
BRANCH  43  44
HETATM   44  C   UNK N   1      28.837  16.266   5.513  0.00  0.00     0.027 C 
BRANCH  44  45
HETATM   45  C   UNK N   1      28.877  17.722   5.927  0.00  0.00    -0.001 C 
HETATM   46  C   UNK N   1      28.446  18.567   4.744  0.00  0.00     0.005 C 
ENDBRANCH  44  45
ENDBRANCH  43  44
ENDBRANCH  41  42
ENDBRANCH  38  40
ENDBRANCH  37  38
ENDBRANCH  27  37
BRANCH  31  47
HETATM   47  O   UNK N   1      37.005  14.838   5.903  0.00  0.00    -0.362 OA
HETATM   48  H   UNK N   1      37.583  15.357   6.485  0.00  0.00     0.213 HD
ENDBRANCH  31  47
BRANCH  11  49
HETATM   49  C   UNK N   1      33.745  17.487   6.629  0.00  0.00     0.282 C 
HETATM   50  O   UNK N   1      34.530  18.297   7.095  0.00  0.00    -0.260 OA
BRANCH  49  51
HETATM   51  O   UNK N   1      32.420  17.683   6.858  0.00  0.00    -0.323 OA
HETATM   52  C   UNK N   1      31.834  17.676   8.102  0.00  0.00     0.213 C 
ENDBRANCH  49  51
ENDBRANCH  11  49
BRANCH  24  53
HETATM   53  C   UNK N   1      34.549  16.021  10.020  0.00  0.00     0.143 C 
HETATM   54  C   UNK N   1      33.309  15.323  10.558  0.00  0.00     0.042 C 
BRANCH  53  55
HETATM   55  O   UNK N   1      34.934  17.023  10.912  0.00  0.00    -0.393 OA
HETATM   56  H   UNK N   1      35.529  17.787  10.855  0.00  0.00     0.210 HD
ENDBRANCH  53  55
ENDBRANCH  24  53
BRANCH   9  57
HETATM   57  C   UNK N   1      33.812  10.162   8.572  0.00  0.00     0.282 C 
HETATM   58  O   UNK N   1      33.163  10.865   7.829  0.00  0.00    -0.260 OA
BRANCH  57  59
HETATM   59  O   UNK N   1      33.161   9.275   9.376  0.00  0.00    -0.323 OA
HETATM   60  C   UNK N   1      33.311   9.215  10.740  0.00  0.00     0.213 C 
ENDBRANCH  57  59
ENDBRANCH   9  57
BRANCH  19  61
HETATM   61  O   UNK N   1      37.961  12.201  12.967  0.00  0.00    -0.395 OA
HETATM   62  H   UNK N   1      37.874  12.697  13.796  0.00  0.00     0.210 HD
ENDBRANCH  19  61
BRANCH  30  63
HETATM   63  O   UNK N   1      36.596   6.556  10.428  0.00  0.00    -0.364 OA
HETATM   64  H   UNK N   1      36.091   5.944  10.986  0.00  0.00     0.213 HD
ENDBRANCH  30  63
BRANCH  25  65
HETATM   65  O   UNK N   1      39.529   7.239  13.211  0.00  0.00    -0.315 OA
BRANCH  65  66
HETATM   66  C   UNK N   1      39.377   7.280  14.565  0.00  0.00     0.255 C 
HETATM   67  C   UNK N   1      40.402   7.959  15.401  0.00  0.00     0.126 C 
HETATM   68  O   UNK N   1      38.410   6.762  15.107  0.00  0.00    -0.266 OA
ENDBRANCH  65  66
ENDBRANCH  25  65
TORSDOF 17
ENDMDL
MODEL 7
REMARK VINA RESULT:      -6.4      4.502     10.102
REMARK  17 active torsions:
REMARK  status: ('A' for Active; 'I' for Inactive)
REMARK    1  A    between atoms: C_11  and  C_10 
REMARK    2  A    between atoms: C_12  and  C_11 
REMARK    3  A    between atoms: C_14  and  C_13 
REMARK    4  A    between atoms: C_39  and  C_15 
REMARK    5  A    between atoms: C_40  and  C_20 
REMARK    6  A    between atoms: C_41  and  C_22 
REMARK    7  A    between atoms: C_37  and  C_28 
REMARK    8  A    between atoms: C_28  and  O_48 
REMARK    9  A    between atoms: O_59  and  C_29 
REMARK   10  A    between atoms: C_32  and  O_50 
REMARK   11  A    between atoms: C_38  and  O_59 
REMARK   12  A    between atoms: O_62  and  C_39 
REMARK   13  A    between atoms: O_57  and  C_40 
REMARK   14  A    between atoms: O_58  and  C_41 
REMARK   15  A    between atoms: C_43  and  O_62 
REMARK   16  A    between atoms: C_46  and  O_55 
REMARK   17  A    between atoms: C_47  and  O_56 
ROOT
HETATM    1  C   UNK N   1      30.491   9.874   5.672  0.00  0.00     0.025 C 
HETATM    2  C   UNK N   1      31.597   8.263   4.181  0.00  0.00     0.025 C 
HETATM    3  C   UNK N   1      26.612  17.469   3.939  0.00  0.00     0.023 C 
HETATM    4  C   UNK N   1      27.040  15.827   5.710  0.00  0.00     0.023 C 
HETATM    5  C   UNK N   1      30.104  10.931   3.043  0.00  0.00     0.002 C 
HETATM    6  C   UNK N   1      31.355  10.670   3.509  0.00  0.00    -0.014 C 
HETATM    7  C   UNK N   1      30.949  13.192   2.222  0.00  0.00     0.070 C 
HETATM    8  C   UNK N   1      29.932  13.462   4.564  0.00  0.00     0.066 C 
HETATM    9  C   UNK N   1      32.150  14.377   4.097  0.00  0.00     0.085 C 
HETATM   10  C   UNK N   1      35.518  11.564   5.621  0.00  0.00     0.069 C 
HETATM   11  C   UNK N   1      36.049   9.258   6.382  0.00  0.00     0.087 C 
HETATM   12  C   UNK N   1      31.505  16.530   6.653  0.00  0.00     0.064 C 
HETATM   13  C   UNK N   1      33.384  15.997   8.155  0.00  0.00     0.142 C 
HETATM   14  C   UNK N   1      34.047  13.345   6.798  0.00  0.00     0.067 C 
HETATM   15  C   UNK N   1      29.247  17.439   6.756  0.00  0.00     0.065 C 
HETATM   16  C   UNK N   1      28.608  15.137   3.157  0.00  0.00     0.101 C 
HETATM   17  C   UNK N   1      31.090  13.693   3.640  0.00  0.00    -0.069 C 
HETATM   18  C   UNK N   1      35.361  10.100   5.571  0.00  0.00    -0.037 C 
HETATM   19  C   UNK N   1      31.875  15.877   7.975  0.00  0.00     0.130 C 
HETATM   20  C   UNK N   1      29.791  12.166   2.192  0.00  0.00     0.148 C 
HETATM   21  C   UNK N   1      34.160  12.276   5.684  0.00  0.00     0.132 C 
HETATM   22  C   UNK N   1      30.071  16.292   6.182  0.00  0.00     0.130 C 
HETATM   23  C   UNK N   1      28.664  13.696   3.733  0.00  0.00     0.131 C 
HETATM   24  C   UNK N   1      34.404  12.960   8.251  0.00  0.00     0.162 C 
HETATM   25  C   UNK N   1      28.258  18.042   5.765  0.00  0.00     0.147 C 
HETATM   26  C   UNK N   1      33.852  15.128   9.278  0.00  0.00     0.261 C 
HETATM   27  C   UNK N   1      34.245   9.585   4.692  0.00  0.00     0.224 C 
HETATM   28  C   UNK N   1      31.626   9.710   4.656  0.00  0.00     0.029 C 
HETATM   29  C   UNK N   1      27.695  16.919   4.866  0.00  0.00     0.036 C 
HETATM   30  C   UNK N   1      28.910  16.399   4.024  0.00  0.00     0.173 C 
HETATM   31  C   UNK N   1      32.966  10.102   5.398  0.00  0.00     0.204 C 
HETATM   32  O   UNK N   1      34.220  15.649  10.317  0.00  0.00    -0.265 OA
HETATM   33  O   UNK N   1      28.557  12.759   2.644  0.00  0.00    -0.376 OA
HETATM   34  O   UNK N   1      33.776  13.771   9.197  0.00  0.00    -0.313 OA
HETATM   35  O   UNK N   1      30.121  16.240   4.762  0.00  0.00    -0.349 OA
HETATM   36  O   UNK N   1      32.943  11.522   5.608  0.00  0.00    -0.346 OA
ENDROOT
BRANCH  27  37
HETATM   37  O   UNK N   1      34.344  10.009   3.362  0.00  0.00    -0.303 OA
BRANCH  37  38
HETATM   38  C   UNK N   1      34.614   9.250   2.247  0.00  0.00     0.283 C 
HETATM   39  O   UNK N   1      35.566   8.487   2.280  0.00  0.00    -0.260 OA
BRANCH  38  40
HETATM   40  C   UNK N   1      33.636   9.114   1.139  0.00  0.00     0.082 C 
HETATM   41  C   UNK N   1      33.151  10.179   0.493  0.00  0.00     0.006 C 
BRANCH  41  42
HETATM   42  C   UNK N   1      31.950  10.073  -0.354  0.00  0.00    -0.004 C 
HETATM   43  C   UNK N   1      31.514  11.155  -1.021  0.00  0.00    -0.027 C 
BRANCH  43  44
HETATM   44  C   UNK N   1      30.171  11.202  -1.692  0.00  0.00     0.027 C 
BRANCH  44  45
HETATM   45  C   UNK N   1      30.183  10.763  -3.141  0.00  0.00    -0.001 C 
HETATM   46  C   UNK N   1      31.536  11.107  -3.734  0.00  0.00     0.005 C 
ENDBRANCH  44  45
ENDBRANCH  43  44
ENDBRANCH  41  42
ENDBRANCH  38  40
ENDBRANCH  37  38
ENDBRANCH  27  37
BRANCH  31  47
HETATM   47  O   UNK N   1      32.946   9.496   6.664  0.00  0.00    -0.362 OA
HETATM   48  H   UNK N   1      32.855   9.619   7.622  0.00  0.00     0.213 HD
ENDBRANCH  31  47
BRANCH  11  49
HETATM   49  C   UNK N   1      37.156   9.601   7.330  0.00  0.00     0.282 C 
HETATM   50  O   UNK N   1      36.918   9.522   8.525  0.00  0.00    -0.260 OA
BRANCH  49  51
HETATM   51  O   UNK N   1      38.426   9.904   6.954  0.00  0.00    -0.323 OA
HETATM   52  C   UNK N   1      38.997  11.149   7.069  0.00  0.00     0.213 C 
ENDBRANCH  49  51
ENDBRANCH  11  49
BRANCH  24  53
HETATM   53  C   UNK N   1      35.926  12.981   8.493  0.00  0.00     0.143 C 
HETATM   54  C   UNK N   1      36.632  14.102   7.742  0.00  0.00     0.042 C 
BRANCH  53  55
HETATM   55  O   UNK N   1      36.193  13.106   9.857  0.00  0.00    -0.393 OA
HETATM   56  H   UNK N   1      36.562  13.810  10.412  0.00  0.00     0.210 HD
ENDBRANCH  53  55
ENDBRANCH  24  53
BRANCH   9  57
HETATM   57  C   UNK N   1      33.342  14.748   3.281  0.00  0.00     0.282 C 
HETATM   58  O   UNK N   1      33.400  15.830   2.740  0.00  0.00    -0.260 OA
BRANCH  57  59
HETATM   59  O   UNK N   1      34.376  13.875   3.121  0.00  0.00    -0.323 OA
HETATM   60  C   UNK N   1      34.695  13.264   1.934  0.00  0.00     0.213 C 
ENDBRANCH  57  59
ENDBRANCH   9  57
BRANCH  19  61
HETATM   61  O   UNK N   1      31.214  16.506   9.031  0.00  0.00    -0.395 OA
HETATM   62  H   UNK N   1      31.607  16.942   9.804  0.00  0.00     0.210 HD
ENDBRANCH  19  61
BRANCH  30  63
HETATM   63  O   UNK N   1      29.201  17.396   3.087  0.00  0.00    -0.364 OA
HETATM   64  H   UNK N   1      29.684  17.893   2.409  0.00  0.00     0.213 HD
ENDBRANCH  30  63
BRANCH  25  65
HETATM   65  O   UNK N   1      27.272  18.730   6.451  0.00  0.00    -0.315 OA
BRANCH  65  66
HETATM   66  C   UNK N   1      27.179  20.090   6.445  0.00  0.00     0.255 C 
HETATM   67  C   UNK N   1      27.504  20.845   5.207  0.00  0.00     0.126 C 
HETATM   68  O   UNK N   1      26.835  20.702   7.447  0.00  0.00    -0.266 OA
ENDBRANCH  65  66
ENDBRANCH  25  65
TORSDOF 17
ENDMDL
MODEL 8
REMARK VINA RESULT:      -6.1      3.919      9.289
REMARK  17 active torsions:
REMARK  status: ('A' for Active; 'I' for Inactive)
REMARK    1  A    between atoms: C_11  and  C_10 
REMARK    2  A    between atoms: C_12  and  C_11 
REMARK    3  A    between atoms: C_14  and  C_13 
REMARK    4  A    between atoms: C_39  and  C_15 
REMARK    5  A    between atoms: C_40  and  C_20 
REMARK    6  A    between atoms: C_41  and  C_22 
REMARK    7  A    between atoms: C_37  and  C_28 
REMARK    8  A    between atoms: C_28  and  O_48 
REMARK    9  A    between atoms: O_59  and  C_29 
REMARK   10  A    between atoms: C_32  and  O_50 
REMARK   11  A    between atoms: C_38  and  O_59 
REMARK   12  A    between atoms: O_62  and  C_39 
REMARK   13  A    between atoms: O_57  and  C_40 
REMARK   14  A    between atoms: O_58  and  C_41 
REMARK   15  A    between atoms: C_43  and  O_62 
REMARK   16  A    between atoms: C_46  and  O_55 
REMARK   17  A    between atoms: C_47  and  O_56 
ROOT
HETATM    1  C   UNK N   1      32.421  10.214   7.242  0.00  0.00     0.025 C 
HETATM    2  C   UNK N   1      34.570   9.118   6.775  0.00  0.00     0.025 C 
HETATM    3  C   UNK N   1      26.291  13.210   1.838  0.00  0.00     0.023 C 
HETATM    4  C   UNK N   1      26.816  12.798   4.199  0.00  0.00     0.023 C 
HETATM    5  C   UNK N   1      32.485   9.920   4.398  0.00  0.00     0.002 C 
HETATM    6  C   UNK N   1      33.480  10.581   5.050  0.00  0.00    -0.014 C 
HETATM    7  C   UNK N   1      32.406  11.833   2.713  0.00  0.00     0.070 C 
HETATM    8  C   UNK N   1      30.667  12.248   4.557  0.00  0.00     0.066 C 
HETATM    9  C   UNK N   1      32.222  14.030   3.939  0.00  0.00     0.085 C 
HETATM   10  C   UNK N   1      35.786  14.300   6.905  0.00  0.00     0.069 C 
HETATM   11  C   UNK N   1      37.038  13.106   8.691  0.00  0.00     0.087 C 
HETATM   12  C   UNK N   1      29.847  16.151   5.140  0.00  0.00     0.064 C 
HETATM   13  C   UNK N   1      31.140  17.304   6.892  0.00  0.00     0.142 C 
HETATM   14  C   UNK N   1      33.363  15.215   6.981  0.00  0.00     0.067 C 
HETATM   15  C   UNK N   1      27.536  15.607   4.593  0.00  0.00     0.065 C 
HETATM   16  C   UNK N   1      29.271  12.304   2.416  0.00  0.00     0.101 C 
HETATM   17  C   UNK N   1      31.820  12.765   3.747  0.00  0.00    -0.069 C 
HETATM   18  C   UNK N   1      36.352  13.086   7.520  0.00  0.00    -0.037 C 
HETATM   19  C   UNK N   1      30.015  16.306   6.643  0.00  0.00     0.130 C 
HETATM   20  C   UNK N   1      31.939  10.396   3.048  0.00  0.00     0.148 C 
HETATM   21  C   UNK N   1      34.320  14.098   6.501  0.00  0.00     0.132 C 
HETATM   22  C   UNK N   1      28.935  15.010   4.695  0.00  0.00     0.130 C 
HETATM   23  C   UNK N   1      29.793  11.437   3.593  0.00  0.00     0.131 C 
HETATM   24  C   UNK N   1      33.351  15.609   8.475  0.00  0.00     0.162 C 
HETATM   25  C   UNK N   1      26.773  15.177   3.345  0.00  0.00     0.147 C 
HETATM   26  C   UNK N   1      31.554  17.283   8.329  0.00  0.00     0.261 C 
HETATM   27  C   UNK N   1      35.965  11.776   6.874  0.00  0.00     0.224 C 
HETATM   28  C   UNK N   1      33.767  10.388   6.530  0.00  0.00     0.029 C 
HETATM   29  C   UNK N   1      27.128  13.711   3.015  0.00  0.00     0.036 C 
HETATM   30  C   UNK N   1      28.648  13.718   2.629  0.00  0.00     0.173 C 
HETATM   31  C   UNK N   1      34.440  11.685   7.134  0.00  0.00     0.204 C 
HETATM   32  O   UNK N   1      31.270  18.231   9.041  0.00  0.00    -0.265 OA
HETATM   33  O   UNK N   1      30.501  10.304   3.054  0.00  0.00    -0.376 OA
HETATM   34  O   UNK N   1      32.146  16.186   8.875  0.00  0.00    -0.313 OA
HETATM   35  O   UNK N   1      29.472  14.524   3.471  0.00  0.00    -0.349 OA
HETATM   36  O   UNK N   1      33.695  12.818   6.663  0.00  0.00    -0.346 OA
ENDROOT
BRANCH  27  37
HETATM   37  O   UNK N   1      36.292  11.709   5.514  0.00  0.00    -0.303 OA
BRANCH  37  38
HETATM   38  C   UNK N   1      37.526  11.873   4.929  0.00  0.00     0.283 C 
HETATM   39  O   UNK N   1      37.620  12.624   3.972  0.00  0.00    -0.260 OA
BRANCH  38  40
HETATM   40  C   UNK N   1      38.771  11.409   5.589  0.00  0.00     0.082 C 
HETATM   41  C   UNK N   1      38.911  10.151   6.022  0.00  0.00     0.006 C 
BRANCH  41  42
HETATM   42  C   UNK N   1      39.985   9.786   6.963  0.00  0.00    -0.004 C 
HETATM   43  C   UNK N   1      40.385  10.675   7.887  0.00  0.00    -0.027 C 
BRANCH  43  44
HETATM   44  C   UNK N   1      41.629  10.482   8.706  0.00  0.00     0.027 C 
BRANCH  44  45
HETATM   45  C   UNK N   1      42.665  11.574   8.534  0.00  0.00    -0.001 C 
HETATM   46  C   UNK N   1      43.927  10.951   7.969  0.00  0.00     0.005 C 
ENDBRANCH  44  45
ENDBRANCH  43  44
ENDBRANCH  41  42
ENDBRANCH  38  40
ENDBRANCH  37  38
ENDBRANCH  27  37
BRANCH  31  47
HETATM   47  O   UNK N   1      34.285  11.637   8.529  0.00  0.00    -0.362 OA
HETATM   48  H   UNK N   1      33.667  11.612   9.276  0.00  0.00     0.213 HD
ENDBRANCH  31  47
BRANCH  11  49
HETATM   49  C   UNK N   1      37.474  14.302   9.476  0.00  0.00     0.282 C 
HETATM   50  O   UNK N   1      38.547  14.806   9.185  0.00  0.00    -0.260 OA
BRANCH  49  51
HETATM   51  O   UNK N   1      36.721  14.917  10.426  0.00  0.00    -0.323 OA
HETATM   52  C   UNK N   1      36.022  14.261  11.412  0.00  0.00     0.213 C 
ENDBRANCH  49  51
ENDBRANCH  11  49
BRANCH  24  53
HETATM   53  C   UNK N   1      34.512  16.560   8.826  0.00  0.00     0.143 C 
HETATM   54  C   UNK N   1      34.582  17.775   7.912  0.00  0.00     0.042 C 
BRANCH  53  55
HETATM   55  O   UNK N   1      34.397  16.989  10.149  0.00  0.00    -0.393 OA
HETATM   56  H   UNK N   1      33.688  17.401  10.667  0.00  0.00     0.210 HD
ENDBRANCH  53  55
ENDBRANCH  24  53
BRANCH   9  57
HETATM   57  C   UNK N   1      33.301  14.708   3.163  0.00  0.00     0.282 C 
HETATM   58  O   UNK N   1      33.089  15.769   2.619  0.00  0.00    -0.260 OA
BRANCH  57  59
HETATM   59  O   UNK N   1      34.534  14.141   3.045  0.00  0.00    -0.323 OA
HETATM   60  C   UNK N   1      35.182  13.943   1.851  0.00  0.00     0.213 C 
ENDBRANCH  57  59
ENDBRANCH   9  57
BRANCH  19  61
HETATM   61  O   UNK N   1      28.829  16.764   7.221  0.00  0.00    -0.395 OA
HETATM   62  H   UNK N   1      28.728  17.341   7.994  0.00  0.00     0.210 HD
ENDBRANCH  19  61
BRANCH  30  63
HETATM   63  O   UNK N   1      28.736  14.324   1.371  0.00  0.00    -0.364 OA
HETATM   64  H   UNK N   1      28.545  14.930   0.638  0.00  0.00     0.213 HD
ENDBRANCH  30  63
BRANCH  25  65
HETATM   65  O   UNK N   1      25.416  15.374   3.538  0.00  0.00    -0.315 OA
BRANCH  65  66
HETATM   66  C   UNK N   1      24.853  16.613   3.617  0.00  0.00     0.255 C 
HETATM   67  C   UNK N   1      23.521  16.777   4.255  0.00  0.00     0.126 C 
HETATM   68  O   UNK N   1      25.425  17.595   3.164  0.00  0.00    -0.266 OA
ENDBRANCH  65  66
ENDBRANCH  25  65
TORSDOF 17
ENDMDL
MODEL 9
REMARK VINA RESULT:      -6.1      4.561     10.923
REMARK  17 active torsions:
REMARK  status: ('A' for Active; 'I' for Inactive)
REMARK    1  A    between atoms: C_11  and  C_10 
REMARK    2  A    between atoms: C_12  and  C_11 
REMARK    3  A    between atoms: C_14  and  C_13 
REMARK    4  A    between atoms: C_39  and  C_15 
REMARK    5  A    between atoms: C_40  and  C_20 
REMARK    6  A    between atoms: C_41  and  C_22 
REMARK    7  A    between atoms: C_37  and  C_28 
REMARK    8  A    between atoms: C_28  and  O_48 
REMARK    9  A    between atoms: O_59  and  C_29 
REMARK   10  A    between atoms: C_32  and  O_50 
REMARK   11  A    between atoms: C_38  and  O_59 
REMARK   12  A    between atoms: O_62  and  C_39 
REMARK   13  A    between atoms: O_57  and  C_40 
REMARK   14  A    between atoms: O_58  and  C_41 
REMARK   15  A    between atoms: C_43  and  O_62 
REMARK   16  A    between atoms: C_46  and  O_55 
REMARK   17  A    between atoms: C_47  and  O_56 
ROOT
HETATM    1  C   UNK N   1      27.658  13.622   4.505  0.00  0.00     0.025 C 
HETATM    2  C   UNK N   1      26.937  13.432   2.164  0.00  0.00     0.025 C 
HETATM    3  C   UNK N   1      34.105  18.237   8.095  0.00  0.00     0.023 C 
HETATM    4  C   UNK N   1      32.173  16.812   8.603  0.00  0.00     0.023 C 
HETATM    5  C   UNK N   1      29.328  15.453   3.078  0.00  0.00     0.002 C 
HETATM    6  C   UNK N   1      29.279  14.139   2.726  0.00  0.00    -0.014 C 
HETATM    7  C   UNK N   1      31.872  15.329   2.937  0.00  0.00     0.070 C 
HETATM    8  C   UNK N   1      31.130  14.902   5.358  0.00  0.00     0.066 C 
HETATM    9  C   UNK N   1      32.697  13.363   4.284  0.00  0.00     0.085 C 
HETATM   10  C   UNK N   1      30.552   9.560   2.700  0.00  0.00     0.069 C 
HETATM   11  C   UNK N   1      28.352   8.568   2.107  0.00  0.00     0.087 C 
HETATM   12  C   UNK N   1      33.711  12.615   7.446  0.00  0.00     0.064 C 
HETATM   13  C   UNK N   1      33.262  10.192   7.483  0.00  0.00     0.142 C 
HETATM   14  C   UNK N   1      31.429  10.238   5.043  0.00  0.00     0.067 C 
HETATM   15  C   UNK N   1      33.912  14.489   8.988  0.00  0.00     0.065 C 
HETATM   16  C   UNK N   1      32.742  16.874   5.582  0.00  0.00     0.101 C 
HETATM   17  C   UNK N   1      31.932  14.459   4.170  0.00  0.00    -0.069 C 
HETATM   18  C   UNK N   1      29.188   9.636   2.149  0.00  0.00    -0.037 C 
HETATM   19  C   UNK N   1      32.806  11.541   8.029  0.00  0.00     0.130 C 
HETATM   20  C   UNK N   1      30.635  16.252   3.065  0.00  0.00     0.148 C 
HETATM   21  C   UNK N   1      30.824  10.696   3.695  0.00  0.00     0.132 C 
HETATM   22  C   UNK N   1      33.258  14.054   7.682  0.00  0.00     0.130 C 
HETATM   23  C   UNK N   1      31.263  16.428   5.423  0.00  0.00     0.131 C 
HETATM   24  C   UNK N   1      30.726   9.118   5.844  0.00  0.00     0.162 C 
HETATM   25  C   UNK N   1      34.505  15.894   8.942  0.00  0.00     0.147 C 
HETATM   26  C   UNK N   1      32.246   9.135   7.779  0.00  0.00     0.261 C 
HETATM   27  C   UNK N   1      28.690  11.020   1.803  0.00  0.00     0.224 C 
HETATM   28  C   UNK N   1      28.121  13.227   3.098  0.00  0.00     0.029 C 
HETATM   29  C   UNK N   1      33.605  16.793   8.068  0.00  0.00     0.036 C 
HETATM   30  C   UNK N   1      33.709  16.216   6.614  0.00  0.00     0.173 C 
HETATM   31  C   UNK N   1      28.607  11.725   3.181  0.00  0.00     0.204 C 
HETATM   32  O   UNK N   1      32.502   8.285   8.616  0.00  0.00    -0.265 OA
HETATM   33  O   UNK N   1      30.712  17.064   4.253  0.00  0.00    -0.376 OA
HETATM   34  O   UNK N   1      31.011   9.166   7.208  0.00  0.00    -0.313 OA
HETATM   35  O   UNK N   1      33.659  14.792   6.534  0.00  0.00    -0.349 OA
HETATM   36  O   UNK N   1      29.835  11.709   3.924  0.00  0.00    -0.346 OA
ENDROOT
BRANCH  27  37
HETATM   37  O   UNK N   1      29.512  11.694   0.893  0.00  0.00    -0.303 OA
BRANCH  37  38
HETATM   38  C   UNK N   1      29.956  11.258  -0.334  0.00  0.00     0.283 C 
HETATM   39  O   UNK N   1      29.270  10.457  -0.949  0.00  0.00    -0.260 OA
BRANCH  38  40
HETATM   40  C   UNK N   1      31.064  11.936  -1.050  0.00  0.00     0.082 C 
HETATM   41  C   UNK N   1      32.317  11.473  -1.007  0.00  0.00     0.006 C 
BRANCH  41  42
HETATM   42  C   UNK N   1      33.455  12.314  -1.422  0.00  0.00    -0.004 C 
HETATM   43  C   UNK N   1      34.696  11.802  -1.408  0.00  0.00    -0.027 C 
BRANCH  43  44
HETATM   44  C   UNK N   1      35.923  12.653  -1.565  0.00  0.00     0.027 C 
BRANCH  44  45
HETATM   45  C   UNK N   1      35.793  14.047  -0.987  0.00  0.00    -0.001 C 
HETATM   46  C   UNK N   1      36.060  15.050  -2.093  0.00  0.00     0.005 C 
ENDBRANCH  44  45
ENDBRANCH  43  44
ENDBRANCH  41  42
ENDBRANCH  38  40
ENDBRANCH  37  38
ENDBRANCH  27  37
BRANCH  31  47
HETATM   47  O   UNK N   1      27.660  11.010   3.929  0.00  0.00    -0.362 OA
HETATM   48  H   UNK N   1      26.877  10.437   3.913  0.00  0.00     0.213 HD
ENDBRANCH  31  47
BRANCH  11  49
HETATM   49  C   UNK N   1      28.667   7.144   2.442  0.00  0.00     0.282 C 
HETATM   50  O   UNK N   1      28.174   6.682   3.458  0.00  0.00    -0.260 OA
BRANCH  49  51
HETATM   51  O   UNK N   1      29.388   6.308   1.649  0.00  0.00    -0.323 OA
HETATM   52  C   UNK N   1      30.655   5.859   1.938  0.00  0.00     0.213 C 
ENDBRANCH  49  51
ENDBRANCH  11  49
BRANCH  24  53
HETATM   53  C   UNK N   1      31.075   7.719   5.300  0.00  0.00     0.143 C 
HETATM   54  C   UNK N   1      32.526   7.597   4.858  0.00  0.00     0.042 C 
BRANCH  53  55
HETATM   55  O   UNK N   1      30.808   6.749   6.267  0.00  0.00    -0.393 OA
HETATM   56  H   UNK N   1      29.997   6.353   6.623  0.00  0.00     0.210 HD
ENDBRANCH  53  55
ENDBRANCH  24  53
BRANCH   9  57
HETATM   57  C   UNK N   1      33.603  12.842   3.220  0.00  0.00     0.282 C 
HETATM   58  O   UNK N   1      33.160  12.536   2.135  0.00  0.00    -0.260 OA
BRANCH  57  59
HETATM   59  O   UNK N   1      34.937  12.691   3.454  0.00  0.00    -0.323 OA
HETATM   60  C   UNK N   1      35.719  13.619   4.096  0.00  0.00     0.213 C 
ENDBRANCH  57  59
ENDBRANCH   9  57
BRANCH  19  61
HETATM   61  O   UNK N   1      32.883  11.545   9.423  0.00  0.00    -0.395 OA
HETATM   62  H   UNK N   1      33.075  12.296  10.007  0.00  0.00     0.210 HD
ENDBRANCH  19  61
BRANCH  30  63
HETATM   63  O   UNK N   1      34.985  16.547   6.146  0.00  0.00    -0.364 OA
HETATM   64  H   UNK N   1      35.953  16.575   6.086  0.00  0.00     0.213 HD
ENDBRANCH  30  63
BRANCH  25  65
HETATM   65  O   UNK N   1      34.662  16.375  10.230  0.00  0.00    -0.315 OA
BRANCH  65  66
HETATM   66  C   UNK N   1      35.711  16.026  11.027  0.00  0.00     0.255 C 
HETATM   67  C   UNK N   1      35.474  15.194  12.236  0.00  0.00     0.126 C 
HETATM   68  O   UNK N   1      36.849  16.392  10.765  0.00  0.00    -0.266 OA
ENDBRANCH  65  66
ENDBRANCH  25  65
TORSDOF 17
ENDMDL
