MODEL 1
REMARK VINA RESULT:      -8.1      0.000      0.000
REMARK  8 active torsions:
REMARK  status: ('A' for Active; 'I' for Inactive)
REMARK    1  A    between atoms: C_13  and  C_10 
REMARK    2  A    between atoms: N_35  and  C_10 
REMARK    3  A    between atoms: O_37  and  C_13 
REMARK    4  A    between atoms: O_40  and  C_18 
REMARK    5  A    between atoms: O_37  and  C_19 
REMARK    6  A    between atoms: O_40  and  C_23 
REMARK    7  A    between atoms: N_33  and  C_25 
REMARK    8  A    between atoms: N_33  and  C_27 
ROOT
HETATM    1  C   UNK N   1      32.523  17.654   8.201  0.00  0.00     0.067 A 
HETATM    2  C   UNK N   1      32.283  16.892   5.937  0.00  0.00     0.074 A 
HETATM    3  C   UNK N   1      29.308  18.312   9.691  0.00  0.00     0.182 A 
HETATM    4  C   UNK N   1      33.102  17.193   7.024  0.00  0.00     0.073 A 
HETATM    5  C   UNK N   1      31.154  17.768   8.333  0.00  0.00     0.052 A 
HETATM    6  C   UNK N   1      30.879  16.980   6.036  0.00  0.00     0.088 A 
HETATM    7  C   UNK N   1      30.301  17.391   7.275  0.00  0.00     0.068 A 
HETATM    8  C   UNK N   1      28.908  17.438   7.519  0.00  0.00     0.122 A 
HETATM    9  N   UNK N   1      30.644  18.218   9.508  0.00  0.00    -0.351 N 
ATOM     10  HN  UNK N   1      31.276  18.488  10.261  1.00  0.00     0.166 HD
HETATM   11  N   UNK N   1      28.462  17.918   8.713  0.00  0.00    -0.338 N 
ATOM     12  HN  UNK N   1      27.457  17.982   8.875  1.00  0.00     0.168 HD
ENDROOT
BRANCH   8  13
HETATM   13  N   UNK N   1      27.977  16.982   6.547  0.00  0.00    -0.338 N 
HETATM   14  H   UNK N   1      27.922  16.008   6.415  0.00  0.00     0.167 HD
BRANCH  13  15
HETATM   15  C   UNK N   1      27.111  17.783   5.738  0.00  0.00     0.092 A 
HETATM   16  C   UNK N   1      26.211  17.140   4.859  0.00  0.00     0.063 A 
HETATM   17  C   UNK N   1      25.355  17.896   4.032  0.00  0.00     0.029 A 
HETATM   18 Cl   UNK N   1      26.145  15.387   4.778  0.00  0.00    -0.082 Cl
HETATM   19  C   UNK N   1      25.376  19.299   4.078  0.00  0.00     0.041 A 
HETATM   20  C   UNK N   1      26.250  19.902   4.974  0.00  0.00     0.107 A 
HETATM   21  C   UNK N   1      27.073  19.200   5.771  0.00  0.00     0.133 A 
HETATM   22  O   UNK N   1      26.416  21.204   5.199  0.00  0.00    -0.323 OA
HETATM   23  O   UNK N   1      27.755  20.058   6.530  0.00  0.00    -0.321 OA
HETATM   24  C   UNK N   1      27.378  21.361   6.197  0.00  0.00     0.352 A 
ENDBRANCH  13  15
ENDBRANCH   8  13
BRANCH   6  25
HETATM   25  O   UNK N   1      30.080  16.680   4.972  0.00  0.00    -0.345 OA
BRANCH  25  26
HETATM   26  C   UNK N   1      30.023  15.506   4.223  0.00  0.00     0.133 C 
HETATM   27  C   UNK N   1      29.678  14.209   4.980  0.00  0.00     0.058 C 
HETATM   28  C   UNK N   1      29.341  13.075   4.003  0.00  0.00     0.170 C 
HETATM   29  O   UNK N   1      29.879  13.344   2.734  0.00  0.00    -0.391 OA
HETATM   30  C   UNK N   1      29.070  14.356   2.180  0.00  0.00     0.170 C 
HETATM   31  C   UNK N   1      29.208  15.688   2.943  0.00  0.00     0.058 C 
ENDBRANCH  25  26
ENDBRANCH   6  25
BRANCH   4  32
HETATM   32  O   UNK N   1      34.436  16.979   6.951  0.00  0.00    -0.349 OA
BRANCH  32  33
HETATM   33  C   UNK N   1      34.945  15.689   6.917  0.00  0.00     0.206 C 
BRANCH  33  34
HETATM   34  C   UNK N   1      34.811  14.952   8.249  0.00  0.00     0.299 C 
BRANCH  34  35
HETATM   35  N   UNK N   1      35.831  15.420   9.176  0.00  0.00     0.093 N 
HETATM   36  C   UNK N   1      36.751  14.346   9.560  0.00  0.00     0.302 C 
HETATM   37  C   UNK N   1      36.299  13.632  10.825  0.00  0.00     0.302 C 
HETATM   38  N   UNK N   1      36.131  14.616  11.881  0.00  0.00     0.087 N 
HETATM   39  C   UNK N   1      35.807  13.898  13.098  0.00  0.00     0.310 C 
HETATM   40  C   UNK N   1      34.975  15.425  11.524  0.00  0.00     0.302 C 
HETATM   41  C   UNK N   1      35.297  16.243  10.276  0.00  0.00     0.302 C 
ENDBRANCH  34  35
ENDBRANCH  33  34
ENDBRANCH  32  33
ENDBRANCH   4  32
TORSDOF 8
ENDMDL
MODEL 2
REMARK VINA RESULT:      -7.7      4.304      8.291
REMARK  8 active torsions:
REMARK  status: ('A' for Active; 'I' for Inactive)
REMARK    1  A    between atoms: C_13  and  C_10 
REMARK    2  A    between atoms: N_35  and  C_10 
REMARK    3  A    between atoms: O_37  and  C_13 
REMARK    4  A    between atoms: O_40  and  C_18 
REMARK    5  A    between atoms: O_37  and  C_19 
REMARK    6  A    between atoms: O_40  and  C_23 
REMARK    7  A    between atoms: N_33  and  C_25 
REMARK    8  A    between atoms: N_33  and  C_27 
ROOT
HETATM    1  C   UNK N   1      26.570  13.493   5.431  0.00  0.00     0.067 A 
HETATM    2  C   UNK N   1      26.225  15.758   6.151  0.00  0.00     0.074 A 
HETATM    3  C   UNK N   1      29.695  13.159   3.667  0.00  0.00     0.182 A 
HETATM    4  C   UNK N   1      25.797  14.433   6.105  0.00  0.00     0.073 A 
HETATM    5  C   UNK N   1      27.777  13.835   4.855  0.00  0.00     0.052 A 
HETATM    6  C   UNK N   1      27.459  16.145   5.588  0.00  0.00     0.088 A 
HETATM    7  C   UNK N   1      28.270  15.151   4.960  0.00  0.00     0.068 A 
HETATM    8  C   UNK N   1      29.560  15.403   4.434  0.00  0.00     0.122 A 
HETATM    9  N   UNK N   1      28.492  12.875   4.216  0.00  0.00    -0.351 N 
ATOM     10  HN  UNK N   1      28.119  11.929   4.148  1.00  0.00     0.166 HD
HETATM   11  N   UNK N   1      30.216  14.400   3.787  0.00  0.00    -0.338 N 
ATOM     12  HN  UNK N   1      31.132  14.592   3.380  1.00  0.00     0.168 HD
ENDROOT
BRANCH   8  13
HETATM   13  N   UNK N   1      30.178  16.673   4.583  0.00  0.00    -0.338 N 
HETATM   14  H   UNK N   1      29.765  17.421   4.093  0.00  0.00     0.167 HD
BRANCH  13  15
HETATM   15  C   UNK N   1      31.334  16.986   5.365  0.00  0.00     0.092 A 
HETATM   16  C   UNK N   1      32.584  17.103   4.717  0.00  0.00     0.063 A 
HETATM   17  C   UNK N   1      33.749  17.392   5.459  0.00  0.00     0.029 A 
HETATM   18 Cl   UNK N   1      32.711  16.887   2.980  0.00  0.00    -0.082 Cl
HETATM   19  C   UNK N   1      33.681  17.580   6.848  0.00  0.00     0.041 A 
HETATM   20  C   UNK N   1      32.433  17.489   7.451  0.00  0.00     0.107 A 
HETATM   21  C   UNK N   1      31.312  17.216   6.763  0.00  0.00     0.133 A 
HETATM   22  O   UNK N   1      32.137  17.655   8.739  0.00  0.00    -0.323 OA
HETATM   23  O   UNK N   1      30.285  17.229   7.614  0.00  0.00    -0.321 OA
HETATM   24  C   UNK N   1      30.760  17.497   8.900  0.00  0.00     0.352 A 
ENDBRANCH  13  15
ENDBRANCH   8  13
BRANCH   6  25
HETATM   25  O   UNK N   1      27.878  17.441   5.638  0.00  0.00    -0.345 OA
BRANCH  25  26
HETATM   26  C   UNK N   1      27.154  18.606   5.388  0.00  0.00     0.133 C 
HETATM   27  C   UNK N   1      27.390  19.795   6.340  0.00  0.00     0.058 C 
HETATM   28  C   UNK N   1      26.785  21.084   5.770  0.00  0.00     0.170 C 
HETATM   29  O   UNK N   1      25.796  20.784   4.819  0.00  0.00    -0.391 OA
HETATM   30  C   UNK N   1      26.485  20.342   3.672  0.00  0.00     0.170 C 
HETATM   31  C   UNK N   1      27.205  19.000   3.912  0.00  0.00     0.058 C 
ENDBRANCH  25  26
ENDBRANCH   6  25
BRANCH   4  32
HETATM   32  O   UNK N   1      24.674  14.057   6.762  0.00  0.00    -0.349 OA
BRANCH  32  33
HETATM   33  C   UNK N   1      24.143  12.788   6.586  0.00  0.00     0.206 C 
BRANCH  33  34
HETATM   34  C   UNK N   1      23.804  12.088   7.901  0.00  0.00     0.299 C 
BRANCH  34  35
HETATM   35  N   UNK N   1      23.724  13.066   8.974  0.00  0.00     0.093 N 
HETATM   36  C   UNK N   1      24.839  12.935   9.916  0.00  0.00     0.302 C 
HETATM   37  C   UNK N   1      24.497  12.016  11.080  0.00  0.00     0.302 C 
HETATM   38  N   UNK N   1      23.289  12.507  11.723  0.00  0.00     0.087 N 
HETATM   39  C   UNK N   1      23.049  11.680  12.889  0.00  0.00     0.310 C 
HETATM   40  C   UNK N   1      22.194  12.285  10.790  0.00  0.00     0.302 C 
HETATM   41  C   UNK N   1      22.380  13.183   9.570  0.00  0.00     0.302 C 
ENDBRANCH  34  35
ENDBRANCH  33  34
ENDBRANCH  32  33
ENDBRANCH   4  32
TORSDOF 8
ENDMDL
MODEL 3
REMARK VINA RESULT:      -7.6      1.753      2.281
REMARK  8 active torsions:
REMARK  status: ('A' for Active; 'I' for Inactive)
REMARK    1  A    between atoms: C_13  and  C_10 
REMARK    2  A    between atoms: N_35  and  C_10 
REMARK    3  A    between atoms: O_37  and  C_13 
REMARK    4  A    between atoms: O_40  and  C_18 
REMARK    5  A    between atoms: O_37  and  C_19 
REMARK    6  A    between atoms: O_40  and  C_23 
REMARK    7  A    between atoms: N_33  and  C_25 
REMARK    8  A    between atoms: N_33  and  C_27 
ROOT
HETATM    1  C   UNK N   1      31.600  17.540   8.408  0.00  0.00     0.067 A 
HETATM    2  C   UNK N   1      31.860  16.886   6.112  0.00  0.00     0.074 A 
HETATM    3  C   UNK N   1      28.160  18.313   9.152  0.00  0.00     0.182 A 
HETATM    4  C   UNK N   1      32.416  17.097   7.373  0.00  0.00     0.073 A 
HETATM    5  C   UNK N   1      30.244  17.724   8.228  0.00  0.00     0.052 A 
HETATM    6  C   UNK N   1      30.476  17.048   5.890  0.00  0.00     0.088 A 
HETATM    7  C   UNK N   1      29.645  17.438   6.984  0.00  0.00     0.068 A 
HETATM    8  C   UNK N   1      28.236  17.552   6.902  0.00  0.00     0.122 A 
HETATM    9  N   UNK N   1      29.496  18.153   9.276  0.00  0.00    -0.351 N 
ATOM     10  HN  UNK N   1      29.947  18.356  10.167  1.00  0.00     0.166 HD
HETATM   11  N   UNK N   1      27.547  18.007   7.986  0.00  0.00    -0.338 N 
ATOM     12  HN  UNK N   1      26.536  18.119   7.916  1.00  0.00     0.168 HD
ENDROOT
BRANCH   8  13
HETATM   13  N   UNK N   1      27.538  17.189   5.720  0.00  0.00    -0.338 N 
HETATM   14  H   UNK N   1      27.843  16.372   5.264  0.00  0.00     0.167 HD
BRANCH  13  15
HETATM   15  C   UNK N   1      26.440  17.881   5.118  0.00  0.00     0.092 A 
HETATM   16  C   UNK N   1      26.678  19.128   4.498  0.00  0.00     0.063 A 
HETATM   17  C   UNK N   1      25.617  19.849   3.911  0.00  0.00     0.029 A 
HETATM   18 Cl   UNK N   1      28.297  19.807   4.452  0.00  0.00    -0.082 Cl
HETATM   19  C   UNK N   1      24.312  19.331   3.922  0.00  0.00     0.041 A 
HETATM   20  C   UNK N   1      24.116  18.089   4.511  0.00  0.00     0.107 A 
HETATM   21  C   UNK N   1      25.113  17.386   5.075  0.00  0.00     0.133 A 
HETATM   22  O   UNK N   1      22.977  17.405   4.611  0.00  0.00    -0.323 OA
HETATM   23  O   UNK N   1      24.614  16.233   5.520  0.00  0.00    -0.321 OA
HETATM   24  C   UNK N   1      23.242  16.196   5.255  0.00  0.00     0.352 A 
ENDBRANCH  13  15
ENDBRANCH   8  13
BRANCH   6  25
HETATM   25  O   UNK N   1      29.934  16.837   4.657  0.00  0.00    -0.345 OA
BRANCH  25  26
HETATM   26  C   UNK N   1      29.859  15.653   3.924  0.00  0.00     0.133 C 
HETATM   27  C   UNK N   1      29.628  14.352   4.716  0.00  0.00     0.058 C 
HETATM   28  C   UNK N   1      29.254  13.197   3.779  0.00  0.00     0.170 C 
HETATM   29  O   UNK N   1      29.674  13.473   2.467  0.00  0.00    -0.391 OA
HETATM   30  C   UNK N   1      28.784  14.449   1.975  0.00  0.00     0.170 C 
HETATM   31  C   UNK N   1      28.934  15.793   2.714  0.00  0.00     0.058 C 
ENDBRANCH  25  26
ENDBRANCH   6  25
BRANCH   4  32
HETATM   32  O   UNK N   1      33.720  16.812   7.597  0.00  0.00    -0.349 OA
BRANCH  32  33
HETATM   33  C   UNK N   1      34.488  17.618   8.426  0.00  0.00     0.206 C 
BRANCH  33  34
HETATM   34  C   UNK N   1      34.931  16.916   9.708  0.00  0.00     0.299 C 
BRANCH  34  35
HETATM   35  N   UNK N   1      34.797  15.476   9.554  0.00  0.00     0.093 N 
HETATM   36  C   UNK N   1      34.065  14.874  10.671  0.00  0.00     0.302 C 
HETATM   37  C   UNK N   1      34.998  14.406  11.779  0.00  0.00     0.302 C 
HETATM   38  N   UNK N   1      35.978  13.496  11.210  0.00  0.00     0.087 N 
HETATM   39  C   UNK N   1      36.782  12.984  12.302  0.00  0.00     0.310 C 
HETATM   40  C   UNK N   1      36.847  14.292  10.356  0.00  0.00     0.302 C 
HETATM   41  C   UNK N   1      36.049  14.804   9.159  0.00  0.00     0.302 C 
ENDBRANCH  34  35
ENDBRANCH  33  34
ENDBRANCH  32  33
ENDBRANCH   4  32
TORSDOF 8
ENDMDL
MODEL 4
REMARK VINA RESULT:      -7.5      1.099      1.556
REMARK  8 active torsions:
REMARK  status: ('A' for Active; 'I' for Inactive)
REMARK    1  A    between atoms: C_13  and  C_10 
REMARK    2  A    between atoms: N_35  and  C_10 
REMARK    3  A    between atoms: O_37  and  C_13 
REMARK    4  A    between atoms: O_40  and  C_18 
REMARK    5  A    between atoms: O_37  and  C_19 
REMARK    6  A    between atoms: O_40  and  C_23 
REMARK    7  A    between atoms: N_33  and  C_25 
REMARK    8  A    between atoms: N_33  and  C_27 
ROOT
HETATM    1  C   UNK N   1      32.222  17.857   8.688  0.00  0.00     0.067 A 
HETATM    2  C   UNK N   1      32.539  17.188   6.403  0.00  0.00     0.074 A 
HETATM    3  C   UNK N   1      28.719  18.201   9.461  0.00  0.00     0.182 A 
HETATM    4  C   UNK N   1      33.077  17.497   7.651  0.00  0.00     0.073 A 
HETATM    5  C   UNK N   1      30.852  17.862   8.522  0.00  0.00     0.052 A 
HETATM    6  C   UNK N   1      31.144  17.166   6.197  0.00  0.00     0.088 A 
HETATM    7  C   UNK N   1      30.281  17.473   7.292  0.00  0.00     0.068 A 
HETATM    8  C   UNK N   1      28.869  17.404   7.228  0.00  0.00     0.122 A 
HETATM    9  N   UNK N   1      30.066  18.216   9.570  0.00  0.00    -0.351 N 
ATOM     10  HN  UNK N   1      30.497  18.497  10.450  1.00  0.00     0.166 HD
HETATM   11  N   UNK N   1      28.139  17.792   8.310  0.00  0.00    -0.338 N 
ATOM     12  HN  UNK N   1      27.121  17.772   8.251  1.00  0.00     0.168 HD
ENDROOT
BRANCH   8  13
HETATM   13  N   UNK N   1      28.210  16.927   6.063  0.00  0.00    -0.338 N 
HETATM   14  H   UNK N   1      28.421  16.005   5.787  0.00  0.00     0.167 HD
BRANCH  13  15
HETATM   15  C   UNK N   1      27.275  17.638   5.247  0.00  0.00     0.092 A 
HETATM   16  C   UNK N   1      26.540  16.924   4.274  0.00  0.00     0.063 A 
HETATM   17  C   UNK N   1      25.622  17.594   3.438  0.00  0.00     0.029 A 
HETATM   18 Cl   UNK N   1      26.758  15.192   4.084  0.00  0.00    -0.082 Cl
HETATM   19  C   UNK N   1      25.417  18.977   3.569  0.00  0.00     0.041 A 
HETATM   20  C   UNK N   1      26.132  19.644   4.555  0.00  0.00     0.107 A 
HETATM   21  C   UNK N   1      27.009  19.025   5.362  0.00  0.00     0.133 A 
HETATM   22  O   UNK N   1      26.075  20.938   4.867  0.00  0.00    -0.323 OA
HETATM   23  O   UNK N   1      27.503  19.924   6.214  0.00  0.00    -0.321 OA
HETATM   24  C   UNK N   1      26.942  21.173   5.935  0.00  0.00     0.352 A 
ENDBRANCH  13  15
ENDBRANCH   8  13
BRANCH   6  25
HETATM   25  O   UNK N   1      30.620  16.858   4.976  0.00  0.00    -0.345 OA
BRANCH  25  26
HETATM   26  C   UNK N   1      30.783  15.698   4.220  0.00  0.00     0.133 C 
HETATM   27  C   UNK N   1      32.029  15.621   3.316  0.00  0.00     0.058 C 
HETATM   28  C   UNK N   1      32.245  14.193   2.799  0.00  0.00     0.170 C 
HETATM   29  O   UNK N   1      31.049  13.459   2.868  0.00  0.00    -0.391 OA
HETATM   30  C   UNK N   1      30.854  13.168   4.233  0.00  0.00     0.170 C 
HETATM   31  C   UNK N   1      30.571  14.438   5.060  0.00  0.00     0.058 C 
ENDBRANCH  25  26
ENDBRANCH   6  25
BRANCH   4  32
HETATM   32  O   UNK N   1      34.409  17.387   7.864  0.00  0.00    -0.349 OA
BRANCH  32  33
HETATM   33  C   UNK N   1      34.894  16.809   9.028  0.00  0.00     0.206 C 
BRANCH  33  34
HETATM   34  C   UNK N   1      35.086  15.297   8.916  0.00  0.00     0.299 C 
BRANCH  34  35
HETATM   35  N   UNK N   1      34.374  14.629   9.995  0.00  0.00     0.093 N 
HETATM   36  C   UNK N   1      34.563  15.312  11.277  0.00  0.00     0.302 C 
HETATM   37  C   UNK N   1      35.742  14.749  12.056  0.00  0.00     0.302 C 
HETATM   38  N   UNK N   1      35.552  13.316  12.219  0.00  0.00     0.087 N 
HETATM   39  C   UNK N   1      36.631  12.826  13.055  0.00  0.00     0.310 C 
HETATM   40  C   UNK N   1      35.706  12.718  10.901  0.00  0.00     0.302 C 
HETATM   41  C   UNK N   1      34.554  13.165  10.005  0.00  0.00     0.302 C 
ENDBRANCH  34  35
ENDBRANCH  33  34
ENDBRANCH  32  33
ENDBRANCH   4  32
TORSDOF 8
ENDMDL
MODEL 5
REMARK VINA RESULT:      -7.4      5.050      8.586
REMARK  8 active torsions:
REMARK  status: ('A' for Active; 'I' for Inactive)
REMARK    1  A    between atoms: C_13  and  C_10 
REMARK    2  A    between atoms: N_35  and  C_10 
REMARK    3  A    between atoms: O_37  and  C_13 
REMARK    4  A    between atoms: O_40  and  C_18 
REMARK    5  A    between atoms: O_37  and  C_19 
REMARK    6  A    between atoms: O_40  and  C_23 
REMARK    7  A    between atoms: N_33  and  C_25 
REMARK    8  A    between atoms: N_33  and  C_27 
ROOT
HETATM    1  C   UNK N   1      24.127  20.493   3.140  0.00  0.00     0.067 A 
HETATM    2  C   UNK N   1      24.640  18.755   4.715  0.00  0.00     0.074 A 
HETATM    3  C   UNK N   1      20.667  20.357   2.143  0.00  0.00     0.182 A 
HETATM    4  C   UNK N   1      25.042  19.869   3.980  0.00  0.00     0.073 A 
HETATM    5  C   UNK N   1      22.817  20.068   3.059  0.00  0.00     0.052 A 
HETATM    6  C   UNK N   1      23.306  18.298   4.672  0.00  0.00     0.088 A 
HETATM    7  C   UNK N   1      22.365  18.995   3.855  0.00  0.00     0.068 A 
HETATM    8  C   UNK N   1      20.987  18.680   3.795  0.00  0.00     0.122 A 
HETATM    9  N   UNK N   1      21.966  20.719   2.226  0.00  0.00    -0.351 N 
ATOM     10  HN  UNK N   1      22.311  21.492   1.657  1.00  0.00     0.166 HD
HETATM   11  N   UNK N   1      20.192  19.360   2.924  0.00  0.00    -0.338 N 
ATOM     12  HN  UNK N   1      19.205  19.111   2.858  1.00  0.00     0.168 HD
ENDROOT
BRANCH   8  13
HETATM   13  N   UNK N   1      20.425  17.681   4.635  0.00  0.00    -0.338 N 
HETATM   14  H   UNK N   1      20.284  17.929   5.577  0.00  0.00     0.167 HD
BRANCH  13  15
HETATM   15  C   UNK N   1      20.042  16.355   4.262  0.00  0.00     0.092 A 
HETATM   16  C   UNK N   1      19.661  15.445   5.274  0.00  0.00     0.063 A 
HETATM   17  C   UNK N   1      19.295  14.123   4.947  0.00  0.00     0.029 A 
HETATM   18 Cl   UNK N   1      19.642  15.943   6.958  0.00  0.00    -0.082 Cl
HETATM   19  C   UNK N   1      19.291  13.695   3.611  0.00  0.00     0.041 A 
HETATM   20  C   UNK N   1      19.640  14.621   2.635  0.00  0.00     0.107 A 
HETATM   21  C   UNK N   1      19.991  15.885   2.926  0.00  0.00     0.133 A 
HETATM   22  O   UNK N   1      19.679  14.439   1.317  0.00  0.00    -0.323 OA
HETATM   23  O   UNK N   1      20.235  16.525   1.783  0.00  0.00    -0.321 OA
HETATM   24  C   UNK N   1      20.058  15.640   0.716  0.00  0.00     0.352 A 
ENDBRANCH  13  15
ENDBRANCH   8  13
BRANCH   6  25
HETATM   25  O   UNK N   1      22.914  17.211   5.396  0.00  0.00    -0.345 OA
BRANCH  25  26
HETATM   26  C   UNK N   1      23.532  15.967   5.514  0.00  0.00     0.133 C 
HETATM   27  C   UNK N   1      23.157  15.112   6.740  0.00  0.00     0.058 C 
HETATM   28  C   UNK N   1      23.655  13.670   6.579  0.00  0.00     0.170 C 
HETATM   29  O   UNK N   1      24.697  13.614   5.637  0.00  0.00    -0.391 OA
HETATM   30  C   UNK N   1      24.088  13.775   4.378  0.00  0.00     0.170 C 
HETATM   31  C   UNK N   1      23.490  15.185   4.201  0.00  0.00     0.058 C 
ENDBRANCH  25  26
ENDBRANCH   6  25
BRANCH   4  32
HETATM   32  O   UNK N   1      26.291  20.370   4.133  0.00  0.00    -0.349 OA
BRANCH  32  33
HETATM   33  C   UNK N   1      26.699  20.892   5.351  0.00  0.00     0.206 C 
BRANCH  33  34
HETATM   34  C   UNK N   1      27.992  20.268   5.873  0.00  0.00     0.299 C 
BRANCH  34  35
HETATM   35  N   UNK N   1      27.708  18.974   6.473  0.00  0.00     0.093 N 
HETATM   36  C   UNK N   1      27.969  18.973   7.914  0.00  0.00     0.302 C 
HETATM   37  C   UNK N   1      29.385  18.520   8.238  0.00  0.00     0.302 C 
HETATM   38  N   UNK N   1      29.606  17.214   7.638  0.00  0.00     0.087 N 
HETATM   39  C   UNK N   1      30.919  16.761   8.052  0.00  0.00     0.310 C 
HETATM   40  C   UNK N   1      29.640  17.413   6.196  0.00  0.00     0.302 C 
HETATM   41  C   UNK N   1      28.256  17.836   5.712  0.00  0.00     0.302 C 
ENDBRANCH  34  35
ENDBRANCH  33  34
ENDBRANCH  32  33
ENDBRANCH   4  32
TORSDOF 8
ENDMDL
MODEL 6
REMARK VINA RESULT:      -7.4      3.722      9.395
REMARK  8 active torsions:
REMARK  status: ('A' for Active; 'I' for Inactive)
REMARK    1  A    between atoms: C_13  and  C_10 
REMARK    2  A    between atoms: N_35  and  C_10 
REMARK    3  A    between atoms: O_37  and  C_13 
REMARK    4  A    between atoms: O_40  and  C_18 
REMARK    5  A    between atoms: O_37  and  C_19 
REMARK    6  A    between atoms: O_40  and  C_23 
REMARK    7  A    between atoms: N_33  and  C_25 
REMARK    8  A    between atoms: N_33  and  C_27 
ROOT
HETATM    1  C   UNK N   1      26.364  13.653   5.681  0.00  0.00     0.067 A 
HETATM    2  C   UNK N   1      26.139  16.005   6.108  0.00  0.00     0.074 A 
HETATM    3  C   UNK N   1      29.488  12.929   4.037  0.00  0.00     0.182 A 
HETATM    4  C   UNK N   1      25.637  14.710   6.218  0.00  0.00     0.073 A 
HETATM    5  C   UNK N   1      27.596  13.853   5.093  0.00  0.00     0.052 A 
HETATM    6  C   UNK N   1      27.401  16.250   5.527  0.00  0.00     0.088 A 
HETATM    7  C   UNK N   1      28.162  15.143   5.044  0.00  0.00     0.068 A 
HETATM    8  C   UNK N   1      29.471  15.256   4.518  0.00  0.00     0.122 A 
HETATM    9  N   UNK N   1      28.264  12.783   4.592  0.00  0.00    -0.351 N 
ATOM     10  HN  UNK N   1      27.838  11.858   4.634  1.00  0.00     0.166 HD
HETATM   11  N   UNK N   1      30.078  14.146   4.013  0.00  0.00    -0.338 N 
ATOM     12  HN  UNK N   1      31.009  14.234   3.605  1.00  0.00     0.168 HD
ENDROOT
BRANCH   8  13
HETATM   13  N   UNK N   1      30.159  16.499   4.520  0.00  0.00    -0.338 N 
HETATM   14  H   UNK N   1      29.819  17.189   3.907  0.00  0.00     0.167 HD
BRANCH  13  15
HETATM   15  C   UNK N   1      31.291  16.858   5.317  0.00  0.00     0.092 A 
HETATM   16  C   UNK N   1      32.547  17.010   4.688  0.00  0.00     0.063 A 
HETATM   17  C   UNK N   1      33.690  17.345   5.443  0.00  0.00     0.029 A 
HETATM   18 Cl   UNK N   1      32.709  16.779   2.955  0.00  0.00    -0.082 Cl
HETATM   19  C   UNK N   1      33.594  17.546   6.829  0.00  0.00     0.041 A 
HETATM   20  C   UNK N   1      32.340  17.420   7.414  0.00  0.00     0.107 A 
HETATM   21  C   UNK N   1      31.240  17.103   6.712  0.00  0.00     0.133 A 
HETATM   22  O   UNK N   1      32.019  17.590   8.695  0.00  0.00    -0.323 OA
HETATM   23  O   UNK N   1      30.200  17.090   7.546  0.00  0.00    -0.321 OA
HETATM   24  C   UNK N   1      30.645  17.389   8.837  0.00  0.00     0.352 A 
ENDBRANCH  13  15
ENDBRANCH   8  13
BRANCH   6  25
HETATM   25  O   UNK N   1      27.893  17.518   5.425  0.00  0.00    -0.345 OA
BRANCH  25  26
HETATM   26  C   UNK N   1      27.197  18.721   5.317  0.00  0.00     0.133 C 
HETATM   27  C   UNK N   1      27.649  19.876   6.232  0.00  0.00     0.058 C 
HETATM   28  C   UNK N   1      27.023  21.205   5.790  0.00  0.00     0.170 C 
HETATM   29  O   UNK N   1      25.874  20.973   5.014  0.00  0.00    -0.391 OA
HETATM   30  C   UNK N   1      26.339  20.525   3.762  0.00  0.00     0.170 C 
HETATM   31  C   UNK N   1      27.019  19.145   3.859  0.00  0.00     0.058 C 
ENDBRANCH  25  26
ENDBRANCH   6  25
BRANCH   4  32
HETATM   32  O   UNK N   1      24.485  14.482   6.892  0.00  0.00    -0.349 OA
BRANCH  32  33
HETATM   33  C   UNK N   1      23.279  14.375   6.217  0.00  0.00     0.206 C 
BRANCH  33  34
HETATM   34  C   UNK N   1      22.566  15.715   6.039  0.00  0.00     0.299 C 
BRANCH  34  35
HETATM   35  N   UNK N   1      22.481  16.043   4.624  0.00  0.00     0.093 N 
HETATM   36  C   UNK N   1      23.342  17.176   4.276  0.00  0.00     0.302 C 
HETATM   37  C   UNK N   1      22.603  18.504   4.362  0.00  0.00     0.302 C 
HETATM   38  N   UNK N   1      21.419  18.433   3.520  0.00  0.00     0.087 N 
HETATM   39  C   UNK N   1      20.796  19.742   3.536  0.00  0.00     0.310 C 
HETATM   40  C   UNK N   1      20.503  17.499   4.158  0.00  0.00     0.302 C 
HETATM   41  C   UNK N   1      21.100  16.094   4.111  0.00  0.00     0.302 C 
ENDBRANCH  34  35
ENDBRANCH  33  34
ENDBRANCH  32  33
ENDBRANCH   4  32
TORSDOF 8
ENDMDL
MODEL 7
REMARK VINA RESULT:      -7.3      3.845      5.797
REMARK  8 active torsions:
REMARK  status: ('A' for Active; 'I' for Inactive)
REMARK    1  A    between atoms: C_13  and  C_10 
REMARK    2  A    between atoms: N_35  and  C_10 
REMARK    3  A    between atoms: O_37  and  C_13 
REMARK    4  A    between atoms: O_40  and  C_18 
REMARK    5  A    between atoms: O_37  and  C_19 
REMARK    6  A    between atoms: O_40  and  C_23 
REMARK    7  A    between atoms: N_33  and  C_25 
REMARK    8  A    between atoms: N_33  and  C_27 
ROOT
HETATM    1  C   UNK N   1      28.074  18.547   5.389  0.00  0.00     0.067 A 
HETATM    2  C   UNK N   1      27.273  16.430   6.192  0.00  0.00     0.074 A 
HETATM    3  C   UNK N   1      25.556  20.224   3.431  0.00  0.00     0.182 A 
HETATM    4  C   UNK N   1      28.281  17.391   6.134  0.00  0.00     0.073 A 
HETATM    5  C   UNK N   1      26.874  18.786   4.751  0.00  0.00     0.052 A 
HETATM    6  C   UNK N   1      26.027  16.643   5.567  0.00  0.00     0.088 A 
HETATM    7  C   UNK N   1      25.810  17.867   4.863  0.00  0.00     0.068 A 
HETATM    8  C   UNK N   1      24.578  18.227   4.268  0.00  0.00     0.122 A 
HETATM    9  N   UNK N   1      26.726  19.934   4.043  0.00  0.00    -0.351 N 
ATOM     10  HN  UNK N   1      27.506  20.586   3.971  1.00  0.00     0.166 HD
HETATM   11  N   UNK N   1      24.503  19.385   3.555  0.00  0.00    -0.338 N 
ATOM     12  HN  UNK N   1      23.623  19.628   3.099  1.00  0.00     0.168 HD
ENDROOT
BRANCH   8  13
HETATM   13  N   UNK N   1      23.425  17.410   4.415  0.00  0.00    -0.338 N 
HETATM   14  H   UNK N   1      23.419  16.796   5.185  0.00  0.00     0.167 HD
BRANCH  13  15
HETATM   15  C   UNK N   1      22.273  17.380   3.568  0.00  0.00     0.092 A 
HETATM   16  C   UNK N   1      21.949  16.177   2.902  0.00  0.00     0.063 A 
HETATM   17  C   UNK N   1      20.831  16.114   2.043  0.00  0.00     0.029 A 
HETATM   18 Cl   UNK N   1      22.933  14.740   3.126  0.00  0.00    -0.082 Cl
HETATM   19  C   UNK N   1      20.018  17.241   1.848  0.00  0.00     0.041 A 
HETATM   20  C   UNK N   1      20.345  18.400   2.541  0.00  0.00     0.107 A 
HETATM   21  C   UNK N   1      21.404  18.480   3.364  0.00  0.00     0.133 A 
HETATM   22  O   UNK N   1      19.704  19.567   2.524  0.00  0.00    -0.323 OA
HETATM   23  O   UNK N   1      21.430  19.702   3.897  0.00  0.00    -0.321 OA
HETATM   24  C   UNK N   1      20.363  20.446   3.385  0.00  0.00     0.352 A 
ENDBRANCH  13  15
ENDBRANCH   8  13
BRANCH   6  25
HETATM   25  O   UNK N   1      25.041  15.704   5.629  0.00  0.00    -0.345 OA
BRANCH  25  26
HETATM   26  C   UNK N   1      24.592  14.975   6.730  0.00  0.00     0.133 C 
HETATM   27  C   UNK N   1      23.072  14.945   6.978  0.00  0.00     0.058 C 
HETATM   28  C   UNK N   1      22.704  13.870   8.008  0.00  0.00     0.170 C 
HETATM   29  O   UNK N   1      23.822  13.537   8.791  0.00  0.00    -0.391 OA
HETATM   30  C   UNK N   1      24.657  12.765   7.960  0.00  0.00     0.170 C 
HETATM   31  C   UNK N   1      25.239  13.592   6.797  0.00  0.00     0.058 C 
ENDBRANCH  25  26
ENDBRANCH   6  25
BRANCH   4  32
HETATM   32  O   UNK N   1      29.420  17.226   6.846  0.00  0.00    -0.349 OA
BRANCH  32  33
HETATM   33  C   UNK N   1      29.477  17.586   8.185  0.00  0.00     0.206 C 
BRANCH  33  34
HETATM   34  C   UNK N   1      30.903  17.783   8.697  0.00  0.00     0.299 C 
BRANCH  34  35
HETATM   35  N   UNK N   1      31.835  17.050   7.854  0.00  0.00     0.093 N 
HETATM   36  C   UNK N   1      31.961  15.651   8.270  0.00  0.00     0.302 C 
HETATM   37  C   UNK N   1      33.101  15.449   9.258  0.00  0.00     0.302 C 
HETATM   38  N   UNK N   1      34.327  15.960   8.667  0.00  0.00     0.087 N 
HETATM   39  C   UNK N   1      35.410  15.657   9.581  0.00  0.00     0.310 C 
HETATM   40  C   UNK N   1      34.193  17.408   8.603  0.00  0.00     0.302 C 
HETATM   41  C   UNK N   1      33.097  17.770   7.604  0.00  0.00     0.302 C 
ENDBRANCH  34  35
ENDBRANCH  33  34
ENDBRANCH  32  33
ENDBRANCH   4  32
TORSDOF 8
ENDMDL
MODEL 8
REMARK VINA RESULT:      -7.2      1.707      2.169
REMARK  8 active torsions:
REMARK  status: ('A' for Active; 'I' for Inactive)
REMARK    1  A    between atoms: C_13  and  C_10 
REMARK    2  A    between atoms: N_35  and  C_10 
REMARK    3  A    between atoms: O_37  and  C_13 
REMARK    4  A    between atoms: O_40  and  C_18 
REMARK    5  A    between atoms: O_37  and  C_19 
REMARK    6  A    between atoms: O_40  and  C_23 
REMARK    7  A    between atoms: N_33  and  C_25 
REMARK    8  A    between atoms: N_33  and  C_27 
ROOT
HETATM    1  C   UNK N   1      31.787  18.198   8.965  0.00  0.00     0.067 A 
HETATM    2  C   UNK N   1      32.605  17.386   6.859  0.00  0.00     0.074 A 
HETATM    3  C   UNK N   1      28.191  18.020   9.111  0.00  0.00     0.182 A 
HETATM    4  C   UNK N   1      32.858  17.893   8.132  0.00  0.00     0.073 A 
HETATM    5  C   UNK N   1      30.484  17.959   8.579  0.00  0.00     0.052 A 
HETATM    6  C   UNK N   1      31.289  17.112   6.432  0.00  0.00     0.088 A 
HETATM    7  C   UNK N   1      30.207  17.369   7.328  0.00  0.00     0.068 A 
HETATM    8  C   UNK N   1      28.856  17.059   7.043  0.00  0.00     0.122 A 
HETATM    9  N   UNK N   1      29.479  18.270   9.436  0.00  0.00    -0.351 N 
ATOM     10  HN  UNK N   1      29.698  18.698  10.335  1.00  0.00     0.166 HD
HETATM   11  N   UNK N   1      27.894  17.417   7.939  0.00  0.00    -0.338 N 
ATOM     12  HN  UNK N   1      26.917  17.222   7.718  1.00  0.00     0.168 HD
ENDROOT
BRANCH   8  13
HETATM   13  N   UNK N   1      28.496  16.375   5.852  0.00  0.00    -0.338 N 
HETATM   14  H   UNK N   1      29.107  15.663   5.554  0.00  0.00     0.167 HD
BRANCH  13  15
HETATM   15  C   UNK N   1      27.343  16.606   5.037  0.00  0.00     0.092 A 
HETATM   16  C   UNK N   1      26.434  15.546   4.826  0.00  0.00     0.063 A 
HETATM   17  C   UNK N   1      25.296  15.731   4.013  0.00  0.00     0.029 A 
HETATM   18 Cl   UNK N   1      26.706  13.977   5.566  0.00  0.00    -0.082 Cl
HETATM   19  C   UNK N   1      25.043  16.974   3.413  0.00  0.00     0.041 A 
HETATM   20  C   UNK N   1      25.939  18.006   3.665  0.00  0.00     0.107 A 
HETATM   21  C   UNK N   1      27.028  17.851   4.436  0.00  0.00     0.133 A 
HETATM   22  O   UNK N   1      25.881  19.261   3.223  0.00  0.00    -0.323 OA
HETATM   23  O   UNK N   1      27.662  19.022   4.508  0.00  0.00    -0.321 OA
HETATM   24  C   UNK N   1      26.971  19.962   3.739  0.00  0.00     0.352 A 
ENDBRANCH  13  15
ENDBRANCH   8  13
BRANCH   6  25
HETATM   25  O   UNK N   1      31.045  16.611   5.188  0.00  0.00    -0.345 OA
BRANCH  25  26
HETATM   26  C   UNK N   1      31.768  15.661   4.468  0.00  0.00     0.133 C 
HETATM   27  C   UNK N   1      30.963  14.542   3.780  0.00  0.00     0.058 C 
HETATM   28  C   UNK N   1      31.836  13.771   2.781  0.00  0.00     0.170 C 
HETATM   29  O   UNK N   1      33.197  13.941   3.086  0.00  0.00    -0.391 OA
HETATM   30  C   UNK N   1      33.519  15.254   2.687  0.00  0.00     0.170 C 
HETATM   31  C   UNK N   1      32.801  16.312   3.547  0.00  0.00     0.058 C 
ENDBRANCH  25  26
ENDBRANCH   6  25
BRANCH   4  32
HETATM   32  O   UNK N   1      34.132  18.027   8.571  0.00  0.00    -0.349 OA
BRANCH  32  33
HETATM   33  C   UNK N   1      34.668  17.123   9.475  0.00  0.00     0.206 C 
BRANCH  33  34
HETATM   34  C   UNK N   1      34.977  15.761   8.855  0.00  0.00     0.299 C 
BRANCH  34  35
HETATM   35  N   UNK N   1      34.179  14.731   9.504  0.00  0.00     0.093 N 
HETATM   36  C   UNK N   1      34.076  14.952  10.948  0.00  0.00     0.302 C 
HETATM   37  C   UNK N   1      35.169  14.223  11.717  0.00  0.00     0.302 C 
HETATM   38  N   UNK N   1      35.120  12.812  11.371  0.00  0.00     0.087 N 
HETATM   39  C   UNK N   1      36.095  12.127  12.196  0.00  0.00     0.310 C 
HETATM   40  C   UNK N   1      35.555  12.701   9.986  0.00  0.00     0.302 C 
HETATM   41  C   UNK N   1      34.521  13.362   9.078  0.00  0.00     0.302 C 
ENDBRANCH  34  35
ENDBRANCH  33  34
ENDBRANCH  32  33
ENDBRANCH   4  32
TORSDOF 8
ENDMDL
MODEL 9
REMARK VINA RESULT:      -7.2      3.700      9.027
REMARK  8 active torsions:
REMARK  status: ('A' for Active; 'I' for Inactive)
REMARK    1  A    between atoms: C_13  and  C_10 
REMARK    2  A    between atoms: N_35  and  C_10 
REMARK    3  A    between atoms: O_37  and  C_13 
REMARK    4  A    between atoms: O_40  and  C_18 
REMARK    5  A    between atoms: O_37  and  C_19 
REMARK    6  A    between atoms: O_40  and  C_23 
REMARK    7  A    between atoms: N_33  and  C_25 
REMARK    8  A    between atoms: N_33  and  C_27 
ROOT
HETATM    1  C   UNK N   1      26.029  14.378   3.893  0.00  0.00     0.067 A 
HETATM    2  C   UNK N   1      25.967  16.765   3.642  0.00  0.00     0.074 A 
HETATM    3  C   UNK N   1      29.400  13.222   4.433  0.00  0.00     0.182 A 
HETATM    4  C   UNK N   1      25.296  15.546   3.714  0.00  0.00     0.073 A 
HETATM    5  C   UNK N   1      27.399  14.407   4.057  0.00  0.00     0.052 A 
HETATM    6  C   UNK N   1      27.364  16.839   3.820  0.00  0.00     0.088 A 
HETATM    7  C   UNK N   1      28.091  15.635   4.071  0.00  0.00     0.068 A 
HETATM    8  C   UNK N   1      29.479  15.594   4.346  0.00  0.00     0.122 A 
HETATM    9  N   UNK N   1      28.063  13.236   4.235  0.00  0.00    -0.351 N 
ATOM     10  HN  UNK N   1      27.547  12.357   4.220  1.00  0.00     0.166 HD
HETATM   11  N   UNK N   1      30.086  14.385   4.495  0.00  0.00    -0.338 N 
ATOM     12  HN  UNK N   1      31.092  14.355   4.661  1.00  0.00     0.168 HD
ENDROOT
BRANCH   8  13
HETATM   13  N   UNK N   1      30.236  16.789   4.478  0.00  0.00    -0.338 N 
HETATM   14  H   UNK N   1      29.951  17.552   3.925  0.00  0.00     0.167 HD
BRANCH  13  15
HETATM   15  C   UNK N   1      31.367  17.005   5.327  0.00  0.00     0.092 A 
HETATM   16  C   UNK N   1      32.651  17.090   4.743  0.00  0.00     0.063 A 
HETATM   17  C   UNK N   1      33.792  17.283   5.550  0.00  0.00     0.029 A 
HETATM   18 Cl   UNK N   1      32.851  16.949   3.005  0.00  0.00    -0.082 Cl
HETATM   19  C   UNK N   1      33.667  17.409   6.942  0.00  0.00     0.041 A 
HETATM   20  C   UNK N   1      32.388  17.353   7.483  0.00  0.00     0.107 A 
HETATM   21  C   UNK N   1      31.289  17.170   6.733  0.00  0.00     0.133 A 
HETATM   22  O   UNK N   1      32.039  17.472   8.763  0.00  0.00    -0.323 OA
HETATM   23  O   UNK N   1      30.225  17.194   7.535  0.00  0.00    -0.321 OA
HETATM   24  C   UNK N   1      30.650  17.377   8.853  0.00  0.00     0.352 A 
ENDBRANCH  13  15
ENDBRANCH   8  13
BRANCH   6  25
HETATM   25  O   UNK N   1      28.018  18.034   3.755  0.00  0.00    -0.345 OA
BRANCH  25  26
HETATM   26  C   UNK N   1      27.910  19.139   4.598  0.00  0.00     0.133 C 
HETATM   27  C   UNK N   1      26.928  20.248   4.178  0.00  0.00     0.058 C 
HETATM   28  C   UNK N   1      26.678  21.228   5.331  0.00  0.00     0.170 C 
HETATM   29  O   UNK N   1      27.723  21.161   6.268  0.00  0.00    -0.391 OA
HETATM   30  C   UNK N   1      27.538  19.952   6.966  0.00  0.00     0.170 C 
HETATM   31  C   UNK N   1      27.756  18.723   6.062  0.00  0.00     0.058 C 
ENDBRANCH  25  26
ENDBRANCH   6  25
BRANCH   4  32
HETATM   32  O   UNK N   1      23.943  15.510   3.670  0.00  0.00    -0.349 OA
BRANCH  32  33
HETATM   33  C   UNK N   1      23.256  14.349   3.991  0.00  0.00     0.206 C 
BRANCH  33  34
HETATM   34  C   UNK N   1      22.078  14.586   4.934  0.00  0.00     0.299 C 
BRANCH  34  35
HETATM   35  N   UNK N   1      22.553  15.170   6.179  0.00  0.00     0.093 N 
HETATM   36  C   UNK N   1      23.155  14.164   7.058  0.00  0.00     0.302 C 
HETATM   37  C   UNK N   1      22.142  13.571   8.026  0.00  0.00     0.302 C 
HETATM   38  N   UNK N   1      21.522  14.654   8.773  0.00  0.00     0.087 N 
HETATM   39  C   UNK N   1      20.645  14.056   9.760  0.00  0.00     0.310 C 
HETATM   40  C   UNK N   1      20.693  15.394   7.834  0.00  0.00     0.302 C 
HETATM   41  C   UNK N   1      21.586  16.088   6.809  0.00  0.00     0.302 C 
ENDBRANCH  34  35
ENDBRANCH  33  34
ENDBRANCH  32  33
ENDBRANCH   4  32
TORSDOF 8
ENDMDL
