MODEL 1
REMARK VINA RESULT:      -8.9      0.000      0.000
REMARK  3 active torsions:
REMARK  status: ('A' for Active; 'I' for Inactive)
REMARK    1  A    between atoms: C_2  and  C_6 
REMARK    2  A    between atoms: C_9  and  N_12 
REMARK    3  A    between atoms: C_16  and  C_28 
ROOT
HETATM    1  C   UNK N   1      32.584  22.977  -6.708  0.00  0.00     0.036 C 
HETATM    2  C   UNK N   1      33.017  23.291  -5.284  0.00  0.00     0.069 C 
HETATM    3  C   UNK N   1      34.489  23.669  -5.326  0.00  0.00     0.036 C 
HETATM    4  C   UNK N   1      32.887  22.066  -4.482  0.00  0.00     0.073 C 
HETATM    5  N   UNK N   1      32.804  21.098  -3.853  0.00  0.00    -0.196 NA
ENDROOT
BRANCH   2   6
HETATM    6  C   UNK N   1      32.234  24.441  -4.673  0.00  0.00    -0.036 A 
HETATM    7  C   UNK N   1      32.498  25.745  -5.092  0.00  0.00     0.011 A 
HETATM    8  C   UNK N   1      31.702  26.801  -4.662  0.00  0.00     0.031 A 
HETATM    9  C   UNK N   1      30.615  26.608  -3.815  0.00  0.00     0.044 A 
HETATM   10  C   UNK N   1      30.393  25.306  -3.327  0.00  0.00     0.031 A 
HETATM   11  C   UNK N   1      31.189  24.231  -3.753  0.00  0.00     0.011 A 
BRANCH   9  12
HETATM   12  N   UNK N   1      29.687  27.691  -3.491  0.00  0.00    -0.261 N 
HETATM   13  C   UNK N   1      28.361  27.901  -3.816  0.00  0.00     0.085 A 
HETATM   14  C   UNK N   1      27.424  27.151  -4.573  0.00  0.00     0.021 A 
HETATM   15  C   UNK N   1      27.937  29.060  -3.204  0.00  0.00     0.082 A 
HETATM   16  C   UNK N   1      27.732  25.961  -5.204  0.00  0.00     0.028 A 
HETATM   17  C   UNK N   1      26.091  27.639  -4.667  0.00  0.00     0.044 A 
HETATM   18  C   UNK N   1      26.794  25.222  -5.924  0.00  0.00    -0.024 A 
HETATM   19  C   UNK N   1      25.478  25.699  -6.008  0.00  0.00     0.014 A 
HETATM   20  C   UNK N   1      25.130  26.907  -5.383  0.00  0.00     0.031 A 
HETATM   21  N   UNK N   1      25.737  28.807  -4.048  0.00  0.00    -0.363 N 
HETATM   22  C   UNK N   1      26.632  29.531  -3.317  0.00  0.00     0.120 A 
ATOM     23  HN  UNK N   1      24.779  29.145  -4.137  1.00  0.00     0.165 HD
HETATM   24  N   UNK N   1      28.943  29.599  -2.502  0.00  0.00    -0.300 N 
HETATM   25  C   UNK N   1      29.995  28.757  -2.677  0.00  0.00     0.334 A 
HETATM   26  C   UNK N   1      28.908  30.811  -1.697  0.00  0.00     0.161 C 
HETATM   27  O   UNK N   1      31.088  28.938  -2.163  0.00  0.00    -0.246 OA
BRANCH  18  28
HETATM   28  C   UNK N   1      27.233  23.963  -6.575  0.00  0.00    -0.010 A 
HETATM   29  C   UNK N   1      28.252  23.205  -5.985  0.00  0.00     0.027 A 
HETATM   30  C   UNK N   1      28.692  22.029  -6.570  0.00  0.00    -0.009 A 
HETATM   31  C   UNK N   1      29.717  21.285  -5.982  0.00  0.00     0.014 A 
HETATM   32  C   UNK N   1      28.093  21.595  -7.766  0.00  0.00     0.042 A 
HETATM   33  C   UNK N   1      30.151  20.102  -6.583  0.00  0.00     0.001 A 
HETATM   34  C   UNK N   1      29.556  19.661  -7.770  0.00  0.00     0.002 A 
HETATM   35  C   UNK N   1      28.527  20.406  -8.363  0.00  0.00     0.030 A 
HETATM   36  N   UNK N   1      27.100  22.334  -8.336  0.00  0.00    -0.364 N 
HETATM   37  C   UNK N   1      26.666  23.500  -7.773  0.00  0.00     0.100 A 
ATOM     38  HN  UNK N   1      26.671  22.009  -9.202  1.00  0.00     0.165 HD
ENDBRANCH  18  28
ENDBRANCH   9  12
ENDBRANCH   2   6
TORSDOF 3
ENDMDL
MODEL 2
REMARK VINA RESULT:      -8.4     13.782     15.365
REMARK  3 active torsions:
REMARK  status: ('A' for Active; 'I' for Inactive)
REMARK    1  A    between atoms: C_2  and  C_6 
REMARK    2  A    between atoms: C_9  and  N_12 
REMARK    3  A    between atoms: C_16  and  C_28 
ROOT
HETATM    1  C   UNK N   1      24.097  11.831   6.733  0.00  0.00     0.036 C 
HETATM    2  C   UNK N   1      23.782  12.988   7.668  0.00  0.00     0.069 C 
HETATM    3  C   UNK N   1      25.027  13.256   8.499  0.00  0.00     0.036 C 
HETATM    4  C   UNK N   1      22.710  12.565   8.580  0.00  0.00     0.073 C 
HETATM    5  N   UNK N   1      21.880  12.229   9.313  0.00  0.00    -0.196 NA
ENDROOT
BRANCH   2   6
HETATM    6  C   UNK N   1      23.409  14.259   6.923  0.00  0.00    -0.036 A 
HETATM    7  C   UNK N   1      23.886  14.455   5.627  0.00  0.00     0.011 A 
HETATM    8  C   UNK N   1      23.447  15.532   4.867  0.00  0.00     0.031 A 
HETATM    9  C   UNK N   1      22.517  16.447   5.352  0.00  0.00     0.044 A 
HETATM   10  C   UNK N   1      22.093  16.298   6.686  0.00  0.00     0.031 A 
HETATM   11  C   UNK N   1      22.529  15.214   7.464  0.00  0.00     0.011 A 
BRANCH   9  12
HETATM   12  N   UNK N   1      21.938  17.485   4.500  0.00  0.00    -0.261 N 
HETATM   13  C   UNK N   1      22.491  18.588   3.880  0.00  0.00     0.085 A 
HETATM   14  C   UNK N   1      23.809  19.113   3.844  0.00  0.00     0.021 A 
HETATM   15  C   UNK N   1      21.514  19.213   3.138  0.00  0.00     0.082 A 
HETATM   16  C   UNK N   1      24.872  18.551   4.525  0.00  0.00     0.028 A 
HETATM   17  C   UNK N   1      24.053  20.265   3.044  0.00  0.00     0.044 A 
HETATM   18  C   UNK N   1      26.168  19.064   4.460  0.00  0.00    -0.024 A 
HETATM   19  C   UNK N   1      26.408  20.193   3.664  0.00  0.00     0.014 A 
HETATM   20  C   UNK N   1      25.352  20.792   2.962  0.00  0.00     0.031 A 
HETATM   21  N   UNK N   1      23.034  20.848   2.342  0.00  0.00    -0.363 N 
HETATM   22  C   UNK N   1      21.765  20.347   2.371  0.00  0.00     0.120 A 
ATOM     23  HN  UNK N   1      23.228  21.678   1.785  1.00  0.00     0.165 HD
HETATM   24  N   UNK N   1      20.355  18.550   3.261  0.00  0.00    -0.300 N 
HETATM   25  C   UNK N   1      20.627  17.501   4.082  0.00  0.00     0.334 A 
HETATM   26  C   UNK N   1      19.085  18.866   2.626  0.00  0.00     0.161 C 
HETATM   27  O   UNK N   1      19.790  16.672   4.404  0.00  0.00    -0.246 OA
BRANCH  18  28
HETATM   28  C   UNK N   1      27.235  18.392   5.242  0.00  0.00    -0.010 A 
HETATM   29  C   UNK N   1      27.611  18.921   6.484  0.00  0.00     0.027 A 
HETATM   30  C   UNK N   1      28.609  18.324   7.236  0.00  0.00    -0.009 A 
HETATM   31  C   UNK N   1      28.987  18.865   8.468  0.00  0.00     0.014 A 
HETATM   32  C   UNK N   1      29.239  17.168   6.743  0.00  0.00     0.042 A 
HETATM   33  C   UNK N   1      29.995  18.253   9.216  0.00  0.00     0.001 A 
HETATM   34  C   UNK N   1      30.622  17.099   8.733  0.00  0.00     0.002 A 
HETATM   35  C   UNK N   1      30.246  16.555   7.497  0.00  0.00     0.030 A 
HETATM   36  N   UNK N   1      28.869  16.656   5.536  0.00  0.00    -0.364 N 
HETATM   37  C   UNK N   1      27.893  17.241   4.781  0.00  0.00     0.100 A 
ATOM     38  HN  UNK N   1      29.330  15.815   5.188  1.00  0.00     0.165 HD
ENDBRANCH  18  28
ENDBRANCH   9  12
ENDBRANCH   2   6
TORSDOF 3
ENDMDL
MODEL 3
REMARK VINA RESULT:      -8.3      3.355      7.957
REMARK  3 active torsions:
REMARK  status: ('A' for Active; 'I' for Inactive)
REMARK    1  A    between atoms: C_2  and  C_6 
REMARK    2  A    between atoms: C_9  and  N_12 
REMARK    3  A    between atoms: C_16  and  C_28 
ROOT
HETATM    1  C   UNK N   1      28.055  23.737 -10.864  0.00  0.00     0.036 C 
HETATM    2  C   UNK N   1      27.657  22.393 -10.274  0.00  0.00     0.069 C 
HETATM    3  C   UNK N   1      27.301  21.473 -11.432  0.00  0.00     0.036 C 
HETATM    4  C   UNK N   1      26.448  22.586  -9.461  0.00  0.00     0.073 C 
HETATM    5  N   UNK N   1      25.486  22.731  -8.836  0.00  0.00    -0.196 NA
ENDROOT
BRANCH   2   6
HETATM    6  C   UNK N   1      28.774  21.752  -9.467  0.00  0.00    -0.036 A 
HETATM    7  C   UNK N   1      30.056  22.299  -9.523  0.00  0.00     0.011 A 
HETATM    8  C   UNK N   1      31.063  21.829  -8.688  0.00  0.00     0.031 A 
HETATM    9  C   UNK N   1      30.840  20.813  -7.763  0.00  0.00     0.044 A 
HETATM   10  C   UNK N   1      29.569  20.205  -7.758  0.00  0.00     0.031 A 
HETATM   11  C   UNK N   1      28.545  20.671  -8.596  0.00  0.00     0.011 A 
BRANCH   9  12
HETATM   12  N   UNK N   1      31.851  20.429  -6.779  0.00  0.00    -0.261 N 
HETATM   13  C   UNK N   1      32.050  20.801  -5.464  0.00  0.00     0.085 A 
HETATM   14  C   UNK N   1      31.355  21.682  -4.596  0.00  0.00     0.021 A 
HETATM   15  C   UNK N   1      33.123  20.096  -4.965  0.00  0.00     0.082 A 
HETATM   16  C   UNK N   1      30.250  22.416  -4.981  0.00  0.00     0.028 A 
HETATM   17  C   UNK N   1      31.806  21.797  -3.251  0.00  0.00     0.044 A 
HETATM   18  C   UNK N   1      29.561  23.259  -4.109  0.00  0.00    -0.024 A 
HETATM   19  C   UNK N   1      30.000  23.364  -2.782  0.00  0.00     0.014 A 
HETATM   20  C   UNK N   1      31.122  22.636  -2.356  0.00  0.00     0.031 A 
HETATM   21  N   UNK N   1      32.889  21.079  -2.821  0.00  0.00    -0.363 N 
HETATM   22  C   UNK N   1      33.560  20.229  -3.650  0.00  0.00     0.120 A 
ATOM     23  HN  UNK N   1      33.202  21.184  -1.857  1.00  0.00     0.165 HD
HETATM   24  N   UNK N   1      33.618  19.287  -5.913  0.00  0.00    -0.300 N 
HETATM   25  C   UNK N   1      32.834  19.493  -7.004  0.00  0.00     0.334 A 
HETATM   26  C   UNK N   1      34.735  18.364  -5.791  0.00  0.00     0.161 C 
HETATM   27  O   UNK N   1      32.995  18.904  -8.062  0.00  0.00    -0.246 OA
BRANCH  18  28
HETATM   28  C   UNK N   1      28.393  24.014  -4.628  0.00  0.00    -0.010 A 
HETATM   29  C   UNK N   1      28.013  25.207  -3.999  0.00  0.00     0.027 A 
HETATM   30  C   UNK N   1      26.924  25.932  -4.452  0.00  0.00    -0.009 A 
HETATM   31  C   UNK N   1      26.544  27.114  -3.813  0.00  0.00     0.014 A 
HETATM   32  C   UNK N   1      26.203  25.461  -5.564  0.00  0.00     0.042 A 
HETATM   33  C   UNK N   1      25.444  27.835  -4.280  0.00  0.00     0.001 A 
HETATM   34  C   UNK N   1      24.725  27.375  -5.389  0.00  0.00     0.002 A 
HETATM   35  C   UNK N   1      25.103  26.189  -6.032  0.00  0.00     0.030 A 
HETATM   36  N   UNK N   1      26.577  24.301  -6.174  0.00  0.00    -0.364 N 
HETATM   37  C   UNK N   1      27.644  23.573  -5.730  0.00  0.00     0.100 A 
ATOM     38  HN  UNK N   1      26.049  23.970  -6.981  1.00  0.00     0.165 HD
ENDBRANCH  18  28
ENDBRANCH   9  12
ENDBRANCH   2   6
TORSDOF 3
ENDMDL
MODEL 4
REMARK VINA RESULT:      -8.2     13.108     14.636
REMARK  3 active torsions:
REMARK  status: ('A' for Active; 'I' for Inactive)
REMARK    1  A    between atoms: C_2  and  C_6 
REMARK    2  A    between atoms: C_9  and  N_12 
REMARK    3  A    between atoms: C_16  and  C_28 
ROOT
HETATM    1  C   UNK N   1      24.474  11.569   6.231  0.00  0.00     0.036 C 
HETATM    2  C   UNK N   1      24.925  12.994   6.514  0.00  0.00     0.069 C 
HETATM    3  C   UNK N   1      26.332  13.147   5.957  0.00  0.00     0.036 C 
HETATM    4  C   UNK N   1      24.992  13.176   7.970  0.00  0.00     0.073 C 
HETATM    5  N   UNK N   1      25.064  13.317   9.116  0.00  0.00    -0.196 NA
ENDROOT
BRANCH   2   6
HETATM    6  C   UNK N   1      24.026  14.033   5.863  0.00  0.00    -0.036 A 
HETATM    7  C   UNK N   1      23.405  14.993   6.662  0.00  0.00     0.011 A 
HETATM    8  C   UNK N   1      22.697  16.041   6.086  0.00  0.00     0.031 A 
HETATM    9  C   UNK N   1      22.585  16.186   4.706  0.00  0.00     0.044 A 
HETATM   10  C   UNK N   1      23.143  15.176   3.899  0.00  0.00     0.031 A 
HETATM   11  C   UNK N   1      23.861  14.112   4.468  0.00  0.00     0.011 A 
BRANCH   9  12
HETATM   12  N   UNK N   1      21.977  17.370   4.101  0.00  0.00    -0.261 N 
HETATM   13  C   UNK N   1      22.515  18.564   3.663  0.00  0.00     0.085 A 
HETATM   14  C   UNK N   1      23.839  19.073   3.641  0.00  0.00     0.021 A 
HETATM   15  C   UNK N   1      21.507  19.326   3.114  0.00  0.00     0.082 A 
HETATM   16  C   UNK N   1      24.930  18.385   4.136  0.00  0.00     0.028 A 
HETATM   17  C   UNK N   1      24.059  20.352   3.056  0.00  0.00     0.044 A 
HETATM   18  C   UNK N   1      26.229  18.887   4.084  0.00  0.00    -0.024 A 
HETATM   19  C   UNK N   1      26.445  20.143   3.499  0.00  0.00     0.014 A 
HETATM   20  C   UNK N   1      25.361  20.874   2.989  0.00  0.00     0.031 A 
HETATM   21  N   UNK N   1      23.011  21.066   2.541  0.00  0.00    -0.363 N 
HETATM   22  C   UNK N   1      21.736  20.581   2.558  0.00  0.00     0.120 A 
ATOM     23  HN  UNK N   1      23.188  21.985   2.136  1.00  0.00     0.165 HD
HETATM   24  N   UNK N   1      20.345  18.663   3.186  0.00  0.00    -0.300 N 
HETATM   25  C   UNK N   1      20.644  17.477   3.778  0.00  0.00     0.334 A 
HETATM   26  C   UNK N   1      19.045  19.105   2.704  0.00  0.00     0.161 C 
HETATM   27  O   UNK N   1      19.811  16.610   3.994  0.00  0.00    -0.246 OA
BRANCH  18  28
HETATM   28  C   UNK N   1      27.328  18.071   4.658  0.00  0.00    -0.010 A 
HETATM   29  C   UNK N   1      27.634  16.831   4.081  0.00  0.00     0.027 A 
HETATM   30  C   UNK N   1      28.648  16.040   4.595  0.00  0.00    -0.009 A 
HETATM   31  C   UNK N   1      28.939  14.800   4.022  0.00  0.00     0.014 A 
HETATM   32  C   UNK N   1      29.379  16.501   5.704  0.00  0.00     0.042 A 
HETATM   33  C   UNK N   1      29.963  14.012   4.551  0.00  0.00     0.001 A 
HETATM   34  C   UNK N   1      30.698  14.468   5.652  0.00  0.00     0.002 A 
HETATM   35  C   UNK N   1      30.408  15.711   6.229  0.00  0.00     0.030 A 
HETATM   36  N   UNK N   1      29.080  17.709   6.261  0.00  0.00    -0.364 N 
HETATM   37  C   UNK N   1      28.076  18.493   5.768  0.00  0.00     0.100 A 
ATOM     38  HN  UNK N   1      29.618  18.035   7.064  1.00  0.00     0.165 HD
ENDBRANCH  18  28
ENDBRANCH   9  12
ENDBRANCH   2   6
TORSDOF 3
ENDMDL
MODEL 5
REMARK VINA RESULT:      -8.0     12.165     15.400
REMARK  3 active torsions:
REMARK  status: ('A' for Active; 'I' for Inactive)
REMARK    1  A    between atoms: C_2  and  C_6 
REMARK    2  A    between atoms: C_9  and  N_12 
REMARK    3  A    between atoms: C_16  and  C_28 
ROOT
HETATM    1  C   UNK N   1      33.899  16.529   9.344  0.00  0.00     0.036 C 
HETATM    2  C   UNK N   1      33.305  17.084   8.058  0.00  0.00     0.069 C 
HETATM    3  C   UNK N   1      34.148  18.279   7.643  0.00  0.00     0.036 C 
HETATM    4  C   UNK N   1      31.947  17.565   8.347  0.00  0.00     0.073 C 
HETATM    5  N   UNK N   1      30.885  17.963   8.576  0.00  0.00    -0.196 NA
ENDROOT
BRANCH   2   6
HETATM    6  C   UNK N   1      33.306  16.068   6.927  0.00  0.00    -0.036 A 
HETATM    7  C   UNK N   1      32.885  14.763   7.181  0.00  0.00     0.011 A 
HETATM    8  C   UNK N   1      32.736  13.853   6.141  0.00  0.00     0.031 A 
HETATM    9  C   UNK N   1      32.986  14.199   4.816  0.00  0.00     0.044 A 
HETATM   10  C   UNK N   1      33.486  15.491   4.564  0.00  0.00     0.031 A 
HETATM   11  C   UNK N   1      33.641  16.419   5.606  0.00  0.00     0.011 A 
BRANCH   9  12
HETATM   12  N   UNK N   1      32.678  13.293   3.710  0.00  0.00    -0.261 N 
HETATM   13  C   UNK N   1      31.574  13.178   2.888  0.00  0.00     0.085 A 
HETATM   14  C   UNK N   1      30.349  13.890   2.816  0.00  0.00     0.021 A 
HETATM   15  C   UNK N   1      31.818  12.191   1.960  0.00  0.00     0.082 A 
HETATM   16  C   UNK N   1      30.012  14.918   3.676  0.00  0.00     0.028 A 
HETATM   17  C   UNK N   1      29.428  13.542   1.787  0.00  0.00     0.044 A 
HETATM   18  C   UNK N   1      28.815  15.626   3.576  0.00  0.00    -0.024 A 
HETATM   19  C   UNK N   1      27.913  15.288   2.557  0.00  0.00     0.014 A 
HETATM   20  C   UNK N   1      28.220  14.247   1.668  0.00  0.00     0.031 A 
HETATM   21  N   UNK N   1      29.724  12.539   0.905  0.00  0.00    -0.363 N 
HETATM   22  C   UNK N   1      30.902  11.853   0.968  0.00  0.00     0.120 A 
ATOM     23  HN  UNK N   1      29.047  12.298   0.183  1.00  0.00     0.165 HD
HETATM   24  N   UNK N   1      33.036  11.668   2.159  0.00  0.00    -0.300 N 
HETATM   25  C   UNK N   1      33.550  12.349   3.217  0.00  0.00     0.334 A 
HETATM   26  C   UNK N   1      33.684  10.619   1.388  0.00  0.00     0.161 C 
HETATM   27  O   UNK N   1      34.664  12.138   3.669  0.00  0.00    -0.246 OA
BRANCH  18  28
HETATM   28  C   UNK N   1      28.545  16.704   4.560  0.00  0.00    -0.010 A 
HETATM   29  C   UNK N   1      28.047  17.933   4.110  0.00  0.00     0.027 A 
HETATM   30  C   UNK N   1      27.792  18.964   5.000  0.00  0.00    -0.009 A 
HETATM   31  C   UNK N   1      27.308  20.191   4.542  0.00  0.00     0.014 A 
HETATM   32  C   UNK N   1      28.030  18.759   6.370  0.00  0.00     0.042 A 
HETATM   33  C   UNK N   1      27.055  21.222   5.449  0.00  0.00     0.001 A 
HETATM   34  C   UNK N   1      27.284  21.022   6.816  0.00  0.00     0.002 A 
HETATM   35  C   UNK N   1      27.771  19.792   7.278  0.00  0.00     0.030 A 
HETATM   36  N   UNK N   1      28.512  17.560   6.804  0.00  0.00    -0.364 N 
HETATM   37  C   UNK N   1      28.776  16.540   5.934  0.00  0.00     0.100 A 
ATOM     38  HN  UNK N   1      28.678  17.421   7.801  1.00  0.00     0.165 HD
ENDBRANCH  18  28
ENDBRANCH   9  12
ENDBRANCH   2   6
TORSDOF 3
ENDMDL
MODEL 6
REMARK VINA RESULT:      -7.7     13.173     15.831
REMARK  3 active torsions:
REMARK  status: ('A' for Active; 'I' for Inactive)
REMARK    1  A    between atoms: C_2  and  C_6 
REMARK    2  A    between atoms: C_9  and  N_12 
REMARK    3  A    between atoms: C_16  and  C_28 
ROOT
HETATM    1  C   UNK N   1      33.555  11.432   4.971  0.00  0.00     0.036 C 
HETATM    2  C   UNK N   1      33.701  12.671   4.101  0.00  0.00     0.069 C 
HETATM    3  C   UNK N   1      34.074  12.206   2.702  0.00  0.00     0.036 C 
HETATM    4  C   UNK N   1      34.815  13.473   4.624  0.00  0.00     0.073 C 
HETATM    5  N   UNK N   1      35.705  14.097   5.022  0.00  0.00    -0.196 NA
ENDROOT
BRANCH   2   6
HETATM    6  C   UNK N   1      32.420  13.485   4.020  0.00  0.00    -0.036 A 
HETATM    7  C   UNK N   1      31.270  13.012   4.652  0.00  0.00     0.011 A 
HETATM    8  C   UNK N   1      30.126  13.799   4.721  0.00  0.00     0.031 A 
HETATM    9  C   UNK N   1      30.078  15.080   4.179  0.00  0.00     0.044 A 
HETATM   10  C   UNK N   1      31.210  15.530   3.472  0.00  0.00     0.031 A 
HETATM   11  C   UNK N   1      32.371  14.745   3.395  0.00  0.00     0.011 A 
BRANCH   9  12
HETATM   12  N   UNK N   1      28.933  15.965   4.389  0.00  0.00    -0.261 N 
HETATM   13  C   UNK N   1      28.638  16.876   5.385  0.00  0.00     0.085 A 
HETATM   14  C   UNK N   1      29.330  17.281   6.555  0.00  0.00     0.021 A 
HETATM   15  C   UNK N   1      27.448  17.496   5.074  0.00  0.00     0.082 A 
HETATM   16  C   UNK N   1      30.543  16.748   6.947  0.00  0.00     0.028 A 
HETATM   17  C   UNK N   1      28.755  18.309   7.355  0.00  0.00     0.044 A 
HETATM   18  C   UNK N   1      31.224  17.176   8.087  0.00  0.00    -0.024 A 
HETATM   19  C   UNK N   1      30.661  18.194   8.868  0.00  0.00     0.014 A 
HETATM   20  C   UNK N   1      29.427  18.756   8.503  0.00  0.00     0.031 A 
HETATM   21  N   UNK N   1      27.561  18.874   6.999  0.00  0.00    -0.363 N 
HETATM   22  C   UNK N   1      26.892  18.490   5.874  0.00  0.00     0.120 A 
ATOM     23  HN  UNK N   1      27.161  19.601   7.591  1.00  0.00     0.165 HD
HETATM   24  N   UNK N   1      26.971  17.015   3.918  0.00  0.00    -0.300 N 
HETATM   25  C   UNK N   1      27.883  16.094   3.509  0.00  0.00     0.334 A 
HETATM   26  C   UNK N   1      25.754  17.416   3.230  0.00  0.00     0.161 C 
HETATM   27  O   UNK N   1      27.771  15.459   2.472  0.00  0.00    -0.246 OA
BRANCH  18  28
HETATM   28  C   UNK N   1      32.515  16.527   8.425  0.00  0.00    -0.010 A 
HETATM   29  C   UNK N   1      32.677  15.156   8.185  0.00  0.00     0.027 A 
HETATM   30  C   UNK N   1      33.866  14.517   8.496  0.00  0.00    -0.009 A 
HETATM   31  C   UNK N   1      34.016  13.148   8.265  0.00  0.00     0.014 A 
HETATM   32  C   UNK N   1      34.920  15.265   9.051  0.00  0.00     0.042 A 
HETATM   33  C   UNK N   1      35.219  12.516   8.584  0.00  0.00     0.001 A 
HETATM   34  C   UNK N   1      36.274  13.256   9.131  0.00  0.00     0.002 A 
HETATM   35  C   UNK N   1      36.126  14.630   9.365  0.00  0.00     0.030 A 
HETATM   36  N   UNK N   1      34.758  16.598   9.281  0.00  0.00    -0.364 N 
HETATM   37  C   UNK N   1      33.587  17.237   8.987  0.00  0.00     0.100 A 
ATOM     38  HN  UNK N   1      35.530  17.132   9.681  1.00  0.00     0.165 HD
ENDBRANCH  18  28
ENDBRANCH   9  12
ENDBRANCH   2   6
TORSDOF 3
ENDMDL
MODEL 7
REMARK VINA RESULT:      -7.6     13.604     16.259
REMARK  3 active torsions:
REMARK  status: ('A' for Active; 'I' for Inactive)
REMARK    1  A    between atoms: C_2  and  C_6 
REMARK    2  A    between atoms: C_9  and  N_12 
REMARK    3  A    between atoms: C_16  and  C_28 
ROOT
HETATM    1  C   UNK N   1      35.660  15.665  12.169  0.00  0.00     0.036 C 
HETATM    2  C   UNK N   1      35.536  14.879  10.873  0.00  0.00     0.069 C 
HETATM    3  C   UNK N   1      35.162  13.451  11.239  0.00  0.00     0.036 C 
HETATM    4  C   UNK N   1      36.854  14.850  10.224  0.00  0.00     0.073 C 
HETATM    5  N   UNK N   1      37.894  14.808   9.720  0.00  0.00    -0.196 NA
ENDROOT
BRANCH   2   6
HETATM    6  C   UNK N   1      34.471  15.440   9.946  0.00  0.00    -0.036 A 
HETATM    7  C   UNK N   1      33.322  14.691   9.693  0.00  0.00     0.011 A 
HETATM    8  C   UNK N   1      32.267  15.235   8.970  0.00  0.00     0.031 A 
HETATM    9  C   UNK N   1      32.303  16.537   8.480  0.00  0.00     0.044 A 
HETATM   10  C   UNK N   1      33.492  17.269   8.665  0.00  0.00     0.031 A 
HETATM   11  C   UNK N   1      34.563  16.731   9.393  0.00  0.00     0.011 A 
BRANCH   9  12
HETATM   12  N   UNK N   1      31.135  17.160   7.858  0.00  0.00    -0.261 N 
HETATM   13  C   UNK N   1      30.702  17.213   6.548  0.00  0.00     0.085 A 
HETATM   14  C   UNK N   1      31.226  16.689   5.339  0.00  0.00     0.021 A 
HETATM   15  C   UNK N   1      29.499  17.882   6.509  0.00  0.00     0.082 A 
HETATM   16  C   UNK N   1      32.409  15.978   5.265  0.00  0.00     0.028 A 
HETATM   17  C   UNK N   1      30.482  16.885   4.141  0.00  0.00     0.044 A 
HETATM   18  C   UNK N   1      32.898  15.446   4.072  0.00  0.00    -0.024 A 
HETATM   19  C   UNK N   1      32.159  15.632   2.895  0.00  0.00     0.014 A 
HETATM   20  C   UNK N   1      30.956  16.353   2.931  0.00  0.00     0.031 A 
HETATM   21  N   UNK N   1      29.300  17.573   4.168  0.00  0.00    -0.363 N 
HETATM   22  C   UNK N   1      28.789  18.078   5.328  0.00  0.00     0.120 A 
ATOM     23  HN  UNK N   1      28.788  17.713   3.297  1.00  0.00     0.165 HD
HETATM   24  N   UNK N   1      29.146  18.259   7.746  0.00  0.00    -0.300 N 
HETATM   25  C   UNK N   1      30.142  17.810   8.555  0.00  0.00     0.334 A 
HETATM   26  C   UNK N   1      27.942  18.971   8.143  0.00  0.00     0.161 C 
HETATM   27  O   UNK N   1      30.142  17.971   9.766  0.00  0.00    -0.246 OA
BRANCH  18  28
HETATM   28  C   UNK N   1      34.187  14.709   4.101  0.00  0.00    -0.010 A 
HETATM   29  C   UNK N   1      34.965  14.736   5.265  0.00  0.00     0.027 A 
HETATM   30  C   UNK N   1      36.177  14.066   5.324  0.00  0.00    -0.009 A 
HETATM   31  C   UNK N   1      36.953  14.108   6.484  0.00  0.00     0.014 A 
HETATM   32  C   UNK N   1      36.615  13.345   4.200  0.00  0.00     0.042 A 
HETATM   33  C   UNK N   1      38.172  13.429   6.530  0.00  0.00     0.001 A 
HETATM   34  C   UNK N   1      38.612  12.705   5.416  0.00  0.00     0.002 A 
HETATM   35  C   UNK N   1      37.835  12.662   4.250  0.00  0.00     0.030 A 
HETATM   36  N   UNK N   1      35.853  13.320   3.070  0.00  0.00    -0.364 N 
HETATM   37  C   UNK N   1      34.662  13.985   2.998  0.00  0.00     0.100 A 
ATOM     38  HN  UNK N   1      36.179  12.792   2.261  1.00  0.00     0.165 HD
ENDBRANCH  18  28
ENDBRANCH   9  12
ENDBRANCH   2   6
TORSDOF 3
ENDMDL
MODEL 8
REMARK VINA RESULT:      -7.6      3.848      7.595
REMARK  3 active torsions:
REMARK  status: ('A' for Active; 'I' for Inactive)
REMARK    1  A    between atoms: C_2  and  C_6 
REMARK    2  A    between atoms: C_9  and  N_12 
REMARK    3  A    between atoms: C_16  and  C_28 
ROOT
HETATM    1  C   UNK N   1      32.698  18.457 -10.936  0.00  0.00     0.036 C 
HETATM    2  C   UNK N   1      31.508  17.851 -10.209  0.00  0.00     0.069 C 
HETATM    3  C   UNK N   1      32.051  16.867  -9.184  0.00  0.00     0.036 C 
HETATM    4  C   UNK N   1      30.708  17.095 -11.182  0.00  0.00     0.073 C 
HETATM    5  N   UNK N   1      30.086  16.483 -11.943  0.00  0.00    -0.196 NA
ENDROOT
BRANCH   2   6
HETATM    6  C   UNK N   1      30.668  18.893  -9.489  0.00  0.00    -0.036 A 
HETATM    7  C   UNK N   1      29.806  18.490  -8.470  0.00  0.00     0.011 A 
HETATM    8  C   UNK N   1      29.136  19.430  -7.696  0.00  0.00     0.031 A 
HETATM    9  C   UNK N   1      29.299  20.798  -7.891  0.00  0.00     0.044 A 
HETATM   10  C   UNK N   1      30.108  21.209  -8.969  0.00  0.00     0.031 A 
HETATM   11  C   UNK N   1      30.789  20.269  -9.758  0.00  0.00     0.011 A 
BRANCH   9  12
HETATM   12  N   UNK N   1      28.721  21.783  -6.979  0.00  0.00    -0.261 N 
HETATM   13  C   UNK N   1      29.131  22.258  -5.748  0.00  0.00     0.085 A 
HETATM   14  C   UNK N   1      30.251  21.966  -4.928  0.00  0.00     0.021 A 
HETATM   15  C   UNK N   1      28.249  23.232  -5.336  0.00  0.00     0.082 A 
HETATM   16  C   UNK N   1      31.213  21.030  -5.256  0.00  0.00     0.028 A 
HETATM   17  C   UNK N   1      30.404  22.693  -3.714  0.00  0.00     0.044 A 
HETATM   18  C   UNK N   1      32.323  20.772  -4.452  0.00  0.00    -0.024 A 
HETATM   19  C   UNK N   1      32.477  21.496  -3.261  0.00  0.00     0.014 A 
HETATM   20  C   UNK N   1      31.518  22.451  -2.894  0.00  0.00     0.031 A 
HETATM   21  N   UNK N   1      29.483  23.638  -3.354  0.00  0.00    -0.363 N 
HETATM   22  C   UNK N   1      28.405  23.925  -4.139  0.00  0.00     0.120 A 
ATOM     23  HN  UNK N   1      29.605  24.140  -2.475  1.00  0.00     0.165 HD
HETATM   24  N   UNK N   1      27.289  23.397  -6.257  0.00  0.00    -0.300 N 
HETATM   25  C   UNK N   1      27.590  22.520  -7.251  0.00  0.00     0.334 A 
HETATM   26  C   UNK N   1      26.180  24.337  -6.218  0.00  0.00     0.161 C 
HETATM   27  O   UNK N   1      26.923  22.409  -8.267  0.00  0.00    -0.246 OA
BRANCH  18  28
HETATM   28  C   UNK N   1      33.291  19.735  -4.891  0.00  0.00    -0.010 A 
HETATM   29  C   UNK N   1      33.618  19.635  -6.250  0.00  0.00     0.027 A 
HETATM   30  C   UNK N   1      34.511  18.675  -6.695  0.00  0.00    -0.009 A 
HETATM   31  C   UNK N   1      34.823  18.573  -8.053  0.00  0.00     0.014 A 
HETATM   32  C   UNK N   1      35.098  17.801  -5.762  0.00  0.00     0.042 A 
HETATM   33  C   UNK N   1      35.724  17.600  -8.488  0.00  0.00     0.001 A 
HETATM   34  C   UNK N   1      36.316  16.731  -7.564  0.00  0.00     0.002 A 
HETATM   35  C   UNK N   1      36.004  16.830  -6.202  0.00  0.00     0.030 A 
HETATM   36  N   UNK N   1      34.778  17.904  -4.442  0.00  0.00    -0.364 N 
HETATM   37  C   UNK N   1      33.891  18.841  -3.993  0.00  0.00     0.100 A 
ATOM     38  HN  UNK N   1      35.211  17.267  -3.773  1.00  0.00     0.165 HD
ENDBRANCH  18  28
ENDBRANCH   9  12
ENDBRANCH   2   6
TORSDOF 3
ENDMDL
MODEL 9
REMARK VINA RESULT:      -7.6     25.225     28.237
REMARK  3 active torsions:
REMARK  status: ('A' for Active; 'I' for Inactive)
REMARK    1  A    between atoms: C_2  and  C_6 
REMARK    2  A    between atoms: C_9  and  N_12 
REMARK    3  A    between atoms: C_16  and  C_28 
ROOT
HETATM    1  C   UNK N   1      34.969   4.835  17.142  0.00  0.00     0.036 C 
HETATM    2  C   UNK N   1      36.395   5.355  17.233  0.00  0.00     0.069 C 
HETATM    3  C   UNK N   1      37.324   4.209  16.867  0.00  0.00     0.036 C 
HETATM    4  C   UNK N   1      36.662   5.726  18.630  0.00  0.00     0.073 C 
HETATM    5  N   UNK N   1      36.882   6.001  19.732  0.00  0.00    -0.196 NA
ENDROOT
BRANCH   2   6
HETATM    6  C   UNK N   1      36.657   6.517  16.289  0.00  0.00    -0.036 A 
HETATM    7  C   UNK N   1      35.721   6.816  15.299  0.00  0.00     0.011 A 
HETATM    8  C   UNK N   1      35.859   7.956  14.516  0.00  0.00     0.031 A 
HETATM    9  C   UNK N   1      36.915   8.846  14.688  0.00  0.00     0.044 A 
HETATM   10  C   UNK N   1      37.904   8.507  15.632  0.00  0.00     0.031 A 
HETATM   11  C   UNK N   1      37.776   7.358  16.429  0.00  0.00     0.011 A 
BRANCH   9  12
HETATM   12  N   UNK N   1      36.974  10.122  13.976  0.00  0.00    -0.261 N 
HETATM   13  C   UNK N   1      36.636  11.407  14.352  0.00  0.00     0.085 A 
HETATM   14  C   UNK N   1      36.116  11.954  15.553  0.00  0.00     0.021 A 
HETATM   15  C   UNK N   1      36.943  12.263  13.317  0.00  0.00     0.082 A 
HETATM   16  C   UNK N   1      35.800  11.195  16.663  0.00  0.00     0.028 A 
HETATM   17  C   UNK N   1      35.930  13.364  15.625  0.00  0.00     0.044 A 
HETATM   18  C   UNK N   1      35.313  11.750  17.846  0.00  0.00    -0.024 A 
HETATM   19  C   UNK N   1      35.140  13.139  17.919  0.00  0.00     0.014 A 
HETATM   20  C   UNK N   1      35.445  13.942  16.810  0.00  0.00     0.031 A 
HETATM   21  N   UNK N   1      36.240  14.158  14.555  0.00  0.00    -0.363 N 
HETATM   22  C   UNK N   1      36.744  13.638  13.398  0.00  0.00     0.120 A 
ATOM     23  HN  UNK N   1      36.090  15.163  14.624  1.00  0.00     0.165 HD
HETATM   24  N   UNK N   1      37.463  11.572  12.293  0.00  0.00    -0.300 N 
HETATM   25  C   UNK N   1      37.483  10.277  12.707  0.00  0.00     0.334 A 
HETATM   26  C   UNK N   1      37.935  12.098  11.021  0.00  0.00     0.161 C 
HETATM   27  O   UNK N   1      37.911   9.364  12.020  0.00  0.00    -0.246 OA
BRANCH  18  28
HETATM   28  C   UNK N   1      34.992  10.842  18.975  0.00  0.00    -0.010 A 
HETATM   29  C   UNK N   1      34.433   9.586  18.707  0.00  0.00     0.027 A 
HETATM   30  C   UNK N   1      34.115   8.716  19.738  0.00  0.00    -0.009 A 
HETATM   31  C   UNK N   1      33.546   7.471  19.463  0.00  0.00     0.014 A 
HETATM   32  C   UNK N   1      34.369   9.106  21.065  0.00  0.00     0.042 A 
HETATM   33  C   UNK N   1      33.229   6.604  20.512  0.00  0.00     0.001 A 
HETATM   34  C   UNK N   1      33.485   6.984  21.834  0.00  0.00     0.002 A 
HETATM   35  C   UNK N   1      34.055   8.234  22.113  0.00  0.00     0.030 A 
HETATM   36  N   UNK N   1      34.915  10.328  21.320  0.00  0.00    -0.364 N 
HETATM   37  C   UNK N   1      35.224  11.197  20.313  0.00  0.00     0.100 A 
ATOM     38  HN  UNK N   1      35.098  10.600  22.286  1.00  0.00     0.165 HD
ENDBRANCH  18  28
ENDBRANCH   9  12
ENDBRANCH   2   6
TORSDOF 3
ENDMDL
