MODEL 1
REMARK VINA RESULT:      -9.3      0.000      0.000
REMARK  11 active torsions:
REMARK  status: ('A' for Active; 'I' for Inactive)
REMARK    1  A    between atoms: C_3  and  O_16 
REMARK    2  A    between atoms: C_6  and  N_7 
REMARK    3  A    between atoms: C_9  and  C_13 
REMARK    4  A    between atoms: C_13  and  O_14 
REMARK    5  A    between atoms: O_16  and  C_17 
REMARK    6  A    between atoms: C_17  and  C_18 
REMARK    7  A    between atoms: C_18  and  O_42 
REMARK    8  A    between atoms: N_21  and  C_24 
REMARK    9  A    between atoms: C_33  and  C_39 
REMARK   10  A    between atoms: N_35  and  C_36 
REMARK   11  A    between atoms: C_39  and  O_41 
ROOT
HETATM    1  C   UNK N   1      30.687  16.620   3.897  0.00  0.00     0.083 C 
HETATM    2  C   UNK N   1      30.274  17.802   4.800  0.00  0.00     0.060 C 
HETATM    3  C   UNK N   1      28.826  17.724   5.303  0.00  0.00     0.126 C 
HETATM    4  N   UNK N   1      27.917  17.373   4.227  0.00  0.00    -0.378 N 
HETATM    5  C   UNK N   1      28.243  16.228   3.414  0.00  0.00     0.126 C 
HETATM    6  C   UNK N   1      29.625  16.454   2.791  0.00  0.00     0.060 C 
ENDROOT
BRANCH   1   7
HETATM    7  C   UNK N   1      30.928  15.312   4.694  0.00  0.00     0.213 C 
BRANCH   7   8
HETATM    8  O   UNK N   1      32.260  15.172   5.025  0.00  0.00    -0.345 OA
BRANCH   8   9
HETATM    9  C   UNK N   1      32.797  15.258   6.267  0.00  0.00     0.107 A 
HETATM   10  C   UNK N   1      32.013  15.256   7.435  0.00  0.00     0.042 A 
HETATM   11  C   UNK N   1      32.634  15.288   8.698  0.00  0.00     0.032 A 
HETATM   12  C   UNK N   1      34.039  15.330   8.801  0.00  0.00     0.042 A 
HETATM   13  C   UNK N   1      34.799  15.367   7.626  0.00  0.00     0.075 A 
HETATM   14  C   UNK N   1      34.189  15.336   6.377  0.00  0.00     0.151 A 
HETATM   15  F   UNK N   1      34.957  15.370   5.261  0.00  0.00    -0.203 F 
BRANCH  12  16
HETATM   16  N   UNK N   1      34.718  15.243  10.061  0.00  0.00    -0.291 N 
HETATM   17  C   UNK N   1      34.718  14.055  10.872  0.00  0.00     0.169 A 
HETATM   18  C   UNK N   1      35.391  14.541  12.181  0.00  0.00     0.175 A 
HETATM   19  O   UNK N   1      35.798  15.840  11.913  0.00  0.00    -0.294 OA
HETATM   20  C   UNK N   1      35.366  16.217  10.706  0.00  0.00     0.368 A 
HETATM   21  O   UNK N   1      35.524  17.344  10.268  0.00  0.00    -0.238 OA
BRANCH  18  22
HETATM   22  C   UNK N   1      36.563  13.655  12.554  0.00  0.00     0.198 C 
BRANCH  22  23
HETATM   23  O   UNK N   1      37.541  13.738  11.562  0.00  0.00    -0.398 OA
HETATM   24  H   UNK N   1      37.309  13.841  10.626  0.00  0.00     0.209 HD
ENDBRANCH  22  23
ENDBRANCH  18  22
ENDBRANCH  12  16
ENDBRANCH   8   9
ENDBRANCH   7   8
ENDBRANCH   1   7
BRANCH   1  25
HETATM   25  O   UNK N   1      31.896  16.961   3.295  0.00  0.00    -0.388 OA
HETATM   26  H   UNK N   1      32.328  16.879   2.430  0.00  0.00     0.210 HD
ENDBRANCH   1  25
BRANCH   4  27
HETATM   27  C   UNK N   1      26.690  18.072   4.001  0.00  0.00     0.071 A 
HETATM   28  C   UNK N   1      25.480  17.376   4.133  0.00  0.00     0.063 A 
HETATM   29  C   UNK N   1      24.240  18.000   3.931  0.00  0.00     0.051 A 
HETATM   30  C   UNK N   1      24.216  19.359   3.543  0.00  0.00     0.045 A 
HETATM   31  N   UNK N   1      23.063  17.314   4.123  0.00  0.00    -0.350 N 
HETATM   32  C   UNK N   1      25.425  20.061   3.404  0.00  0.00     0.062 A 
HETATM   33  C   UNK N   1      22.981  19.992   3.322  0.00  0.00     0.202 A 
HETATM   34  C   UNK N   1      26.653  19.436   3.649  0.00  0.00     0.143 A 
HETATM   35  F   UNK N   1      27.797  20.147   3.491  0.00  0.00    -0.204 F 
HETATM   36  O   UNK N   1      22.949  21.161   2.972  0.00  0.00    -0.286 OA
HETATM   37  C   UNK N   1      21.785  19.269   3.516  0.00  0.00     0.104 A 
HETATM   38  C   UNK N   1      21.865  17.938   3.932  0.00  0.00     0.114 A 
BRANCH  37  39
HETATM   39  C   UNK N   1      20.439  19.867   3.312  0.00  0.00     0.181 C 
HETATM   40  O   UNK N   1      19.530  19.213   2.823  0.00  0.00    -0.646 OA
BRANCH  39  41
HETATM   41  O   UNK N   1      20.210  21.147   3.669  0.00  0.00    -0.772 OA
HETATM   42  H   UNK N   1      20.227  21.825   3.023  0.00  0.00     0.167 HD
ENDBRANCH  39  41
ENDBRANCH  37  39
BRANCH  31  43
HETATM   43  C   UNK N   1      23.044  15.925   4.611  0.00  0.00     0.090 A 
HETATM   44  C   UNK N   1      22.852  15.877   6.122  0.00  0.00     0.028 A 
HETATM   45  C   UNK N   1      21.690  15.570   5.213  0.00  0.00     0.028 A 
ENDBRANCH  31  43
ENDBRANCH   4  27
TORSDOF 11
ENDMDL
MODEL 2
REMARK VINA RESULT:      -8.7      2.166     12.738
REMARK  11 active torsions:
REMARK  status: ('A' for Active; 'I' for Inactive)
REMARK    1  A    between atoms: C_3  and  O_16 
REMARK    2  A    between atoms: C_6  and  N_7 
REMARK    3  A    between atoms: C_9  and  C_13 
REMARK    4  A    between atoms: C_13  and  O_14 
REMARK    5  A    between atoms: O_16  and  C_17 
REMARK    6  A    between atoms: C_17  and  C_18 
REMARK    7  A    between atoms: C_18  and  O_42 
REMARK    8  A    between atoms: N_21  and  C_24 
REMARK    9  A    between atoms: C_33  and  C_39 
REMARK   10  A    between atoms: N_35  and  C_36 
REMARK   11  A    between atoms: C_39  and  O_41 
ROOT
HETATM    1  C   UNK N   1      29.887  16.729   4.916  0.00  0.00     0.083 C 
HETATM    2  C   UNK N   1      29.580  16.348   6.380  0.00  0.00     0.060 C 
HETATM    3  C   UNK N   1      30.495  17.034   7.405  0.00  0.00     0.126 C 
HETATM    4  N   UNK N   1      31.884  16.970   6.989  0.00  0.00    -0.378 N 
HETATM    5  C   UNK N   1      32.208  17.389   5.648  0.00  0.00     0.126 C 
HETATM    6  C   UNK N   1      31.396  16.537   4.666  0.00  0.00     0.060 C 
ENDROOT
BRANCH   1   7
HETATM    7  C   UNK N   1      29.397  18.154   4.551  0.00  0.00     0.213 C 
BRANCH   7   8
HETATM    8  O   UNK N   1      28.264  18.486   5.266  0.00  0.00    -0.345 OA
BRANCH   8   9
HETATM    9  C   UNK N   1      27.026  18.705   4.760  0.00  0.00     0.107 A 
HETATM   10  C   UNK N   1      26.207  17.666   4.279  0.00  0.00     0.042 A 
HETATM   11  C   UNK N   1      24.907  17.950   3.821  0.00  0.00     0.032 A 
HETATM   12  C   UNK N   1      24.420  19.273   3.834  0.00  0.00     0.042 A 
HETATM   13  C   UNK N   1      25.263  20.296   4.284  0.00  0.00     0.075 A 
HETATM   14  C   UNK N   1      26.548  20.019   4.736  0.00  0.00     0.151 A 
HETATM   15  F   UNK N   1      27.335  21.035   5.167  0.00  0.00    -0.203 F 
BRANCH  12  16
HETATM   16  N   UNK N   1      23.065  19.594   3.491  0.00  0.00    -0.291 N 
HETATM   17  C   UNK N   1      22.719  20.534   2.458  0.00  0.00     0.169 A 
HETATM   18  C   UNK N   1      21.184  20.673   2.631  0.00  0.00     0.175 A 
HETATM   19  O   UNK N   1      20.846  19.737   3.597  0.00  0.00    -0.294 OA
HETATM   20  C   UNK N   1      21.949  19.165   4.089  0.00  0.00     0.368 A 
HETATM   21  O   UNK N   1      21.928  18.365   5.009  0.00  0.00    -0.238 OA
BRANCH  18  22
HETATM   22  C   UNK N   1      20.463  20.412   1.324  0.00  0.00     0.198 C 
BRANCH  22  23
HETATM   23  O   UNK N   1      21.229  20.901   0.265  0.00  0.00    -0.398 OA
HETATM   24  H   UNK N   1      21.159  21.822  -0.032  0.00  0.00     0.209 HD
ENDBRANCH  22  23
ENDBRANCH  18  22
ENDBRANCH  12  16
ENDBRANCH   8   9
ENDBRANCH   7   8
ENDBRANCH   1   7
BRANCH   1  25
HETATM   25  O   UNK N   1      29.192  15.836   4.103  0.00  0.00    -0.388 OA
HETATM   26  H   UNK N   1      28.622  15.858   3.317  0.00  0.00     0.210 HD
ENDBRANCH   1  25
BRANCH   4  27
HETATM   27  C   UNK N   1      32.935  16.584   7.879  0.00  0.00     0.071 A 
HETATM   28  C   UNK N   1      33.059  15.234   8.236  0.00  0.00     0.063 A 
HETATM   29  C   UNK N   1      34.069  14.785   9.098  0.00  0.00     0.051 A 
HETATM   30  C   UNK N   1      34.961  15.730   9.654  0.00  0.00     0.045 A 
HETATM   31  N   UNK N   1      34.209  13.448   9.390  0.00  0.00    -0.350 N 
HETATM   32  C   UNK N   1      34.840  17.086   9.305  0.00  0.00     0.062 A 
HETATM   33  C   UNK N   1      35.968  15.296  10.533  0.00  0.00     0.202 A 
HETATM   34  C   UNK N   1      33.852  17.513   8.410  0.00  0.00     0.143 A 
HETATM   35  F   UNK N   1      33.763  18.832   8.110  0.00  0.00    -0.204 F 
HETATM   36  O   UNK N   1      36.735  16.106  11.030  0.00  0.00    -0.286 OA
HETATM   37  C   UNK N   1      36.090  13.922  10.826  0.00  0.00     0.104 A 
HETATM   38  C   UNK N   1      35.203  13.025  10.223  0.00  0.00     0.114 A 
BRANCH  37  39
HETATM   39  C   UNK N   1      37.132  13.380  11.737  0.00  0.00     0.181 C 
HETATM   40  O   UNK N   1      38.031  12.670  11.312  0.00  0.00    -0.646 OA
BRANCH  39  41
HETATM   41  O   UNK N   1      37.094  13.672  13.053  0.00  0.00    -0.772 OA
HETATM   42  H   UNK N   1      37.741  14.236  13.428  0.00  0.00     0.167 HD
ENDBRANCH  39  41
ENDBRANCH  37  39
BRANCH  31  43
HETATM   43  C   UNK N   1      33.356  12.423   8.763  0.00  0.00     0.090 A 
HETATM   44  C   UNK N   1      34.066  11.763   7.587  0.00  0.00     0.028 A 
HETATM   45  C   UNK N   1      33.969  11.035   8.903  0.00  0.00     0.028 A 
ENDBRANCH  31  43
ENDBRANCH   4  27
TORSDOF 11
ENDMDL
MODEL 3
REMARK VINA RESULT:      -8.7      4.917      9.273
REMARK  11 active torsions:
REMARK  status: ('A' for Active; 'I' for Inactive)
REMARK    1  A    between atoms: C_3  and  O_16 
REMARK    2  A    between atoms: C_6  and  N_7 
REMARK    3  A    between atoms: C_9  and  C_13 
REMARK    4  A    between atoms: C_13  and  O_14 
REMARK    5  A    between atoms: O_16  and  C_17 
REMARK    6  A    between atoms: C_17  and  C_18 
REMARK    7  A    between atoms: C_18  and  O_42 
REMARK    8  A    between atoms: N_21  and  C_24 
REMARK    9  A    between atoms: C_33  and  C_39 
REMARK   10  A    between atoms: N_35  and  C_36 
REMARK   11  A    between atoms: C_39  and  O_41 
ROOT
HETATM    1  C   UNK N   1      36.455  14.277  11.344  0.00  0.00     0.083 C 
HETATM    2  C   UNK N   1      36.564  15.721  10.807  0.00  0.00     0.060 C 
HETATM    3  C   UNK N   1      35.209  16.383  10.525  0.00  0.00     0.126 C 
HETATM    4  N   UNK N   1      34.326  15.482   9.807  0.00  0.00    -0.378 N 
HETATM    5  C   UNK N   1      34.150  14.149  10.329  0.00  0.00     0.126 C 
HETATM    6  C   UNK N   1      35.525  13.477  10.412  0.00  0.00     0.060 C 
ENDROOT
BRANCH   1   7
HETATM    7  C   UNK N   1      36.006  14.222  12.827  0.00  0.00     0.213 C 
BRANCH   7   8
HETATM    8  O   UNK N   1      36.238  12.974  13.369  0.00  0.00    -0.345 OA
BRANCH   8   9
HETATM    9  C   UNK N   1      35.987  12.588  14.644  0.00  0.00     0.107 A 
HETATM   10  C   UNK N   1      35.052  13.244  15.466  0.00  0.00     0.042 A 
HETATM   11  C   UNK N   1      34.791  12.759  16.761  0.00  0.00     0.032 A 
HETATM   12  C   UNK N   1      35.468  11.620  17.245  0.00  0.00     0.042 A 
HETATM   13  C   UNK N   1      36.419  11.004  16.424  0.00  0.00     0.075 A 
HETATM   14  C   UNK N   1      36.679  11.482  15.144  0.00  0.00     0.151 A 
HETATM   15  F   UNK N   1      37.605  10.856  14.376  0.00  0.00    -0.203 F 
BRANCH  12  16
HETATM   16  N   UNK N   1      35.151  11.019  18.507  0.00  0.00    -0.291 N 
HETATM   17  C   UNK N   1      34.547   9.719  18.627  0.00  0.00     0.169 A 
HETATM   18  C   UNK N   1      34.228   9.635  20.143  0.00  0.00     0.175 A 
HETATM   19  O   UNK N   1      34.790  10.779  20.691  0.00  0.00    -0.294 OA
HETATM   20  C   UNK N   1      35.277  11.561  19.722  0.00  0.00     0.368 A 
HETATM   21  O   UNK N   1      35.752  12.663  19.936  0.00  0.00    -0.238 OA
BRANCH  18  22
HETATM   22  C   UNK N   1      34.813   8.378  20.754  0.00  0.00     0.198 C 
BRANCH  22  23
HETATM   23  O   UNK N   1      34.435   7.272  19.991  0.00  0.00    -0.398 OA
HETATM   24  H   UNK N   1      34.286   6.402  20.394  0.00  0.00     0.209 HD
ENDBRANCH  22  23
ENDBRANCH  18  22
ENDBRANCH  12  16
ENDBRANCH   8   9
ENDBRANCH   7   8
ENDBRANCH   1   7
BRANCH   1  25
HETATM   25  O   UNK N   1      37.729  13.715  11.281  0.00  0.00    -0.388 OA
HETATM   26  H   UNK N   1      38.232  13.114  10.710  0.00  0.00     0.210 HD
ENDBRANCH   1  25
BRANCH   4  27
HETATM   27  C   UNK N   1      33.579  15.892   8.658  0.00  0.00     0.071 A 
HETATM   28  C   UNK N   1      32.237  16.265   8.821  0.00  0.00     0.063 A 
HETATM   29  C   UNK N   1      31.448  16.684   7.740  0.00  0.00     0.051 A 
HETATM   30  C   UNK N   1      32.014  16.688   6.444  0.00  0.00     0.045 A 
HETATM   31  N   UNK N   1      30.151  17.101   7.929  0.00  0.00    -0.350 N 
HETATM   32  C   UNK N   1      33.356  16.310   6.273  0.00  0.00     0.062 A 
HETATM   33  C   UNK N   1      31.229  17.088   5.349  0.00  0.00     0.202 A 
HETATM   34  C   UNK N   1      34.144  15.935   7.368  0.00  0.00     0.143 A 
HETATM   35  F   UNK N   1      35.431  15.565   7.156  0.00  0.00    -0.204 F 
HETATM   36  O   UNK N   1      31.703  17.082   4.224  0.00  0.00    -0.286 OA
HETATM   37  C   UNK N   1      29.899  17.506   5.564  0.00  0.00     0.104 A 
HETATM   38  C   UNK N   1      29.399  17.515   6.869  0.00  0.00     0.114 A 
BRANCH  37  39
HETATM   39  C   UNK N   1      29.006  17.953   4.462  0.00  0.00     0.181 C 
HETATM   40  O   UNK N   1      28.270  18.918   4.602  0.00  0.00    -0.646 OA
BRANCH  39  41
HETATM   41  O   UNK N   1      29.002  17.290   3.287  0.00  0.00    -0.772 OA
HETATM   42  H   UNK N   1      29.522  16.518   3.182  0.00  0.00     0.167 HD
ENDBRANCH  39  41
ENDBRANCH  37  39
BRANCH  31  43
HETATM   43  C   UNK N   1      29.554  17.195   9.273  0.00  0.00     0.090 A 
HETATM   44  C   UNK N   1      29.609  18.624   9.799  0.00  0.00     0.028 A 
HETATM   45  C   UNK N   1      28.311  18.077   9.263  0.00  0.00     0.028 A 
ENDBRANCH  31  43
ENDBRANCH   4  27
TORSDOF 11
ENDMDL
MODEL 4
REMARK VINA RESULT:      -8.7      4.477     10.367
REMARK  11 active torsions:
REMARK  status: ('A' for Active; 'I' for Inactive)
REMARK    1  A    between atoms: C_3  and  O_16 
REMARK    2  A    between atoms: C_6  and  N_7 
REMARK    3  A    between atoms: C_9  and  C_13 
REMARK    4  A    between atoms: C_13  and  O_14 
REMARK    5  A    between atoms: O_16  and  C_17 
REMARK    6  A    between atoms: C_17  and  C_18 
REMARK    7  A    between atoms: C_18  and  O_42 
REMARK    8  A    between atoms: N_21  and  C_24 
REMARK    9  A    between atoms: C_33  and  C_39 
REMARK   10  A    between atoms: N_35  and  C_36 
REMARK   11  A    between atoms: C_39  and  O_41 
ROOT
HETATM    1  C   UNK N   1      24.785  16.478   3.921  0.00  0.00     0.083 C 
HETATM    2  C   UNK N   1      25.929  16.848   2.953  0.00  0.00     0.060 C 
HETATM    3  C   UNK N   1      27.204  16.016   3.151  0.00  0.00     0.126 C 
HETATM    4  N   UNK N   1      27.545  15.910   4.558  0.00  0.00    -0.378 N 
HETATM    5  C   UNK N   1      26.512  15.495   5.474  0.00  0.00     0.126 C 
HETATM    6  C   UNK N   1      25.340  16.477   5.359  0.00  0.00     0.060 C 
ENDROOT
BRANCH   1   7
HETATM    7  C   UNK N   1      24.092  15.142   3.548  0.00  0.00     0.213 C 
BRANCH   7   8
HETATM    8  O   UNK N   1      22.883  15.011   4.199  0.00  0.00    -0.345 OA
BRANCH   8   9
HETATM    9  C   UNK N   1      22.671  14.409   5.395  0.00  0.00     0.107 A 
HETATM   10  C   UNK N   1      22.843  13.026   5.591  0.00  0.00     0.042 A 
HETATM   11  C   UNK N   1      22.666  12.469   6.871  0.00  0.00     0.032 A 
HETATM   12  C   UNK N   1      22.308  13.288   7.961  0.00  0.00     0.042 A 
HETATM   13  C   UNK N   1      22.107  14.655   7.737  0.00  0.00     0.075 A 
HETATM   14  C   UNK N   1      22.281  15.208   6.473  0.00  0.00     0.151 A 
HETATM   15  F   UNK N   1      22.082  16.537   6.296  0.00  0.00    -0.203 F 
BRANCH  12  16
HETATM   16  N   UNK N   1      22.232  12.788   9.303  0.00  0.00    -0.291 N 
HETATM   17  C   UNK N   1      23.320  12.099   9.945  0.00  0.00     0.169 A 
HETATM   18  C   UNK N   1      22.670  11.599  11.261  0.00  0.00     0.175 A 
HETATM   19  O   UNK N   1      21.400  12.158  11.268  0.00  0.00    -0.294 OA
HETATM   20  C   UNK N   1      21.174  12.802  10.119  0.00  0.00     0.368 A 
HETATM   21  O   UNK N   1      20.102  13.311   9.844  0.00  0.00    -0.238 OA
BRANCH  18  22
HETATM   22  C   UNK N   1      23.478  12.032  12.468  0.00  0.00     0.198 C 
BRANCH  22  23
HETATM   23  O   UNK N   1      24.818  12.170  12.103  0.00  0.00    -0.398 OA
HETATM   24  H   UNK N   1      25.092  12.771  11.392  0.00  0.00     0.209 HD
ENDBRANCH  22  23
ENDBRANCH  18  22
ENDBRANCH  12  16
ENDBRANCH   8   9
ENDBRANCH   7   8
ENDBRANCH   1   7
BRANCH   1  25
HETATM   25  O   UNK N   1      23.821  17.479   3.824  0.00  0.00    -0.388 OA
HETATM   26  H   UNK N   1      23.105  17.856   4.360  0.00  0.00     0.210 HD
ENDBRANCH   1  25
BRANCH   4  27
HETATM   27  C   UNK N   1      28.872  16.127   5.045  0.00  0.00     0.071 A 
HETATM   28  C   UNK N   1      29.053  16.906   6.196  0.00  0.00     0.063 A 
HETATM   29  C   UNK N   1      30.325  17.154   6.732  0.00  0.00     0.051 A 
HETATM   30  C   UNK N   1      31.458  16.635   6.064  0.00  0.00     0.045 A 
HETATM   31  N   UNK N   1      30.477  17.872   7.895  0.00  0.00    -0.350 N 
HETATM   32  C   UNK N   1      31.285  15.857   4.907  0.00  0.00     0.062 A 
HETATM   33  C   UNK N   1      32.740  16.890   6.581  0.00  0.00     0.202 A 
HETATM   34  C   UNK N   1      30.006  15.584   4.408  0.00  0.00     0.143 A 
HETATM   35  F   UNK N   1      29.885  14.840   3.281  0.00  0.00    -0.204 F 
HETATM   36  O   UNK N   1      33.727  16.459   6.005  0.00  0.00    -0.286 OA
HETATM   37  C   UNK N   1      32.875  17.635   7.771  0.00  0.00     0.104 A 
HETATM   38  C   UNK N   1      31.720  18.096   8.409  0.00  0.00     0.114 A 
BRANCH  37  39
HETATM   39  C   UNK N   1      34.193  17.941   8.387  0.00  0.00     0.181 C 
HETATM   40  O   UNK N   1      34.542  17.397   9.424  0.00  0.00    -0.646 OA
BRANCH  39  41
HETATM   41  O   UNK N   1      35.021  18.828   7.799  0.00  0.00    -0.772 OA
HETATM   42  H   UNK N   1      35.504  18.584   7.035  0.00  0.00     0.167 HD
ENDBRANCH  39  41
ENDBRANCH  37  39
BRANCH  31  43
HETATM   43  C   UNK N   1      29.317  18.354   8.666  0.00  0.00     0.090 A 
HETATM   44  C   UNK N   1      28.966  17.386   9.790  0.00  0.00     0.028 A 
HETATM   45  C   UNK N   1      29.704  18.662  10.108  0.00  0.00     0.028 A 
ENDBRANCH  31  43
ENDBRANCH   4  27
TORSDOF 11
ENDMDL
MODEL 5
REMARK VINA RESULT:      -8.6      2.751      4.513
REMARK  11 active torsions:
REMARK  status: ('A' for Active; 'I' for Inactive)
REMARK    1  A    between atoms: C_3  and  O_16 
REMARK    2  A    between atoms: C_6  and  N_7 
REMARK    3  A    between atoms: C_9  and  C_13 
REMARK    4  A    between atoms: C_13  and  O_14 
REMARK    5  A    between atoms: O_16  and  C_17 
REMARK    6  A    between atoms: C_17  and  C_18 
REMARK    7  A    between atoms: C_18  and  O_42 
REMARK    8  A    between atoms: N_21  and  C_24 
REMARK    9  A    between atoms: C_33  and  C_39 
REMARK   10  A    between atoms: N_35  and  C_36 
REMARK   11  A    between atoms: C_39  and  O_41 
ROOT
HETATM    1  C   UNK N   1      33.638  17.265   6.760  0.00  0.00     0.083 C 
HETATM    2  C   UNK N   1      32.392  17.322   7.671  0.00  0.00     0.060 C 
HETATM    3  C   UNK N   1      31.212  16.482   7.163  0.00  0.00     0.126 C 
HETATM    4  N   UNK N   1      30.995  16.692   5.743  0.00  0.00    -0.378 N 
HETATM    5  C   UNK N   1      32.130  16.572   4.861  0.00  0.00     0.126 C 
HETATM    6  C   UNK N   1      33.201  17.571   5.314  0.00  0.00     0.060 C 
ENDROOT
BRANCH   1   7
HETATM    7  C   UNK N   1      34.408  15.925   6.881  0.00  0.00     0.213 C 
BRANCH   7   8
HETATM    8  O   UNK N   1      35.261  15.940   7.966  0.00  0.00    -0.345 OA
BRANCH   8   9
HETATM    9  C   UNK N   1      35.193  15.139   9.058  0.00  0.00     0.107 A 
HETATM   10  C   UNK N   1      35.423  13.752   8.998  0.00  0.00     0.042 A 
HETATM   11  C   UNK N   1      35.397  12.983  10.177  0.00  0.00     0.032 A 
HETATM   12  C   UNK N   1      35.134  13.594  11.420  0.00  0.00     0.042 A 
HETATM   13  C   UNK N   1      34.873  14.969  11.452  0.00  0.00     0.075 A 
HETATM   14  C   UNK N   1      34.898  15.731  10.289  0.00  0.00     0.151 A 
HETATM   15  F   UNK N   1      34.645  17.061  10.361  0.00  0.00    -0.203 F 
BRANCH  12  16
HETATM   16  N   UNK N   1      35.214  12.876  12.659  0.00  0.00    -0.291 N 
HETATM   17  C   UNK N   1      35.859  13.405  13.831  0.00  0.00     0.169 A 
HETATM   18  C   UNK N   1      35.855  12.189  14.794  0.00  0.00     0.175 A 
HETATM   19  O   UNK N   1      35.120  11.213  14.135  0.00  0.00    -0.294 OA
HETATM   20  C   UNK N   1      34.801  11.630  12.906  0.00  0.00     0.368 A 
HETATM   21  O   UNK N   1      34.225  10.924  12.096  0.00  0.00    -0.238 OA
BRANCH  18  22
HETATM   22  C   UNK N   1      35.233  12.551  16.128  0.00  0.00     0.198 C 
BRANCH  22  23
HETATM   23  O   UNK N   1      34.049  13.257  15.911  0.00  0.00    -0.398 OA
HETATM   24  H   UNK N   1      33.200  12.802  15.793  0.00  0.00     0.209 HD
ENDBRANCH  22  23
ENDBRANCH  18  22
ENDBRANCH  12  16
ENDBRANCH   8   9
ENDBRANCH   7   8
ENDBRANCH   1   7
BRANCH   1  25
HETATM   25  O   UNK N   1      34.502  18.274   7.180  0.00  0.00    -0.388 OA
HETATM   26  H   UNK N   1      35.392  18.361   7.556  0.00  0.00     0.210 HD
ENDBRANCH   1  25
BRANCH   4  27
HETATM   27  C   UNK N   1      29.698  16.933   5.191  0.00  0.00     0.071 A 
HETATM   28  C   UNK N   1      28.914  17.963   5.729  0.00  0.00     0.063 A 
HETATM   29  C   UNK N   1      27.636  18.258   5.233  0.00  0.00     0.051 A 
HETATM   30  C   UNK N   1      27.111  17.465   4.188  0.00  0.00     0.045 A 
HETATM   31  N   UNK N   1      26.906  19.311   5.736  0.00  0.00    -0.350 N 
HETATM   32  C   UNK N   1      27.889  16.428   3.647  0.00  0.00     0.062 A 
HETATM   33  C   UNK N   1      25.824  17.740   3.692  0.00  0.00     0.202 A 
HETATM   34  C   UNK N   1      29.180  16.172   4.125  0.00  0.00     0.143 A 
HETATM   35  F   UNK N   1      29.891  15.153   3.583  0.00  0.00    -0.204 F 
HETATM   36  O   UNK N   1      25.355  17.052   2.799  0.00  0.00    -0.286 OA
HETATM   37  C   UNK N   1      25.089  18.818   4.227  0.00  0.00     0.104 A 
HETATM   38  C   UNK N   1      25.669  19.592   5.237  0.00  0.00     0.114 A 
BRANCH  37  39
HETATM   39  C   UNK N   1      23.727  19.180   3.753  0.00  0.00     0.181 C 
HETATM   40  O   UNK N   1      23.470  20.319   3.393  0.00  0.00    -0.646 OA
BRANCH  39  41
HETATM   41  O   UNK N   1      22.757  18.244   3.716  0.00  0.00    -0.772 OA
HETATM   42  H   UNK N   1      22.585  17.778   2.921  0.00  0.00     0.167 HD
ENDBRANCH  39  41
ENDBRANCH  37  39
BRANCH  31  43
HETATM   43  C   UNK N   1      27.453  20.214   6.764  0.00  0.00     0.090 A 
HETATM   44  C   UNK N   1      27.657  21.618   6.208  0.00  0.00     0.028 A 
HETATM   45  C   UNK N   1      26.472  21.332   7.094  0.00  0.00     0.028 A 
ENDBRANCH  31  43
ENDBRANCH   4  27
TORSDOF 11
ENDMDL
MODEL 6
REMARK VINA RESULT:      -8.4      1.582      1.955
REMARK  11 active torsions:
REMARK  status: ('A' for Active; 'I' for Inactive)
REMARK    1  A    between atoms: C_3  and  O_16 
REMARK    2  A    between atoms: C_6  and  N_7 
REMARK    3  A    between atoms: C_9  and  C_13 
REMARK    4  A    between atoms: C_13  and  O_14 
REMARK    5  A    between atoms: O_16  and  C_17 
REMARK    6  A    between atoms: C_17  and  C_18 
REMARK    7  A    between atoms: C_18  and  O_42 
REMARK    8  A    between atoms: N_21  and  C_24 
REMARK    9  A    between atoms: C_33  and  C_39 
REMARK   10  A    between atoms: N_35  and  C_36 
REMARK   11  A    between atoms: C_39  and  O_41 
ROOT
HETATM    1  C   UNK N   1      31.015  16.971   5.980  0.00  0.00     0.083 C 
HETATM    2  C   UNK N   1      30.006  17.589   6.970  0.00  0.00     0.060 C 
HETATM    3  C   UNK N   1      28.540  17.277   6.638  0.00  0.00     0.126 C 
HETATM    4  N   UNK N   1      28.272  17.469   5.225  0.00  0.00    -0.378 N 
HETATM    5  C   UNK N   1      29.159  16.841   4.277  0.00  0.00     0.126 C 
HETATM    6  C   UNK N   1      30.584  17.338   4.546  0.00  0.00     0.060 C 
ENDROOT
BRANCH   1   7
HETATM    7  C   UNK N   1      31.191  15.443   6.177  0.00  0.00     0.213 C 
BRANCH   7   8
HETATM    8  O   UNK N   1      32.518  15.116   6.366  0.00  0.00    -0.345 OA
BRANCH   8   9
HETATM    9  C   UNK N   1      33.122  14.842   7.548  0.00  0.00     0.107 A 
HETATM   10  C   UNK N   1      32.564  15.205   8.789  0.00  0.00     0.042 A 
HETATM   11  C   UNK N   1      33.211  14.839   9.984  0.00  0.00     0.032 A 
HETATM   12  C   UNK N   1      34.420  14.115   9.948  0.00  0.00     0.042 A 
HETATM   13  C   UNK N   1      34.975  13.795   8.703  0.00  0.00     0.075 A 
HETATM   14  C   UNK N   1      34.340  14.156   7.520  0.00  0.00     0.151 A 
HETATM   15  F   UNK N   1      34.906  13.825   6.334  0.00  0.00    -0.203 F 
BRANCH  12  16
HETATM   16  N   UNK N   1      35.051  13.618  11.135  0.00  0.00    -0.291 N 
HETATM   17  C   UNK N   1      35.808  14.453  12.030  0.00  0.00     0.169 A 
HETATM   18  C   UNK N   1      36.434  13.421  13.004  0.00  0.00     0.175 A 
HETATM   19  O   UNK N   1      35.870  12.204  12.647  0.00  0.00    -0.294 OA
HETATM   20  C   UNK N   1      35.113  12.351  11.556  0.00  0.00     0.368 A 
HETATM   21  O   UNK N   1      34.572  11.415  10.994  0.00  0.00    -0.238 OA
BRANCH  18  22
HETATM   22  C   UNK N   1      36.129  13.777  14.445  0.00  0.00     0.198 C 
BRANCH  22  23
HETATM   23  O   UNK N   1      37.293  14.232  15.066  0.00  0.00    -0.398 OA
HETATM   24  H   UNK N   1      37.489  14.025  15.994  0.00  0.00     0.209 HD
ENDBRANCH  22  23
ENDBRANCH  18  22
ENDBRANCH  12  16
ENDBRANCH   8   9
ENDBRANCH   7   8
ENDBRANCH   1   7
BRANCH   1  25
HETATM   25  O   UNK N   1      32.253  17.560   6.229  0.00  0.00    -0.388 OA
HETATM   26  H   UNK N   1      33.116  17.653   5.797  0.00  0.00     0.210 HD
ENDBRANCH   1  25
BRANCH   4  27
HETATM   27  C   UNK N   1      27.129  18.186   4.750  0.00  0.00     0.071 A 
HETATM   28  C   UNK N   1      25.878  17.554   4.764  0.00  0.00     0.063 A 
HETATM   29  C   UNK N   1      24.716  18.201   4.320  0.00  0.00     0.051 A 
HETATM   30  C   UNK N   1      24.821  19.513   3.804  0.00  0.00     0.045 A 
HETATM   31  N   UNK N   1      23.488  17.584   4.396  0.00  0.00    -0.350 N 
HETATM   32  C   UNK N   1      26.073  20.151   3.781  0.00  0.00     0.062 A 
HETATM   33  C   UNK N   1      23.666  20.166   3.339  0.00  0.00     0.202 A 
HETATM   34  C   UNK N   1      27.217  19.508   4.268  0.00  0.00     0.143 A 
HETATM   35  F   UNK N   1      28.407  20.155   4.215  0.00  0.00    -0.204 F 
HETATM   36  O   UNK N   1      23.747  21.294   2.878  0.00  0.00    -0.286 OA
HETATM   37  C   UNK N   1      22.419  19.514   3.419  0.00  0.00     0.104 A 
HETATM   38  C   UNK N   1      22.366  18.230   3.969  0.00  0.00     0.114 A 
BRANCH  37  39
HETATM   39  C   UNK N   1      21.150  20.138   2.958  0.00  0.00     0.181 C 
HETATM   40  O   UNK N   1      20.308  20.514   3.759  0.00  0.00    -0.646 OA
BRANCH  39  41
HETATM   41  O   UNK N   1      20.919  20.297   1.639  0.00  0.00    -0.772 OA
HETATM   42  H   UNK N   1      21.622  20.213   1.025  0.00  0.00     0.167 HD
ENDBRANCH  39  41
ENDBRANCH  37  39
BRANCH  31  43
HETATM   43  C   UNK N   1      23.325  16.254   5.007  0.00  0.00     0.090 A 
HETATM   44  C   UNK N   1      22.451  16.326   6.254  0.00  0.00     0.028 A 
HETATM   45  C   UNK N   1      21.870  15.803   4.965  0.00  0.00     0.028 A 
ENDBRANCH  31  43
ENDBRANCH   4  27
TORSDOF 11
ENDMDL
MODEL 7
REMARK VINA RESULT:      -8.3      2.898      4.032
REMARK  11 active torsions:
REMARK  status: ('A' for Active; 'I' for Inactive)
REMARK    1  A    between atoms: C_3  and  O_16 
REMARK    2  A    between atoms: C_6  and  N_7 
REMARK    3  A    between atoms: C_9  and  C_13 
REMARK    4  A    between atoms: C_13  and  O_14 
REMARK    5  A    between atoms: O_16  and  C_17 
REMARK    6  A    between atoms: C_17  and  C_18 
REMARK    7  A    between atoms: C_18  and  O_42 
REMARK    8  A    between atoms: N_21  and  C_24 
REMARK    9  A    between atoms: C_33  and  C_39 
REMARK   10  A    between atoms: N_35  and  C_36 
REMARK   11  A    between atoms: C_39  and  O_41 
ROOT
HETATM    1  C   UNK N   1      28.932  15.176   3.327  0.00  0.00     0.083 C 
HETATM    2  C   UNK N   1      27.638  15.317   2.498  0.00  0.00     0.060 C 
HETATM    3  C   UNK N   1      26.671  16.383   3.032  0.00  0.00     0.126 C 
HETATM    4  N   UNK N   1      26.518  16.275   4.471  0.00  0.00    -0.378 N 
HETATM    5  C   UNK N   1      27.714  16.214   5.275  0.00  0.00     0.126 C 
HETATM    6  C   UNK N   1      28.548  15.015   4.811  0.00  0.00     0.060 C 
ENDROOT
BRANCH   1   7
HETATM    7  C   UNK N   1      29.926  16.342   3.090  0.00  0.00     0.213 C 
BRANCH   7   8
HETATM    8  O   UNK N   1      31.230  15.928   3.275  0.00  0.00    -0.345 OA
BRANCH   8   9
HETATM    9  C   UNK N   1      31.995  16.137   4.374  0.00  0.00     0.107 A 
HETATM   10  C   UNK N   1      32.568  17.387   4.674  0.00  0.00     0.042 A 
HETATM   11  C   UNK N   1      33.303  17.556   5.862  0.00  0.00     0.032 A 
HETATM   12  C   UNK N   1      33.477  16.477   6.753  0.00  0.00     0.042 A 
HETATM   13  C   UNK N   1      32.929  15.234   6.417  0.00  0.00     0.075 A 
HETATM   14  C   UNK N   1      32.203  15.063   5.244  0.00  0.00     0.151 A 
HETATM   15  F   UNK N   1      31.684  13.845   4.955  0.00  0.00    -0.203 F 
BRANCH  12  16
HETATM   16  N   UNK N   1      34.114  16.631   8.028  0.00  0.00    -0.291 N 
HETATM   17  C   UNK N   1      34.071  15.623   9.053  0.00  0.00     0.169 A 
HETATM   18  C   UNK N   1      34.709  16.349  10.266  0.00  0.00     0.175 A 
HETATM   19  O   UNK N   1      35.143  17.568   9.765  0.00  0.00    -0.294 OA
HETATM   20  C   UNK N   1      34.756  17.707   8.494  0.00  0.00     0.368 A 
HETATM   21  O   UNK N   1      34.943  18.726   7.851  0.00  0.00    -0.238 OA
BRANCH  18  22
HETATM   22  C   UNK N   1      35.855  15.542  10.843  0.00  0.00     0.198 C 
BRANCH  22  23
HETATM   23  O   UNK N   1      37.024  16.304  10.805  0.00  0.00    -0.398 OA
HETATM   24  H   UNK N   1      37.079  17.173  11.234  0.00  0.00     0.209 HD
ENDBRANCH  22  23
ENDBRANCH  18  22
ENDBRANCH  12  16
ENDBRANCH   8   9
ENDBRANCH   7   8
ENDBRANCH   1   7
BRANCH   1  25
HETATM   25  O   UNK N   1      29.565  14.007   2.909  0.00  0.00    -0.388 OA
HETATM   26  H   UNK N   1      29.394  13.053   2.892  0.00  0.00     0.210 HD
ENDBRANCH   1  25
BRANCH   4  27
HETATM   27  C   UNK N   1      25.240  16.303   5.112  0.00  0.00     0.071 A 
HETATM   28  C   UNK N   1      24.874  15.234   5.943  0.00  0.00     0.063 A 
HETATM   29  C   UNK N   1      23.640  15.200   6.607  0.00  0.00     0.051 A 
HETATM   30  C   UNK N   1      22.723  16.255   6.397  0.00  0.00     0.045 A 
HETATM   31  N   UNK N   1      23.324  14.170   7.463  0.00  0.00    -0.350 N 
HETATM   32  C   UNK N   1      23.080  17.327   5.561  0.00  0.00     0.062 A 
HETATM   33  C   UNK N   1      21.475  16.225   7.043  0.00  0.00     0.202 A 
HETATM   34  C   UNK N   1      24.333  17.368   4.939  0.00  0.00     0.143 A 
HETATM   35  F   UNK N   1      24.632  18.415   4.131  0.00  0.00    -0.204 F 
HETATM   36  O   UNK N   1      20.670  17.124   6.858  0.00  0.00    -0.286 OA
HETATM   37  C   UNK N   1      21.168  15.156   7.911  0.00  0.00     0.104 A 
HETATM   38  C   UNK N   1      22.123  14.156   8.109  0.00  0.00     0.114 A 
BRANCH  37  39
HETATM   39  C   UNK N   1      19.876  15.054   8.639  0.00  0.00     0.181 C 
HETATM   40  O   UNK N   1      19.736  14.267   9.563  0.00  0.00    -0.646 OA
BRANCH  39  41
HETATM   41  O   UNK N   1      18.838  15.839   8.282  0.00  0.00    -0.772 OA
HETATM   42  H   UNK N   1      18.155  15.496   7.741  0.00  0.00     0.167 HD
ENDBRANCH  39  41
ENDBRANCH  37  39
BRANCH  31  43
HETATM   43  C   UNK N   1      24.286  13.098   7.776  0.00  0.00     0.090 A 
HETATM   44  C   UNK N   1      24.962  13.344   9.119  0.00  0.00     0.028 A 
HETATM   45  C   UNK N   1      23.860  12.321   9.015  0.00  0.00     0.028 A 
ENDBRANCH  31  43
ENDBRANCH   4  27
TORSDOF 11
ENDMDL
MODEL 8
REMARK VINA RESULT:      -8.3      3.611     11.308
REMARK  11 active torsions:
REMARK  status: ('A' for Active; 'I' for Inactive)
REMARK    1  A    between atoms: C_3  and  O_16 
REMARK    2  A    between atoms: C_6  and  N_7 
REMARK    3  A    between atoms: C_9  and  C_13 
REMARK    4  A    between atoms: C_13  and  O_14 
REMARK    5  A    between atoms: O_16  and  C_17 
REMARK    6  A    between atoms: C_17  and  C_18 
REMARK    7  A    between atoms: C_18  and  O_42 
REMARK    8  A    between atoms: N_21  and  C_24 
REMARK    9  A    between atoms: C_33  and  C_39 
REMARK   10  A    between atoms: N_35  and  C_36 
REMARK   11  A    between atoms: C_39  and  O_41 
ROOT
HETATM    1  C   UNK N   1      26.766  13.830   2.493  0.00  0.00     0.083 C 
HETATM    2  C   UNK N   1      27.238  13.190   3.816  0.00  0.00     0.060 C 
HETATM    3  C   UNK N   1      27.718  14.206   4.862  0.00  0.00     0.126 C 
HETATM    4  N   UNK N   1      28.595  15.195   4.264  0.00  0.00    -0.378 N 
HETATM    5  C   UNK N   1      28.146  15.862   3.067  0.00  0.00     0.126 C 
HETATM    6  C   UNK N   1      27.860  14.799   2.000  0.00  0.00     0.060 C 
ENDROOT
BRANCH   1   7
HETATM    7  C   UNK N   1      25.378  14.510   2.617  0.00  0.00     0.213 C 
BRANCH   7   8
HETATM    8  O   UNK N   1      24.588  13.858   3.542  0.00  0.00    -0.345 OA
BRANCH   8   9
HETATM    9  C   UNK N   1      23.682  14.428   4.374  0.00  0.00     0.107 A 
HETATM   10  C   UNK N   1      23.463  15.817   4.423  0.00  0.00     0.042 A 
HETATM   11  C   UNK N   1      22.466  16.342   5.266  0.00  0.00     0.032 A 
HETATM   12  C   UNK N   1      21.688  15.484   6.070  0.00  0.00     0.042 A 
HETATM   13  C   UNK N   1      21.946  14.109   6.033  0.00  0.00     0.075 A 
HETATM   14  C   UNK N   1      22.931  13.587   5.201  0.00  0.00     0.151 A 
HETATM   15  F   UNK N   1      23.150  12.250   5.189  0.00  0.00    -0.203 F 
BRANCH  12  16
HETATM   16  N   UNK N   1      20.584  15.960   6.853  0.00  0.00    -0.291 N 
HETATM   17  C   UNK N   1      20.700  16.303   8.245  0.00  0.00     0.169 A 
HETATM   18  C   UNK N   1      19.225  16.545   8.655  0.00  0.00     0.175 A 
HETATM   19  O   UNK N   1      18.504  16.454   7.473  0.00  0.00    -0.294 OA
HETATM   20  C   UNK N   1      19.309  16.085   6.472  0.00  0.00     0.368 A 
HETATM   21  O   UNK N   1      18.905  15.856   5.345  0.00  0.00    -0.238 OA
BRANCH  18  22
HETATM   22  C   UNK N   1      19.056  17.903   9.308  0.00  0.00     0.198 C 
BRANCH  22  23
HETATM   23  O   UNK N   1      19.852  18.838   8.645  0.00  0.00    -0.398 OA
HETATM   24  H   UNK N   1      20.790  18.671   8.465  0.00  0.00     0.209 HD
ENDBRANCH  22  23
ENDBRANCH  18  22
ENDBRANCH  12  16
ENDBRANCH   8   9
ENDBRANCH   7   8
ENDBRANCH   1   7
BRANCH   1  25
HETATM   25  O   UNK N   1      26.637  12.804   1.560  0.00  0.00    -0.388 OA
HETATM   26  H   UNK N   1      25.963  12.175   1.257  0.00  0.00     0.210 HD
ENDBRANCH   1  25
BRANCH   4  27
HETATM   27  C   UNK N   1      29.838  15.579   4.859  0.00  0.00     0.071 A 
HETATM   28  C   UNK N   1      29.821  16.408   5.990  0.00  0.00     0.063 A 
HETATM   29  C   UNK N   1      31.001  16.818   6.626  0.00  0.00     0.051 A 
HETATM   30  C   UNK N   1      32.243  16.414   6.085  0.00  0.00     0.045 A 
HETATM   31  N   UNK N   1      30.961  17.583   7.769  0.00  0.00    -0.350 N 
HETATM   32  C   UNK N   1      32.268  15.588   4.948  0.00  0.00     0.062 A 
HETATM   33  C   UNK N   1      33.434  16.832   6.703  0.00  0.00     0.202 A 
HETATM   34  C   UNK N   1      31.081  15.153   4.349  0.00  0.00     0.143 A 
HETATM   35  F   UNK N   1      31.150  14.367   3.246  0.00  0.00    -0.204 F 
HETATM   36  O   UNK N   1      34.513  16.501   6.236  0.00  0.00    -0.286 OA
HETATM   37  C   UNK N   1      33.372  17.623   7.869  0.00  0.00     0.104 A 
HETATM   38  C   UNK N   1      32.118  17.966   8.382  0.00  0.00     0.114 A 
BRANCH  37  39
HETATM   39  C   UNK N   1      34.583  18.098   8.588  0.00  0.00     0.181 C 
HETATM   40  O   UNK N   1      34.917  17.600   9.653  0.00  0.00    -0.646 OA
BRANCH  39  41
HETATM   41  O   UNK N   1      35.332  19.090   8.064  0.00  0.00    -0.772 OA
HETATM   42  H   UNK N   1      35.274  19.289   7.150  0.00  0.00     0.167 HD
ENDBRANCH  39  41
ENDBRANCH  37  39
BRANCH  31  43
HETATM   43  C   UNK N   1      29.688  17.950   8.413  0.00  0.00     0.090 A 
HETATM   44  C   UNK N   1      29.523  17.234   9.748  0.00  0.00     0.028 A 
HETATM   45  C   UNK N   1      29.927  18.687   9.726  0.00  0.00     0.028 A 
ENDBRANCH  31  43
ENDBRANCH   4  27
TORSDOF 11
ENDMDL
MODEL 9
REMARK VINA RESULT:      -8.1      6.581     11.813
REMARK  11 active torsions:
REMARK  status: ('A' for Active; 'I' for Inactive)
REMARK    1  A    between atoms: C_3  and  O_16 
REMARK    2  A    between atoms: C_6  and  N_7 
REMARK    3  A    between atoms: C_9  and  C_13 
REMARK    4  A    between atoms: C_13  and  O_14 
REMARK    5  A    between atoms: O_16  and  C_17 
REMARK    6  A    between atoms: C_17  and  C_18 
REMARK    7  A    between atoms: C_18  and  O_42 
REMARK    8  A    between atoms: N_21  and  C_24 
REMARK    9  A    between atoms: C_33  and  C_39 
REMARK   10  A    between atoms: N_35  and  C_36 
REMARK   11  A    between atoms: C_39  and  O_41 
ROOT
HETATM    1  C   UNK N   1      36.225  13.108  13.693  0.00  0.00     0.083 C 
HETATM    2  C   UNK N   1      36.297  14.579  13.233  0.00  0.00     0.060 C 
HETATM    3  C   UNK N   1      35.205  14.970  12.227  0.00  0.00     0.126 C 
HETATM    4  N   UNK N   1      35.067  13.965  11.189  0.00  0.00    -0.378 N 
HETATM    5  C   UNK N   1      34.925  12.588  11.596  0.00  0.00     0.126 C 
HETATM    6  C   UNK N   1      36.143  12.207  12.445  0.00  0.00     0.060 C 
ENDROOT
BRANCH   1   7
HETATM    7  C   UNK N   1      35.070  12.848  14.694  0.00  0.00     0.213 C 
BRANCH   7   8
HETATM    8  O   UNK N   1      35.417  13.250  15.968  0.00  0.00    -0.345 OA
BRANCH   8   9
HETATM    9  C   UNK N   1      35.353  12.502  17.096  0.00  0.00     0.107 A 
HETATM   10  C   UNK N   1      35.429  11.096  17.081  0.00  0.00     0.042 A 
HETATM   11  C   UNK N   1      35.417  10.379  18.292  0.00  0.00     0.032 A 
HETATM   12  C   UNK N   1      35.322  11.059  19.523  0.00  0.00     0.042 A 
HETATM   13  C   UNK N   1      35.212  12.455  19.513  0.00  0.00     0.075 A 
HETATM   14  C   UNK N   1      35.223  13.166  18.319  0.00  0.00     0.151 A 
HETATM   15  F   UNK N   1      35.118  14.518  18.349  0.00  0.00    -0.203 F 
BRANCH  12  16
HETATM   16  N   UNK N   1      35.426  10.382  20.783  0.00  0.00    -0.291 N 
HETATM   17  C   UNK N   1      36.685  10.087  21.413  0.00  0.00     0.169 A 
HETATM   18  C   UNK N   1      36.262   9.189  22.604  0.00  0.00     0.175 A 
HETATM   19  O   UNK N   1      34.875   9.201  22.587  0.00  0.00    -0.294 OA
HETATM   20  C   UNK N   1      34.434   9.864  21.514  0.00  0.00     0.368 A 
HETATM   21  O   UNK N   1      33.253   9.949  21.225  0.00  0.00    -0.238 OA
BRANCH  18  22
HETATM   22  C   UNK N   1      36.809   9.725  23.912  0.00  0.00     0.198 C 
BRANCH  22  23
HETATM   23  O   UNK N   1      37.822  10.648  23.648  0.00  0.00    -0.398 OA
HETATM   24  H   UNK N   1      38.488  10.490  22.960  0.00  0.00     0.209 HD
ENDBRANCH  22  23
ENDBRANCH  18  22
ENDBRANCH  12  16
ENDBRANCH   8   9
ENDBRANCH   7   8
ENDBRANCH   1   7
BRANCH   1  25
HETATM   25  O   UNK N   1      37.415  12.825  14.360  0.00  0.00    -0.388 OA
HETATM   26  H   UNK N   1      38.294  13.217  14.481  0.00  0.00     0.210 HD
ENDBRANCH   1  25
BRANCH   4  27
HETATM   27  C   UNK N   1      34.992  14.300   9.801  0.00  0.00     0.071 A 
HETATM   28  C   UNK N   1      33.834  14.923   9.315  0.00  0.00     0.063 A 
HETATM   29  C   UNK N   1      33.696  15.284   7.968  0.00  0.00     0.051 A 
HETATM   30  C   UNK N   1      34.741  14.972   7.068  0.00  0.00     0.045 A 
HETATM   31  N   UNK N   1      32.576  15.947   7.523  0.00  0.00    -0.350 N 
HETATM   32  C   UNK N   1      35.903  14.343   7.546  0.00  0.00     0.062 A 
HETATM   33  C   UNK N   1      34.609  15.313   5.711  0.00  0.00     0.202 A 
HETATM   34  C   UNK N   1      36.043  14.026   8.903  0.00  0.00     0.143 A 
HETATM   35  F   UNK N   1      37.176  13.408   9.320  0.00  0.00    -0.204 F 
HETATM   36  O   UNK N   1      35.498  15.036   4.922  0.00  0.00    -0.286 OA
HETATM   37  C   UNK N   1      33.448  15.986   5.273  0.00  0.00     0.104 A 
HETATM   38  C   UNK N   1      32.460  16.301   6.210  0.00  0.00     0.114 A 
BRANCH  37  39
HETATM   39  C   UNK N   1      33.235  16.390   3.859  0.00  0.00     0.181 C 
HETATM   40  O   UNK N   1      32.714  17.460   3.583  0.00  0.00    -0.646 OA
BRANCH  39  41
HETATM   41  O   UNK N   1      33.620  15.570   2.859  0.00  0.00    -0.772 OA
HETATM   42  H   UNK N   1      34.526  15.358   2.749  0.00  0.00     0.167 HD
ENDBRANCH  39  41
ENDBRANCH  37  39
BRANCH  31  43
HETATM   43  C   UNK N   1      31.506  16.368   8.444  0.00  0.00     0.090 A 
HETATM   44  C   UNK N   1      31.470  17.884   8.587  0.00  0.00     0.028 A 
HETATM   45  C   UNK N   1      30.448  17.193   7.721  0.00  0.00     0.028 A 
ENDBRANCH  31  43
ENDBRANCH   4  27
TORSDOF 11
ENDMDL
