MODEL 1
REMARK VINA RESULT:      -5.4      0.000      0.000
REMARK  9 active torsions:
REMARK  status: ('A' for Active; 'I' for Inactive)
REMARK    1  A    between atoms: S_2  and  O_5 
REMARK    2  A    between atoms: O_5  and  C_6 
REMARK    3  A    between atoms: C_6  and  C_7 
REMARK    4  A    between atoms: C_7  and  C_8 
REMARK    5  A    between atoms: C_7  and  O_16 
REMARK    6  A    between atoms: C_8  and  C_9 
REMARK    7  A    between atoms: C_8  and  O_15 
REMARK    8  A    between atoms: C_9  and  O_10 
REMARK    9  A    between atoms: O_10  and  S_11 
ROOT
HETATM    1  C   UNK N   1      35.721  15.603  11.550  0.00  0.00     0.174 C 
ENDROOT
BRANCH   1   2
HETATM    2  C   UNK N   1      36.138  14.413  12.414  0.00  0.00     0.224 C 
BRANCH   2   3
HETATM    3  O   UNK N   1      35.130  14.037  13.307  0.00  0.00    -0.273 OA
BRANCH   3   4
HETATM    4  S   UNK N   1      35.440  12.374  13.618  0.00  0.00     0.261 S 
HETATM    5  C   UNK N   1      34.287  10.976  13.703  0.00  0.00     0.194 C 
HETATM    6  O   UNK N   1      34.306  12.686  14.607  0.00  0.00    -0.199 OA
HETATM    7  O   UNK N   1      34.660  12.303  12.297  0.00  0.00    -0.199 OA
ENDBRANCH   3   4
ENDBRANCH   2   3
ENDBRANCH   1   2
BRANCH   1   8
HETATM    8  C   UNK N   1      34.616  15.277  10.537  0.00  0.00     0.174 C 
BRANCH   8   9
HETATM    9  C   UNK N   1      34.302  16.481   9.653  0.00  0.00     0.224 C 
BRANCH   9  10
HETATM   10  O   UNK N   1      35.048  16.496   8.463  0.00  0.00    -0.273 OA
BRANCH  10  11
HETATM   11  S   UNK N   1      33.896  16.810   7.213  0.00  0.00     0.261 S 
HETATM   12  O   UNK N   1      34.374  18.016   6.395  0.00  0.00    -0.199 OA
HETATM   13  O   UNK N   1      35.014  16.135   6.402  0.00  0.00    -0.199 OA
HETATM   14  C   UNK N   1      34.426  18.225   8.218  0.00  0.00     0.194 C 
ENDBRANCH  10  11
ENDBRANCH   9  10
ENDBRANCH   8   9
BRANCH   8  15
HETATM   15  O   UNK N   1      33.440  14.928  11.202  0.00  0.00    -0.391 OA
HETATM   16  H   UNK N   1      33.341  14.633  12.120  0.00  0.00     0.210 HD
ENDBRANCH   8  15
ENDBRANCH   1   8
BRANCH   1  17
HETATM   17  O   UNK N   1      36.841  16.114  10.896  0.00  0.00    -0.391 OA
HETATM   18  H   UNK N   1      36.986  16.511  10.023  0.00  0.00     0.210 HD
ENDBRANCH   1  17
TORSDOF 9
ENDMDL
MODEL 2
REMARK VINA RESULT:      -5.4      1.322      2.163
REMARK  9 active torsions:
REMARK  status: ('A' for Active; 'I' for Inactive)
REMARK    1  A    between atoms: S_2  and  O_5 
REMARK    2  A    between atoms: O_5  and  C_6 
REMARK    3  A    between atoms: C_6  and  C_7 
REMARK    4  A    between atoms: C_7  and  C_8 
REMARK    5  A    between atoms: C_7  and  O_16 
REMARK    6  A    between atoms: C_8  and  C_9 
REMARK    7  A    between atoms: C_8  and  O_15 
REMARK    8  A    between atoms: C_9  and  O_10 
REMARK    9  A    between atoms: O_10  and  S_11 
ROOT
HETATM    1  C   UNK N   1      34.572  14.900  10.729  0.00  0.00     0.174 C 
ENDROOT
BRANCH   1   2
HETATM    2  C   UNK N   1      35.397  13.961  11.610  0.00  0.00     0.224 C 
BRANCH   2   3
HETATM    3  O   UNK N   1      34.815  13.782  12.869  0.00  0.00    -0.273 OA
BRANCH   3   4
HETATM    4  S   UNK N   1      36.129  13.317  13.878  0.00  0.00     0.261 S 
HETATM    5  C   UNK N   1      36.750  14.085  15.400  0.00  0.00     0.194 C 
HETATM    6  O   UNK N   1      36.412  14.808  13.639  0.00  0.00    -0.199 OA
HETATM    7  O   UNK N   1      34.976  13.400  14.889  0.00  0.00    -0.199 OA
ENDBRANCH   3   4
ENDBRANCH   2   3
ENDBRANCH   1   2
BRANCH   1   8
HETATM    8  C   UNK N   1      35.146  16.319  10.629  0.00  0.00     0.174 C 
BRANCH   8   9
HETATM    9  C   UNK N   1      34.854  16.939   9.265  0.00  0.00     0.224 C 
BRANCH   9  10
HETATM   10  O   UNK N   1      33.601  16.567   8.751  0.00  0.00    -0.273 OA
BRANCH  10  11
HETATM   11  S   UNK N   1      33.689  16.905   7.058  0.00  0.00     0.261 S 
HETATM   12  O   UNK N   1      34.540  18.164   6.851  0.00  0.00    -0.199 OA
HETATM   13  O   UNK N   1      35.084  16.305   7.298  0.00  0.00    -0.199 OA
HETATM   14  C   UNK N   1      33.250  18.286   8.151  0.00  0.00     0.194 C 
ENDBRANCH  10  11
ENDBRANCH   9  10
ENDBRANCH   8   9
BRANCH   8  15
HETATM   15  O   UNK N   1      36.532  16.291  10.788  0.00  0.00    -0.391 OA
HETATM   16  H   UNK N   1      37.200  16.754  10.260  0.00  0.00     0.210 HD
ENDBRANCH   8  15
ENDBRANCH   1   8
BRANCH   1  17
HETATM   17  O   UNK N   1      33.260  14.942  11.201  0.00  0.00    -0.391 OA
HETATM   18  H   UNK N   1      32.736  14.367  11.780  0.00  0.00     0.210 HD
ENDBRANCH   1  17
TORSDOF 9
ENDMDL
MODEL 3
REMARK VINA RESULT:      -5.2      1.602      6.613
REMARK  9 active torsions:
REMARK  status: ('A' for Active; 'I' for Inactive)
REMARK    1  A    between atoms: S_2  and  O_5 
REMARK    2  A    between atoms: O_5  and  C_6 
REMARK    3  A    between atoms: C_6  and  C_7 
REMARK    4  A    between atoms: C_7  and  C_8 
REMARK    5  A    between atoms: C_7  and  O_16 
REMARK    6  A    between atoms: C_8  and  C_9 
REMARK    7  A    between atoms: C_8  and  O_15 
REMARK    8  A    between atoms: C_9  and  O_10 
REMARK    9  A    between atoms: O_10  and  S_11 
ROOT
HETATM    1  C   UNK N   1      34.690  15.735  10.821  0.00  0.00     0.174 C 
ENDROOT
BRANCH   1   2
HETATM    2  C   UNK N   1      34.129  16.209   9.480  0.00  0.00     0.224 C 
BRANCH   2   3
HETATM    3  O   UNK N   1      34.394  17.563   9.253  0.00  0.00    -0.273 OA
BRANCH   3   4
HETATM    4  S   UNK N   1      33.348  17.985   7.953  0.00  0.00     0.261 S 
HETATM    5  C   UNK N   1      33.450  17.548   6.195  0.00  0.00     0.194 C 
HETATM    6  O   UNK N   1      34.730  18.360   7.396  0.00  0.00    -0.199 OA
HETATM    7  O   UNK N   1      33.393  16.454   7.832  0.00  0.00    -0.199 OA
ENDBRANCH   3   4
ENDBRANCH   2   3
ENDBRANCH   1   2
BRANCH   1   8
HETATM    8  C   UNK N   1      36.082  15.096  10.719  0.00  0.00     0.174 C 
BRANCH   8   9
HETATM    9  C   UNK N   1      36.262  13.994  11.759  0.00  0.00     0.224 C 
BRANCH   9  10
HETATM   10  O   UNK N   1      36.187  14.468  13.078  0.00  0.00    -0.273 OA
BRANCH  10  11
HETATM   11  S   UNK N   1      36.082  13.051  14.063  0.00  0.00     0.261 S 
HETATM   12  O   UNK N   1      35.422  13.424  15.395  0.00  0.00    -0.199 OA
HETATM   13  O   UNK N   1      34.624  13.176  13.592  0.00  0.00    -0.199 OA
HETATM   14  C   UNK N   1      36.767  14.542  14.838  0.00  0.00     0.194 C 
ENDBRANCH  10  11
ENDBRANCH   9  10
ENDBRANCH   8   9
BRANCH   8  15
HETATM   15  O   UNK N   1      37.070  16.055  10.949  0.00  0.00    -0.391 OA
HETATM   16  H   UNK N   1      36.953  16.967  11.254  0.00  0.00     0.210 HD
ENDBRANCH   8  15
ENDBRANCH   1   8
BRANCH   1  17
HETATM   17  O   UNK N   1      33.792  14.844  11.408  0.00  0.00    -0.391 OA
HETATM   18  H   UNK N   1      33.812  13.892  11.589  0.00  0.00     0.210 HD
ENDBRANCH   1  17
TORSDOF 9
ENDMDL
MODEL 4
REMARK VINA RESULT:      -4.9      1.635      1.869
REMARK  9 active torsions:
REMARK  status: ('A' for Active; 'I' for Inactive)
REMARK    1  A    between atoms: S_2  and  O_5 
REMARK    2  A    between atoms: O_5  and  C_6 
REMARK    3  A    between atoms: C_6  and  C_7 
REMARK    4  A    between atoms: C_7  and  C_8 
REMARK    5  A    between atoms: C_7  and  O_16 
REMARK    6  A    between atoms: C_8  and  C_9 
REMARK    7  A    between atoms: C_8  and  O_15 
REMARK    8  A    between atoms: C_9  and  O_10 
REMARK    9  A    between atoms: O_10  and  S_11 
ROOT
HETATM    1  C   UNK N   1      35.792  15.595  11.608  0.00  0.00     0.174 C 
ENDROOT
BRANCH   1   2
HETATM    2  C   UNK N   1      36.120  14.384  12.481  0.00  0.00     0.224 C 
BRANCH   2   3
HETATM    3  O   UNK N   1      36.452  14.758  13.788  0.00  0.00    -0.273 OA
BRANCH   3   4
HETATM    4  S   UNK N   1      36.489  13.272  14.654  0.00  0.00     0.261 S 
HETATM    5  C   UNK N   1      35.628  12.798  16.179  0.00  0.00     0.194 C 
HETATM    6  O   UNK N   1      36.769  14.302  15.759  0.00  0.00    -0.199 OA
HETATM    7  O   UNK N   1      34.980  13.473  14.446  0.00  0.00    -0.199 OA
ENDBRANCH   3   4
ENDBRANCH   2   3
ENDBRANCH   1   2
BRANCH   1   8
HETATM    8  C   UNK N   1      34.692  15.332  10.571  0.00  0.00     0.174 C 
BRANCH   8   9
HETATM    9  C   UNK N   1      34.474  16.547   9.674  0.00  0.00     0.224 C 
BRANCH   9  10
HETATM   10  O   UNK N   1      34.416  16.217   8.310  0.00  0.00    -0.273 OA
BRANCH  10  11
HETATM   11  S   UNK N   1      34.072  17.706   7.500  0.00  0.00     0.261 S 
HETATM   12  O   UNK N   1      32.872  18.371   8.182  0.00  0.00    -0.199 OA
HETATM   13  O   UNK N   1      34.765  18.228   8.769  0.00  0.00    -0.199 OA
HETATM   14  C   UNK N   1      32.673  16.588   7.796  0.00  0.00     0.194 C 
ENDBRANCH  10  11
ENDBRANCH   9  10
ENDBRANCH   8   9
BRANCH   8  15
HETATM   15  O   UNK N   1      33.481  15.061  11.211  0.00  0.00    -0.391 OA
HETATM   16  H   UNK N   1      33.080  14.196  11.383  0.00  0.00     0.210 HD
ENDBRANCH   8  15
ENDBRANCH   1   8
BRANCH   1  17
HETATM   17  O   UNK N   1      36.954  16.037  10.976  0.00  0.00    -0.391 OA
HETATM   18  H   UNK N   1      37.755  15.594  10.656  0.00  0.00     0.210 HD
ENDBRANCH   1  17
TORSDOF 9
ENDMDL
MODEL 5
REMARK VINA RESULT:      -4.6     12.082     15.452
REMARK  9 active torsions:
REMARK  status: ('A' for Active; 'I' for Inactive)
REMARK    1  A    between atoms: S_2  and  O_5 
REMARK    2  A    between atoms: O_5  and  C_6 
REMARK    3  A    between atoms: C_6  and  C_7 
REMARK    4  A    between atoms: C_7  and  C_8 
REMARK    5  A    between atoms: C_7  and  O_16 
REMARK    6  A    between atoms: C_8  and  C_9 
REMARK    7  A    between atoms: C_8  and  O_15 
REMARK    8  A    between atoms: C_9  and  O_10 
REMARK    9  A    between atoms: O_10  and  S_11 
ROOT
HETATM    1  C   UNK N   1      44.820  22.693   3.038  0.00  0.00     0.174 C 
ENDROOT
BRANCH   1   2
HETATM    2  C   UNK N   1      45.220  23.918   2.214  0.00  0.00     0.224 C 
BRANCH   2   3
HETATM    3  O   UNK N   1      45.213  25.087   2.982  0.00  0.00    -0.273 OA
BRANCH   3   4
HETATM    4  S   UNK N   1      45.657  26.323   1.870  0.00  0.00     0.261 S 
HETATM    5  C   UNK N   1      46.104  26.197   0.116  0.00  0.00     0.194 C 
HETATM    6  O   UNK N   1      46.785  25.297   1.685  0.00  0.00    -0.199 OA
HETATM    7  O   UNK N   1      44.509  25.628   1.121  0.00  0.00    -0.199 OA
ENDBRANCH   3   4
ENDBRANCH   2   3
ENDBRANCH   1   2
BRANCH   1   8
HETATM    8  C   UNK N   1      43.366  22.723   3.526  0.00  0.00     0.174 C 
BRANCH   8   9
HETATM    9  C   UNK N   1      42.665  21.394   3.260  0.00  0.00     0.224 C 
BRANCH   9  10
HETATM   10  O   UNK N   1      42.264  21.245   1.922  0.00  0.00    -0.273 OA
BRANCH  10  11
HETATM   11  S   UNK N   1      40.743  20.426   1.995  0.00  0.00     0.261 S 
HETATM   12  O   UNK N   1      40.394  20.166   3.465  0.00  0.00    -0.199 OA
HETATM   13  O   UNK N   1      40.318  21.845   2.405  0.00  0.00    -0.199 OA
HETATM   14  C   UNK N   1      42.105  19.722   2.967  0.00  0.00     0.194 C 
ENDBRANCH  10  11
ENDBRANCH   9  10
ENDBRANCH   8   9
BRANCH   8  15
HETATM   15  O   UNK N   1      42.651  23.715   2.853  0.00  0.00    -0.391 OA
HETATM   16  H   UNK N   1      42.477  23.780   1.902  0.00  0.00     0.210 HD
ENDBRANCH   8  15
ENDBRANCH   1   8
BRANCH   1  17
HETATM   17  O   UNK N   1      45.690  22.560   4.120  0.00  0.00    -0.391 OA
HETATM   18  H   UNK N   1      46.358  21.903   4.368  0.00  0.00     0.210 HD
ENDBRANCH   1  17
TORSDOF 9
ENDMDL
MODEL 6
REMARK VINA RESULT:      -4.6      1.574      6.686
REMARK  9 active torsions:
REMARK  status: ('A' for Active; 'I' for Inactive)
REMARK    1  A    between atoms: S_2  and  O_5 
REMARK    2  A    between atoms: O_5  and  C_6 
REMARK    3  A    between atoms: C_6  and  C_7 
REMARK    4  A    between atoms: C_7  and  C_8 
REMARK    5  A    between atoms: C_7  and  O_16 
REMARK    6  A    between atoms: C_8  and  C_9 
REMARK    7  A    between atoms: C_8  and  O_15 
REMARK    8  A    between atoms: C_9  and  O_10 
REMARK    9  A    between atoms: O_10  and  S_11 
ROOT
HETATM    1  C   UNK N   1      36.016  15.208  10.629  0.00  0.00     0.174 C 
ENDROOT
BRANCH   1   2
HETATM    2  C   UNK N   1      35.180  15.808   9.499  0.00  0.00     0.224 C 
BRANCH   2   3
HETATM    3  O   UNK N   1      34.687  17.074   9.831  0.00  0.00    -0.273 OA
BRANCH   3   4
HETATM    4  S   UNK N   1      33.537  17.414   8.597  0.00  0.00     0.261 S 
HETATM    5  C   UNK N   1      33.796  17.763   6.836  0.00  0.00     0.194 C 
HETATM    6  O   UNK N   1      34.545  18.561   8.430  0.00  0.00    -0.199 OA
HETATM    7  O   UNK N   1      34.321  16.247   7.978  0.00  0.00    -0.199 OA
ENDBRANCH   3   4
ENDBRANCH   2   3
ENDBRANCH   1   2
BRANCH   1   8
HETATM    8  C   UNK N   1      35.234  14.989  11.931  0.00  0.00     0.174 C 
BRANCH   8   9
HETATM    9  C   UNK N   1      35.938  13.986  12.840  0.00  0.00     0.224 C 
BRANCH   9  10
HETATM   10  O   UNK N   1      35.176  13.639  13.967  0.00  0.00    -0.273 OA
BRANCH  10  11
HETATM   11  S   UNK N   1      36.332  13.323  15.214  0.00  0.00     0.261 S 
HETATM   12  O   UNK N   1      36.219  11.852  15.629  0.00  0.00    -0.199 OA
HETATM   13  O   UNK N   1      37.030  12.670  14.010  0.00  0.00    -0.199 OA
HETATM   14  C   UNK N   1      34.631  12.765  15.508  0.00  0.00     0.194 C 
ENDBRANCH  10  11
ENDBRANCH   9  10
ENDBRANCH   8   9
BRANCH   8  15
HETATM   15  O   UNK N   1      33.964  14.480  11.651  0.00  0.00    -0.391 OA
HETATM   16  H   UNK N   1      33.262  14.891  11.124  0.00  0.00     0.210 HD
ENDBRANCH   8  15
ENDBRANCH   1   8
BRANCH   1  17
HETATM   17  O   UNK N   1      37.126  16.019  10.864  0.00  0.00    -0.391 OA
HETATM   18  H   UNK N   1      37.957  15.896  11.349  0.00  0.00     0.210 HD
ENDBRANCH   1  17
TORSDOF 9
ENDMDL
MODEL 7
REMARK VINA RESULT:      -4.5     15.933     19.424
REMARK  9 active torsions:
REMARK  status: ('A' for Active; 'I' for Inactive)
REMARK    1  A    between atoms: S_2  and  O_5 
REMARK    2  A    between atoms: O_5  and  C_6 
REMARK    3  A    between atoms: C_6  and  C_7 
REMARK    4  A    between atoms: C_7  and  C_8 
REMARK    5  A    between atoms: C_7  and  O_16 
REMARK    6  A    between atoms: C_8  and  C_9 
REMARK    7  A    between atoms: C_8  and  O_15 
REMARK    8  A    between atoms: C_9  and  O_10 
REMARK    9  A    between atoms: O_10  and  S_11 
ROOT
HETATM    1  C   UNK N   1      27.838  25.344  -4.379  0.00  0.00     0.174 C 
ENDROOT
BRANCH   1   2
HETATM    2  C   UNK N   1      29.270  25.080  -3.914  0.00  0.00     0.224 C 
BRANCH   2   3
HETATM    3  O   UNK N   1      29.343  23.986  -3.046  0.00  0.00    -0.273 OA
BRANCH   3   4
HETATM    4  S   UNK N   1      30.942  23.388  -3.256  0.00  0.00     0.261 S 
HETATM    5  C   UNK N   1      31.637  21.766  -2.835  0.00  0.00     0.194 C 
HETATM    6  O   UNK N   1      30.662  23.060  -1.781  0.00  0.00    -0.199 OA
HETATM    7  O   UNK N   1      30.110  22.303  -3.957  0.00  0.00    -0.199 OA
ENDBRANCH   3   4
ENDBRANCH   2   3
ENDBRANCH   1   2
BRANCH   1   8
HETATM    8  C   UNK N   1      26.923  24.115  -4.297  0.00  0.00     0.174 C 
BRANCH   8   9
HETATM    9  C   UNK N   1      25.737  24.243  -5.248  0.00  0.00     0.224 C 
BRANCH   9  10
HETATM   10  O   UNK N   1      25.448  23.048  -5.927  0.00  0.00    -0.273 OA
BRANCH  10  11
HETATM   11  S   UNK N   1      25.944  23.325  -7.559  0.00  0.00     0.261 S 
HETATM   12  O   UNK N   1      24.713  23.242  -8.469  0.00  0.00    -0.199 OA
HETATM   13  O   UNK N   1      25.297  24.679  -7.227  0.00  0.00    -0.199 OA
HETATM   14  C   UNK N   1      24.892  21.878  -7.253  0.00  0.00     0.194 C 
ENDBRANCH  10  11
ENDBRANCH   9  10
ENDBRANCH   8   9
BRANCH   8  15
HETATM   15  O   UNK N   1      26.412  23.981  -3.005  0.00  0.00    -0.391 OA
HETATM   16  H   UNK N   1      26.145  23.166  -2.553  0.00  0.00     0.210 HD
ENDBRANCH   8  15
ENDBRANCH   1   8
BRANCH   1  17
HETATM   17  O   UNK N   1      27.860  25.843  -5.681  0.00  0.00    -0.391 OA
HETATM   18  H   UNK N   1      27.698  26.717  -6.068  0.00  0.00     0.210 HD
ENDBRANCH   1  17
TORSDOF 9
ENDMDL
MODEL 8
REMARK VINA RESULT:      -4.4      1.867      5.992
REMARK  9 active torsions:
REMARK  status: ('A' for Active; 'I' for Inactive)
REMARK    1  A    between atoms: S_2  and  O_5 
REMARK    2  A    between atoms: O_5  and  C_6 
REMARK    3  A    between atoms: C_6  and  C_7 
REMARK    4  A    between atoms: C_7  and  C_8 
REMARK    5  A    between atoms: C_7  and  O_16 
REMARK    6  A    between atoms: C_8  and  C_9 
REMARK    7  A    between atoms: C_8  and  O_15 
REMARK    8  A    between atoms: C_9  and  O_10 
REMARK    9  A    between atoms: O_10  and  S_11 
ROOT
HETATM    1  C   UNK N   1      36.536  14.113   8.837  0.00  0.00     0.174 C 
ENDROOT
BRANCH   1   2
HETATM    2  C   UNK N   1      35.585  15.227   8.399  0.00  0.00     0.224 C 
BRANCH   2   3
HETATM    3  O   UNK N   1      34.477  15.329   9.246  0.00  0.00    -0.273 OA
BRANCH   3   4
HETATM    4  S   UNK N   1      33.723  16.803   8.779  0.00  0.00     0.261 S 
HETATM    5  C   UNK N   1      34.469  18.353   8.200  0.00  0.00     0.194 C 
HETATM    6  O   UNK N   1      34.787  17.282   9.779  0.00  0.00    -0.199 OA
HETATM    7  O   UNK N   1      34.596  16.497   7.552  0.00  0.00    -0.199 OA
ENDBRANCH   3   4
ENDBRANCH   2   3
ENDBRANCH   1   2
BRANCH   1   8
HETATM    8  C   UNK N   1      37.374  14.464  10.073  0.00  0.00     0.174 C 
BRANCH   8   9
HETATM    9  C   UNK N   1      37.253  13.388  11.148  0.00  0.00     0.224 C 
BRANCH   9  10
HETATM   10  O   UNK N   1      36.677  13.864  12.338  0.00  0.00    -0.273 OA
BRANCH  10  11
HETATM   11  S   UNK N   1      35.307  12.847  12.615  0.00  0.00     0.261 S 
HETATM   12  O   UNK N   1      34.704  13.194  13.981  0.00  0.00    -0.199 OA
HETATM   13  O   UNK N   1      34.609  14.167  12.250  0.00  0.00    -0.199 OA
HETATM   14  C   UNK N   1      36.526  12.970  13.954  0.00  0.00     0.194 C 
ENDBRANCH  10  11
ENDBRANCH   9  10
ENDBRANCH   8   9
BRANCH   8  15
HETATM   15  O   UNK N   1      36.930  15.665  10.631  0.00  0.00    -0.391 OA
HETATM   16  H   UNK N   1      37.286  16.127  11.405  0.00  0.00     0.210 HD
ENDBRANCH   8  15
ENDBRANCH   1   8
BRANCH   1  17
HETATM   17  O   UNK N   1      37.368  13.771   7.771  0.00  0.00    -0.391 OA
HETATM   18  H   UNK N   1      38.282  13.452   7.708  0.00  0.00     0.210 HD
ENDBRANCH   1  17
TORSDOF 9
ENDMDL
MODEL 9
REMARK VINA RESULT:      -4.4     13.619     16.500
REMARK  9 active torsions:
REMARK  status: ('A' for Active; 'I' for Inactive)
REMARK    1  A    between atoms: S_2  and  O_5 
REMARK    2  A    between atoms: O_5  and  C_6 
REMARK    3  A    between atoms: C_6  and  C_7 
REMARK    4  A    between atoms: C_7  and  C_8 
REMARK    5  A    between atoms: C_7  and  O_16 
REMARK    6  A    between atoms: C_8  and  C_9 
REMARK    7  A    between atoms: C_8  and  O_15 
REMARK    8  A    between atoms: C_9  and  O_10 
REMARK    9  A    between atoms: O_10  and  S_11 
ROOT
HETATM    1  C   UNK N   1      21.226  20.446   2.932  0.00  0.00     0.174 C 
ENDROOT
BRANCH   1   2
HETATM    2  C   UNK N   1      22.626  19.896   3.208  0.00  0.00     0.224 C 
BRANCH   2   3
HETATM    3  O   UNK N   1      23.625  20.792   2.814  0.00  0.00    -0.273 OA
BRANCH   3   4
HETATM    4  S   UNK N   1      25.080  19.883   2.945  0.00  0.00     0.261 S 
HETATM    5  C   UNK N   1      26.743  20.422   3.430  0.00  0.00     0.194 C 
HETATM    6  O   UNK N   1      25.518  21.079   2.086  0.00  0.00    -0.199 OA
HETATM    7  O   UNK N   1      24.997  20.538   4.332  0.00  0.00    -0.199 OA
ENDBRANCH   3   4
ENDBRANCH   2   3
ENDBRANCH   1   2
BRANCH   1   8
HETATM    8  C   UNK N   1      20.271  19.422   2.304  0.00  0.00     0.174 C 
BRANCH   8   9
HETATM    9  C   UNK N   1      20.617  18.001   2.742  0.00  0.00     0.224 C 
BRANCH   9  10
HETATM   10  O   UNK N   1      19.820  17.027   2.118  0.00  0.00    -0.273 OA
BRANCH  10  11
HETATM   11  S   UNK N   1      20.938  15.934   1.380  0.00  0.00     0.261 S 
HETATM   12  O   UNK N   1      20.161  14.731   0.832  0.00  0.00    -0.199 OA
HETATM   13  O   UNK N   1      20.316  16.585   0.134  0.00  0.00    -0.199 OA
HETATM   14  C   UNK N   1      19.745  15.226   2.550  0.00  0.00     0.194 C 
ENDBRANCH  10  11
ENDBRANCH   9  10
ENDBRANCH   8   9
BRANCH   8  15
HETATM   15  O   UNK N   1      20.363  19.466   0.912  0.00  0.00    -0.391 OA
HETATM   16  H   UNK N   1      21.057  19.877   0.376  0.00  0.00     0.210 HD
ENDBRANCH   8  15
ENDBRANCH   1   8
BRANCH   1  17
HETATM   17  O   UNK N   1      21.325  21.574   2.119  0.00  0.00    -0.391 OA
HETATM   18  H   UNK N   1      20.940  22.464   2.154  0.00  0.00     0.210 HD
ENDBRANCH   1  17
TORSDOF 9
ENDMDL
