REMARK  6 active torsions:
REMARK  status: ('A' for Active; 'I' for Inactive)
REMARK    1  A    between atoms: C_2  and  C_3 
REMARK    2  A    between atoms: C_5  and  C_3 
REMARK    3  A    between atoms: C_9  and  C_29 
REMARK    4  A    between atoms: N_12  and  C_13 
REMARK    5  A    between atoms: C_13  and  C_14 
REMARK    6  A    between atoms: C_13  and  C_21 
REMARK       I    between atoms: C_21  and  N_23 
ROOT
HETATM    1  C   UNK N   1      -2.093  -1.349  -0.827  0.00  0.00     0.184 C 
HETATM    2  C   UNK N   1      -1.559  -2.728  -0.511  0.00  0.00     0.241 C 
HETATM    3  O   UNK N   1      -1.938  -3.681  -1.175  0.00  0.00    -0.271 OA
HETATM    4  N   UNK N   1      -0.684  -2.941   0.489  0.00  0.00    -0.346 N 
HETATM    5  C   UNK N   1      -0.077  -1.888   1.263  0.00  0.00     0.181 C 
HETATM    6  C   UNK N   1      -0.683  -0.517   1.035  0.00  0.00     0.244 C 
HETATM    7  O   UNK N   1      -0.366   0.360   1.823  0.00  0.00    -0.271 OA
HETATM    8  N   UNK N   1      -1.584  -0.257   0.025  0.00  0.00    -0.317 N 
HETATM    9  H   UNK N   1      -0.445  -3.871   0.704  0.00  0.00     0.163 HD
ENDROOT
BRANCH   8  10
HETATM   10  C   UNK N   1      -2.135   1.096  -0.250  0.00  0.00     0.232 C 
BRANCH  10  11
HETATM   11  C   UNK N   1      -3.513   1.258   0.319  0.00  0.00     0.066 A 
HETATM   12  C   UNK N   1      -3.871   1.302   1.650  0.00  0.00     0.171 A 
HETATM   13  O   UNK N   1      -5.178   1.444   1.678  0.00  0.00    -0.308 OA
HETATM   14  C   UNK N   1      -5.613   1.487   0.439  0.00  0.00     0.119 A 
HETATM   15  N   UNK N   1      -4.613   1.374  -0.447  0.00  0.00    -0.340 N 
HETATM   16  C   UNK N   1      -7.040   1.642   0.052  0.00  0.00     0.098 C 
ATOM     17  HN  UNK N   1      -4.672   1.376  -1.465  1.00  0.00     0.167 HD
ENDBRANCH  10  11
BRANCH  10  18
HETATM   18  C   UNK N   1      -1.296   2.383  -0.085  0.00  0.00     0.249 C 
HETATM   19  O   UNK N   1      -0.212   2.357   0.469  0.00  0.00    -0.271 OA
HETATM   20  N   UNK N   1      -1.776   3.583  -0.545  0.00  0.00    -0.346 N 
HETATM   21  C   UNK N   1      -3.017   3.692  -1.278  0.00  0.00     0.152 C 
HETATM   22  C   UNK N   1      -1.103   4.823  -0.221  0.00  0.00     0.152 C 
HETATM   23  C   UNK N   1      -3.909   4.692  -0.541  0.00  0.00     0.187 C 
HETATM   24  O   UNK N   1      -3.237   5.926  -0.424  0.00  0.00    -0.388 OA
HETATM   25  C   UNK N   1      -2.144   5.733   0.449  0.00  0.00     0.187 C 
ENDBRANCH  10  18
ENDBRANCH   8  10
BRANCH   1  26
HETATM   26  C   UNK N   1      -3.640  -1.385  -0.826  0.00  0.00     0.013 C 
HETATM   27  C   UNK N   1      -4.248  -1.887  -2.125  0.00  0.00     0.012 C 
BRANCH  26  28
HETATM   28  C   UNK N   1      -4.335  -1.913   0.439  0.00  0.00     0.002 C 
HETATM   29  C   UNK N   1      -4.574  -3.416   0.409  0.00  0.00     0.005 C 
ENDBRANCH  26  28
ENDBRANCH   1  26
BRANCH   5  30
HETATM   30  C   UNK N   1       1.456  -1.965   1.048  0.00  0.00     0.026 C 
HETATM   31  C   UNK N   1       2.322  -0.768   1.506  0.00  0.00     0.046 C 
HETATM   32  C   UNK N   1       3.390  -0.756   0.476  0.00  0.00    -0.051 A 
HETATM   33  C   UNK N   1       4.516   0.070   0.463  0.00  0.00     0.007 A 
HETATM   34  C   UNK N   1       3.168  -1.655  -0.531  0.00  0.00    -0.051 A 
HETATM   35  C   UNK N   1       5.428  -0.046  -0.599  0.00  0.00     0.001 A 
HETATM   36  C   UNK N   1       5.201  -0.979  -1.627  0.00  0.00     0.001 A 
HETATM   37  C   UNK N   1       4.057  -1.788  -1.599  0.00  0.00     0.007 A 
HETATM   38  C   UNK N   1       1.913  -2.400  -0.363  0.00  0.00     0.046 C 
ENDBRANCH   5  30
TORSDOF 6
