MODEL 1
REMARK VINA RESULT:      -8.0      0.000      0.000
REMARK  6 active torsions:
REMARK  status: ('A' for Active; 'I' for Inactive)
REMARK    1  A    between atoms: C_3  and  C_4 
REMARK       I    between atoms: C_4  and  N_6 
REMARK    2  A    between atoms: C_10  and  C_11 
REMARK    3  A    between atoms: C_14  and  C_23 
REMARK    4  A    between atoms: C_21  and  N_22 
REMARK    5  A    between atoms: C_26  and  C_29 
REMARK       I    between atoms: C_29  and  N_31 
REMARK    6  A    between atoms: N_31  and  C_32 
ROOT
HETATM    1  C   UNK N   1      25.313  11.207   0.842  0.00  0.00     0.112 C 
HETATM    2  C   UNK N   1      25.188  12.375   1.716  0.00  0.00    -0.101 C 
HETATM    3  C   UNK N   1      25.081  13.366   2.394  0.00  0.00    -0.006 C 
ENDROOT
BRANCH   3   4
HETATM    4  C   UNK N   1      24.943  14.618   3.108  0.00  0.00     0.299 C 
HETATM    5  O   UNK N   1      25.412  15.614   2.588  0.00  0.00    -0.258 OA
HETATM    6  N   UNK N   1      24.265  14.694   4.301  0.00  0.00    -0.330 N 
HETATM    7  C   UNK N   1      23.623  13.533   4.858  0.00  0.00     0.128 C 
HETATM    8  C   UNK N   1      23.961  15.919   5.033  0.00  0.00     0.156 C 
HETATM    9  C   UNK N   1      22.702  14.076   5.937  0.00  0.00     0.022 C 
HETATM   10  C   UNK N   1      23.276  15.435   6.299  0.00  0.00     0.035 C 
BRANCH   8  11
HETATM   11  C   UNK N   1      25.089  16.912   5.303  0.00  0.00     0.112 A 
HETATM   12  N   UNK N   1      26.176  16.604   6.028  0.00  0.00    -0.341 N 
HETATM   13  C   UNK N   1      27.056  17.613   5.859  0.00  0.00     0.075 A 
ATOM     14  HN  UNK N   1      26.311  15.768   6.598  1.00  0.00     0.167 HD
HETATM   15  C   UNK N   1      26.465  18.566   5.015  0.00  0.00     0.112 A 
HETATM   16  N   UNK N   1      25.242  18.105   4.681  0.00  0.00    -0.303 N 
HETATM   17  C   UNK N   1      26.902  19.797   4.468  0.00  0.00     0.129 A 
HETATM   18  C   UNK N   1      24.407  18.760   3.837  0.00  0.00     0.116 A 
HETATM   19  C   UNK N   1      24.828  19.985   3.310  0.00  0.00     0.107 A 
HETATM   20  N   UNK N   1      26.060  20.471   3.634  0.00  0.00    -0.349 N 
ATOM     21  HN  UNK N   1      26.361  21.364   3.243  1.00  0.00     0.167 HD
BRANCH  13  22
HETATM   22  C   UNK N   1      28.406  17.518   6.460  0.00  0.00    -0.007 A 
HETATM   23  C   UNK N   1      28.648  17.886   7.776  0.00  0.00     0.015 A 
HETATM   24  C   UNK N   1      29.930  17.838   8.300  0.00  0.00     0.018 A 
HETATM   25  C   UNK N   1      31.011  17.424   7.514  0.00  0.00     0.032 A 
HETATM   26  C   UNK N   1      30.790  17.055   6.182  0.00  0.00     0.018 A 
HETATM   27  C   UNK N   1      29.491  17.107   5.658  0.00  0.00     0.015 A 
BRANCH  25  28
HETATM   28  C   UNK N   1      32.344  17.387   8.141  0.00  0.00     0.257 C 
HETATM   29  O   UNK N   1      33.105  18.342   8.065  0.00  0.00    -0.267 OA
HETATM   30  N   UNK N   1      32.695  16.250   8.794  0.00  0.00    -0.309 N 
HETATM   31  H   UNK N   1      32.018  15.536   8.804  0.00  0.00     0.170 HD
BRANCH  30  32
HETATM   32  C   UNK N   1      33.907  15.960   9.458  0.00  0.00     0.107 A 
HETATM   33  C   UNK N   1      34.521  14.734   9.194  0.00  0.00     0.048 A 
HETATM   34  C   UNK N   1      35.718  14.413   9.826  0.00  0.00     0.005 A 
HETATM   35  C   UNK N   1      36.290  15.320  10.716  0.00  0.00     0.017 A 
HETATM   36  C   UNK N   1      35.649  16.539  10.960  0.00  0.00     0.089 A 
HETATM   37  N   UNK N   1      34.478  16.837  10.331  0.00  0.00    -0.352 N 
ATOM     38  HN  UNK N   1      34.022  17.730  10.516  1.00  0.00     0.166 HD
ENDBRANCH  30  32
ENDBRANCH  25  28
ENDBRANCH  13  22
BRANCH  17  39
HETATM   39  N   UNK N   1      28.168  20.345   4.741  0.00  0.00    -0.384 N 
HETATM   40  H   UNK N   1      28.285  21.322   4.778  0.00  0.00     0.157 HD
HETATM   41  H   UNK N   1      28.939  19.752   4.892  0.00  0.00     0.157 HD
ENDBRANCH  17  39
ENDBRANCH   8  11
ENDBRANCH   3   4
TORSDOF 6
ENDMDL
MODEL 2
REMARK VINA RESULT:      -8.0      3.950     11.950
REMARK  6 active torsions:
REMARK  status: ('A' for Active; 'I' for Inactive)
REMARK    1  A    between atoms: C_3  and  C_4 
REMARK       I    between atoms: C_4  and  N_6 
REMARK    2  A    between atoms: C_10  and  C_11 
REMARK    3  A    between atoms: C_14  and  C_23 
REMARK    4  A    between atoms: C_21  and  N_22 
REMARK    5  A    between atoms: C_26  and  C_29 
REMARK       I    between atoms: C_29  and  N_31 
REMARK    6  A    between atoms: N_31  and  C_32 
ROOT
HETATM    1  C   UNK N   1      35.776   7.884  16.028  0.00  0.00     0.112 C 
HETATM    2  C   UNK N   1      35.438   9.138  15.354  0.00  0.00    -0.101 C 
HETATM    3  C   UNK N   1      35.188  10.157  14.759  0.00  0.00    -0.006 C 
ENDROOT
BRANCH   3   4
HETATM    4  C   UNK N   1      34.959  11.341  13.957  0.00  0.00     0.299 C 
HETATM    5  O   UNK N   1      34.089  11.281  13.107  0.00  0.00    -0.258 OA
HETATM    6  N   UNK N   1      35.655  12.504  14.178  0.00  0.00    -0.330 N 
HETATM    7  C   UNK N   1      36.608  12.599  15.252  0.00  0.00     0.128 C 
HETATM    8  C   UNK N   1      35.414  13.782  13.516  0.00  0.00     0.156 C 
HETATM    9  C   UNK N   1      36.880  14.087  15.402  0.00  0.00     0.022 C 
HETATM   10  C   UNK N   1      36.496  14.695  14.063  0.00  0.00     0.035 C 
BRANCH   8  11
HETATM   11  C   UNK N   1      35.316  13.813  11.993  0.00  0.00     0.112 A 
HETATM   12  N   UNK N   1      34.293  14.386  11.338  0.00  0.00    -0.341 N 
HETATM   13  C   UNK N   1      34.646  14.443  10.037  0.00  0.00     0.075 A 
ATOM     14  HN  UNK N   1      33.417  14.715  11.745  1.00  0.00     0.167 HD
HETATM   15  C   UNK N   1      35.921  13.868   9.908  0.00  0.00     0.112 A 
HETATM   16  N   UNK N   1      36.316  13.486  11.140  0.00  0.00    -0.303 N 
HETATM   17  C   UNK N   1      36.802  13.672   8.818  0.00  0.00     0.129 A 
HETATM   18  C   UNK N   1      37.526  12.927  11.391  0.00  0.00     0.116 A 
HETATM   19  C   UNK N   1      38.391  12.715  10.313  0.00  0.00     0.107 A 
HETATM   20  N   UNK N   1      38.012  13.092   9.059  0.00  0.00    -0.349 N 
ATOM     21  HN  UNK N   1      38.651  12.936   8.279  1.00  0.00     0.167 HD
BRANCH  13  22
HETATM   22  C   UNK N   1      33.758  15.119   9.064  0.00  0.00    -0.007 A 
HETATM   23  C   UNK N   1      33.708  16.502   8.959  0.00  0.00     0.015 A 
HETATM   24  C   UNK N   1      32.831  17.113   8.077  0.00  0.00     0.018 A 
HETATM   25  C   UNK N   1      31.972  16.353   7.277  0.00  0.00     0.032 A 
HETATM   26  C   UNK N   1      32.001  14.956   7.372  0.00  0.00     0.018 A 
HETATM   27  C   UNK N   1      32.890  14.345   8.267  0.00  0.00     0.015 A 
BRANCH  25  28
HETATM   28  C   UNK N   1      31.074  17.070   6.355  0.00  0.00     0.257 C 
HETATM   29  O   UNK N   1      31.434  17.366   5.223  0.00  0.00    -0.267 OA
HETATM   30  N   UNK N   1      29.839  17.396   6.814  0.00  0.00    -0.309 N 
HETATM   31  H   UNK N   1      29.637  17.116   7.736  0.00  0.00     0.170 HD
BRANCH  30  32
HETATM   32  C   UNK N   1      28.808  18.088   6.141  0.00  0.00     0.107 A 
HETATM   33  C   UNK N   1      28.157  19.118   6.823  0.00  0.00     0.048 A 
HETATM   34  C   UNK N   1      27.139  19.825   6.193  0.00  0.00     0.005 A 
HETATM   35  C   UNK N   1      26.780  19.497   4.887  0.00  0.00     0.017 A 
HETATM   36  C   UNK N   1      27.451  18.459   4.232  0.00  0.00     0.089 A 
HETATM   37  N   UNK N   1      28.447  17.778   4.865  0.00  0.00    -0.352 N 
ATOM     38  HN  UNK N   1      28.930  17.025   4.375  1.00  0.00     0.166 HD
ENDBRANCH  30  32
ENDBRANCH  25  28
ENDBRANCH  13  22
BRANCH  17  39
HETATM   39  N   UNK N   1      36.487  14.058   7.503  0.00  0.00    -0.384 N 
HETATM   40  H   UNK N   1      36.873  13.573   6.739  0.00  0.00     0.157 HD
HETATM   41  H   UNK N   1      35.879  14.817   7.346  0.00  0.00     0.157 HD
ENDBRANCH  17  39
ENDBRANCH   8  11
ENDBRANCH   3   4
TORSDOF 6
ENDMDL
MODEL 3
REMARK VINA RESULT:      -8.0      3.510      9.455
REMARK  6 active torsions:
REMARK  status: ('A' for Active; 'I' for Inactive)
REMARK    1  A    between atoms: C_3  and  C_4 
REMARK       I    between atoms: C_4  and  N_6 
REMARK    2  A    between atoms: C_10  and  C_11 
REMARK    3  A    between atoms: C_14  and  C_23 
REMARK    4  A    between atoms: C_21  and  N_22 
REMARK    5  A    between atoms: C_26  and  C_29 
REMARK       I    between atoms: C_29  and  N_31 
REMARK    6  A    between atoms: N_31  and  C_32 
ROOT
HETATM    1  C   UNK N   1      30.692   9.900   3.228  0.00  0.00     0.112 C 
HETATM    2  C   UNK N   1      30.969  11.166   3.909  0.00  0.00    -0.101 C 
HETATM    3  C   UNK N   1      31.182  12.234   4.428  0.00  0.00    -0.006 C 
ENDROOT
BRANCH   3   4
HETATM    4  C   UNK N   1      31.403  13.566   4.948  0.00  0.00     0.299 C 
HETATM    5  O   UNK N   1      30.976  13.811   6.062  0.00  0.00    -0.258 OA
HETATM    6  N   UNK N   1      32.112  14.506   4.239  0.00  0.00    -0.330 N 
HETATM    7  C   UNK N   1      32.703  14.178   2.969  0.00  0.00     0.128 C 
HETATM    8  C   UNK N   1      32.498  15.827   4.723  0.00  0.00     0.156 C 
HETATM    9  C   UNK N   1      33.677  15.310   2.687  0.00  0.00     0.022 C 
HETATM   10  C   UNK N   1      33.185  16.473   3.533  0.00  0.00     0.035 C 
BRANCH   8  11
HETATM   11  C   UNK N   1      31.433  16.718   5.356  0.00  0.00     0.112 A 
HETATM   12  N   UNK N   1      30.365  17.174   4.680  0.00  0.00    -0.341 N 
HETATM   13  C   UNK N   1      29.528  17.712   5.592  0.00  0.00     0.075 A 
ATOM     14  HN  UNK N   1      30.216  17.124   3.672  1.00  0.00     0.167 HD
HETATM   15  C   UNK N   1      30.125  17.586   6.856  0.00  0.00     0.112 A 
HETATM   16  N   UNK N   1      31.308  16.963   6.682  0.00  0.00    -0.303 N 
HETATM   17  C   UNK N   1      29.723  17.932   8.169  0.00  0.00     0.129 A 
HETATM   18  C   UNK N   1      32.135  16.640   7.708  0.00  0.00     0.116 A 
HETATM   19  C   UNK N   1      31.750  16.997   9.003  0.00  0.00     0.107 A 
HETATM   20  N   UNK N   1      30.558  17.629   9.204  0.00  0.00    -0.349 N 
ATOM     21  HN  UNK N   1      30.283  17.882  10.152  1.00  0.00     0.167 HD
BRANCH  13  22
HETATM   22  C   UNK N   1      28.203  18.216   5.164  0.00  0.00    -0.007 A 
HETATM   23  C   UNK N   1      27.073  17.411   5.185  0.00  0.00     0.015 A 
HETATM   24  C   UNK N   1      25.855  17.890   4.730  0.00  0.00     0.018 A 
HETATM   25  C   UNK N   1      25.735  19.193   4.235  0.00  0.00     0.032 A 
HETATM   26  C   UNK N   1      26.864  20.020   4.199  0.00  0.00     0.018 A 
HETATM   27  C   UNK N   1      28.094  19.528   4.659  0.00  0.00     0.015 A 
BRANCH  25  28
HETATM   28  C   UNK N   1      24.407  19.638   3.779  0.00  0.00     0.257 C 
HETATM   29  O   UNK N   1      24.211  20.797   3.437  0.00  0.00    -0.267 OA
HETATM   30  N   UNK N   1      23.411  18.716   3.765  0.00  0.00    -0.309 N 
HETATM   31  H   UNK N   1      23.662  17.810   4.056  0.00  0.00     0.170 HD
BRANCH  30  32
HETATM   32  C   UNK N   1      22.061  18.890   3.389  0.00  0.00     0.107 A 
HETATM   33  C   UNK N   1      21.170  17.845   3.644  0.00  0.00     0.048 A 
HETATM   34  C   UNK N   1      19.832  17.980   3.292  0.00  0.00     0.005 A 
HETATM   35  C   UNK N   1      19.395  19.157   2.687  0.00  0.00     0.017 A 
HETATM   36  C   UNK N   1      20.313  20.184   2.444  0.00  0.00     0.089 A 
HETATM   37  N   UNK N   1      21.620  20.035   2.798  0.00  0.00    -0.352 N 
ATOM     38  HN  UNK N   1      22.278  20.792   2.617  1.00  0.00     0.166 HD
ENDBRANCH  30  32
ENDBRANCH  25  28
ENDBRANCH  13  22
BRANCH  17  39
HETATM   39  N   UNK N   1      28.498  18.563   8.450  0.00  0.00    -0.384 N 
HETATM   40  H   UNK N   1      28.466  19.321   9.077  0.00  0.00     0.157 HD
HETATM   41  H   UNK N   1      27.671  18.244   8.021  0.00  0.00     0.157 HD
ENDBRANCH  17  39
ENDBRANCH   8  11
ENDBRANCH   3   4
TORSDOF 6
ENDMDL
MODEL 4
REMARK VINA RESULT:      -7.8      3.050      5.306
REMARK  6 active torsions:
REMARK  status: ('A' for Active; 'I' for Inactive)
REMARK    1  A    between atoms: C_3  and  C_4 
REMARK       I    between atoms: C_4  and  N_6 
REMARK    2  A    between atoms: C_10  and  C_11 
REMARK    3  A    between atoms: C_14  and  C_23 
REMARK    4  A    between atoms: C_21  and  N_22 
REMARK    5  A    between atoms: C_26  and  C_29 
REMARK       I    between atoms: C_29  and  N_31 
REMARK    6  A    between atoms: N_31  and  C_32 
ROOT
HETATM    1  C   UNK N   1      22.925  11.940  12.210  0.00  0.00     0.112 C 
HETATM    2  C   UNK N   1      22.574  12.437  10.878  0.00  0.00    -0.101 C 
HETATM    3  C   UNK N   1      22.327  12.875   9.782  0.00  0.00    -0.006 C 
ENDROOT
BRANCH   3   4
HETATM    4  C   UNK N   1      22.128  13.467   8.477  0.00  0.00     0.299 C 
HETATM    5  O   UNK N   1      22.668  12.928   7.528  0.00  0.00    -0.258 OA
HETATM    6  N   UNK N   1      21.320  14.565   8.302  0.00  0.00    -0.330 N 
HETATM    7  C   UNK N   1      20.602  15.135   9.411  0.00  0.00     0.128 C 
HETATM    8  C   UNK N   1      20.954  15.160   7.020  0.00  0.00     0.156 C 
HETATM    9  C   UNK N   1      19.573  16.056   8.778  0.00  0.00     0.022 C 
HETATM   10  C   UNK N   1      20.123  16.373   7.397  0.00  0.00     0.035 C 
BRANCH   8  11
HETATM   11  C   UNK N   1      22.058  15.477   6.016  0.00  0.00     0.112 A 
HETATM   12  N   UNK N   1      23.261  15.953   6.378  0.00  0.00    -0.341 N 
HETATM   13  C   UNK N   1      24.051  15.886   5.285  0.00  0.00     0.075 A 
ATOM     14  HN  UNK N   1      23.527  16.298   7.300  1.00  0.00     0.167 HD
HETATM   15  C   UNK N   1      23.286  15.367   4.228  0.00  0.00     0.112 A 
HETATM   16  N   UNK N   1      22.051  15.119   4.710  0.00  0.00    -0.303 N 
HETATM   17  C   UNK N   1      23.568  15.049   2.878  0.00  0.00     0.129 A 
HETATM   18  C   UNK N   1      21.061  14.569   3.963  0.00  0.00     0.116 A 
HETATM   19  C   UNK N   1      21.331  14.271   2.625  0.00  0.00     0.107 A 
HETATM   20  N   UNK N   1      22.572  14.514   2.116  0.00  0.00    -0.349 N 
ATOM     21  HN  UNK N   1      22.761  14.291   1.139  1.00  0.00     0.167 HD
BRANCH  13  22
HETATM   22  C   UNK N   1      25.482  16.251   5.391  0.00  0.00    -0.007 A 
HETATM   23  C   UNK N   1      25.980  17.422   4.840  0.00  0.00     0.015 A 
HETATM   24  C   UNK N   1      27.333  17.716   4.906  0.00  0.00     0.018 A 
HETATM   25  C   UNK N   1      28.229  16.837   5.525  0.00  0.00     0.032 A 
HETATM   26  C   UNK N   1      27.748  15.646   6.082  0.00  0.00     0.018 A 
HETATM   27  C   UNK N   1      26.378  15.355   6.010  0.00  0.00     0.015 A 
BRANCH  25  28
HETATM   28  C   UNK N   1      29.650  17.220   5.568  0.00  0.00     0.257 C 
HETATM   29  O   UNK N   1      30.204  17.710   4.593  0.00  0.00    -0.267 OA
HETATM   30  N   UNK N   1      30.322  16.997   6.727  0.00  0.00    -0.309 N 
HETATM   31  H   UNK N   1      29.795  16.600   7.457  0.00  0.00     0.170 HD
BRANCH  30  32
HETATM   32  C   UNK N   1      31.679  17.258   7.017  0.00  0.00     0.107 A 
HETATM   33  C   UNK N   1      32.027  17.513   8.346  0.00  0.00     0.048 A 
HETATM   34  C   UNK N   1      33.353  17.771   8.673  0.00  0.00     0.005 A 
HETATM   35  C   UNK N   1      34.321  17.773   7.670  0.00  0.00     0.017 A 
HETATM   36  C   UNK N   1      33.940  17.515   6.350  0.00  0.00     0.089 A 
HETATM   37  N   UNK N   1      32.636  17.263   6.048  0.00  0.00    -0.352 N 
ATOM     38  HN  UNK N   1      32.371  17.075   5.081  1.00  0.00     0.166 HD
ENDBRANCH  30  32
ENDBRANCH  25  28
ENDBRANCH  13  22
BRANCH  17  39
HETATM   39  N   UNK N   1      24.833  15.251   2.295  0.00  0.00    -0.384 N 
HETATM   40  H   UNK N   1      25.355  14.482   1.971  0.00  0.00     0.157 HD
HETATM   41  H   UNK N   1      25.196  16.162   2.213  0.00  0.00     0.157 HD
ENDBRANCH  17  39
ENDBRANCH   8  11
ENDBRANCH   3   4
TORSDOF 6
ENDMDL
MODEL 5
REMARK VINA RESULT:      -7.6      4.287     12.199
REMARK  6 active torsions:
REMARK  status: ('A' for Active; 'I' for Inactive)
REMARK    1  A    between atoms: C_3  and  C_4 
REMARK       I    between atoms: C_4  and  N_6 
REMARK    2  A    between atoms: C_10  and  C_11 
REMARK    3  A    between atoms: C_14  and  C_23 
REMARK    4  A    between atoms: C_21  and  N_22 
REMARK    5  A    between atoms: C_26  and  C_29 
REMARK       I    between atoms: C_29  and  N_31 
REMARK    6  A    between atoms: N_31  and  C_32 
ROOT
HETATM    1  C   UNK N   1      35.023  13.719  18.246  0.00  0.00     0.112 C 
HETATM    2  C   UNK N   1      35.319  13.409  16.846  0.00  0.00    -0.101 C 
HETATM    3  C   UNK N   1      35.593  13.117  15.708  0.00  0.00    -0.006 C 
ENDROOT
BRANCH   3   4
HETATM    4  C   UNK N   1      35.993  12.680  14.387  0.00  0.00     0.299 C 
HETATM    5  O   UNK N   1      36.611  13.472  13.699  0.00  0.00    -0.258 OA
HETATM    6  N   UNK N   1      35.732  11.406  13.942  0.00  0.00    -0.330 N 
HETATM    7  C   UNK N   1      35.094  10.444  14.800  0.00  0.00     0.128 C 
HETATM    8  C   UNK N   1      36.199  10.830  12.686  0.00  0.00     0.156 C 
HETATM    9  C   UNK N   1      35.311   9.106  14.113  0.00  0.00     0.022 C 
HETATM   10  C   UNK N   1      35.573   9.447  12.656  0.00  0.00     0.035 C 
BRANCH   8  11
HETATM   11  C   UNK N   1      35.986  11.613  11.394  0.00  0.00     0.112 A 
HETATM   12  N   UNK N   1      34.919  12.404  11.186  0.00  0.00    -0.341 N 
HETATM   13  C   UNK N   1      35.174  13.113  10.067  0.00  0.00     0.075 A 
ATOM     14  HN  UNK N   1      34.079  12.457  11.762  1.00  0.00     0.167 HD
HETATM   15  C   UNK N   1      36.431  12.721   9.580  0.00  0.00     0.112 A 
HETATM   16  N   UNK N   1      36.915  11.788  10.425  0.00  0.00    -0.303 N 
HETATM   17  C   UNK N   1      37.225  13.124   8.480  0.00  0.00     0.129 A 
HETATM   18  C   UNK N   1      38.137  11.218  10.278  0.00  0.00     0.116 A 
HETATM   19  C   UNK N   1      38.917  11.600   9.182  0.00  0.00     0.107 A 
HETATM   20  N   UNK N   1      38.447  12.540   8.314  0.00  0.00    -0.349 N 
ATOM     21  HN  UNK N   1      39.023  12.815   7.519  1.00  0.00     0.167 HD
BRANCH  13  22
HETATM   22  C   UNK N   1      34.219  14.156   9.627  0.00  0.00    -0.007 A 
HETATM   23  C   UNK N   1      33.055  13.839   8.942  0.00  0.00     0.015 A 
HETATM   24  C   UNK N   1      32.203  14.836   8.494  0.00  0.00     0.018 A 
HETATM   25  C   UNK N   1      32.497  16.185   8.716  0.00  0.00     0.032 A 
HETATM   26  C   UNK N   1      33.671  16.528   9.400  0.00  0.00     0.018 A 
HETATM   27  C   UNK N   1      34.529  15.514   9.848  0.00  0.00     0.015 A 
BRANCH  25  28
HETATM   28  C   UNK N   1      31.541  17.190   8.222  0.00  0.00     0.257 C 
HETATM   29  O   UNK N   1      31.515  18.322   8.688  0.00  0.00    -0.267 OA
HETATM   30  N   UNK N   1      30.686  16.808   7.241  0.00  0.00    -0.309 N 
HETATM   31  H   UNK N   1      30.780  15.879   6.927  0.00  0.00     0.170 HD
BRANCH  30  32
HETATM   32  C   UNK N   1      29.675  17.569   6.613  0.00  0.00     0.107 A 
HETATM   33  C   UNK N   1      29.608  17.544   5.218  0.00  0.00     0.048 A 
HETATM   34  C   UNK N   1      28.625  18.278   4.562  0.00  0.00     0.005 A 
HETATM   35  C   UNK N   1      27.719  19.031   5.306  0.00  0.00     0.017 A 
HETATM   36  C   UNK N   1      27.814  19.036   6.701  0.00  0.00     0.089 A 
HETATM   37  N   UNK N   1      28.782  18.310   7.326  0.00  0.00    -0.352 N 
ATOM     38  HN  UNK N   1      28.840  18.320   8.344  1.00  0.00     0.166 HD
ENDBRANCH  30  32
ENDBRANCH  25  28
ENDBRANCH  13  22
BRANCH  17  39
HETATM   39  N   UNK N   1      36.813  14.105   7.560  0.00  0.00    -0.384 N 
HETATM   40  H   UNK N   1      37.149  14.086   6.635  0.00  0.00     0.157 HD
HETATM   41  H   UNK N   1      36.189  14.812   7.842  0.00  0.00     0.157 HD
ENDBRANCH  17  39
ENDBRANCH   8  11
ENDBRANCH   3   4
TORSDOF 6
ENDMDL
MODEL 6
REMARK VINA RESULT:      -7.5      3.439      4.926
REMARK  6 active torsions:
REMARK  status: ('A' for Active; 'I' for Inactive)
REMARK    1  A    between atoms: C_3  and  C_4 
REMARK       I    between atoms: C_4  and  N_6 
REMARK    2  A    between atoms: C_10  and  C_11 
REMARK    3  A    between atoms: C_14  and  C_23 
REMARK    4  A    between atoms: C_21  and  N_22 
REMARK    5  A    between atoms: C_26  and  C_29 
REMARK       I    between atoms: C_29  and  N_31 
REMARK    6  A    between atoms: N_31  and  C_32 
ROOT
HETATM    1  C   UNK N   1      19.435  11.792   0.070  0.00  0.00     0.112 C 
HETATM    2  C   UNK N   1      19.701  13.096   0.680  0.00  0.00    -0.101 C 
HETATM    3  C   UNK N   1      19.910  14.150   1.228  0.00  0.00    -0.006 C 
ENDROOT
BRANCH   3   4
HETATM    4  C   UNK N   1      20.133  15.362   1.989  0.00  0.00     0.299 C 
HETATM    5  O   UNK N   1      20.514  16.344   1.378  0.00  0.00    -0.258 OA
HETATM    6  N   UNK N   1      19.878  15.420   3.338  0.00  0.00    -0.330 N 
HETATM    7  C   UNK N   1      19.330  14.287   4.033  0.00  0.00     0.128 C 
HETATM    8  C   UNK N   1      19.949  16.618   4.168  0.00  0.00     0.156 C 
HETATM    9  C   UNK N   1      18.859  14.838   5.368  0.00  0.00     0.022 C 
HETATM   10  C   UNK N   1      19.653  16.117   5.570  0.00  0.00     0.035 C 
BRANCH   8  11
HETATM   11  C   UNK N   1      21.199  17.491   4.093  0.00  0.00     0.112 A 
HETATM   12  N   UNK N   1      22.437  17.014   4.304  0.00  0.00    -0.341 N 
HETATM   13  C   UNK N   1      23.297  17.982   3.926  0.00  0.00     0.075 A 
ATOM     14  HN  UNK N   1      22.680  16.097   4.679  1.00  0.00     0.167 HD
HETATM   15  C   UNK N   1      22.545  19.083   3.488  0.00  0.00     0.112 A 
HETATM   16  N   UNK N   1      21.243  18.751   3.600  0.00  0.00    -0.303 N 
HETATM   17  C   UNK N   1      22.881  20.353   2.958  0.00  0.00     0.129 A 
HETATM   18  C   UNK N   1      20.232  19.573   3.222  0.00  0.00     0.116 A 
HETATM   19  C   UNK N   1      20.561  20.834   2.717  0.00  0.00     0.107 A 
HETATM   20  N   UNK N   1      21.871  21.192   2.595  0.00  0.00    -0.349 N 
ATOM     21  HN  UNK N   1      22.101  22.113   2.222  1.00  0.00     0.167 HD
BRANCH  13  22
HETATM   22  C   UNK N   1      24.754  17.718   3.945  0.00  0.00    -0.007 A 
HETATM   23  C   UNK N   1      25.319  16.679   3.219  0.00  0.00     0.015 A 
HETATM   24  C   UNK N   1      26.678  16.420   3.295  0.00  0.00     0.018 A 
HETATM   25  C   UNK N   1      27.512  17.194   4.108  0.00  0.00     0.032 A 
HETATM   26  C   UNK N   1      26.962  18.244   4.855  0.00  0.00     0.018 A 
HETATM   27  C   UNK N   1      25.586  18.499   4.774  0.00  0.00     0.015 A 
BRANCH  25  28
HETATM   28  C   UNK N   1      28.948  16.868   4.131  0.00  0.00     0.257 C 
HETATM   29  O   UNK N   1      29.443  16.129   3.290  0.00  0.00    -0.267 OA
HETATM   30  N   UNK N   1      29.696  17.411   5.125  0.00  0.00    -0.309 N 
HETATM   31  H   UNK N   1      29.213  17.994   5.755  0.00  0.00     0.170 HD
BRANCH  30  32
HETATM   32  C   UNK N   1      31.076  17.245   5.375  0.00  0.00     0.107 A 
HETATM   33  C   UNK N   1      31.974  17.670   4.393  0.00  0.00     0.048 A 
HETATM   34  C   UNK N   1      33.341  17.527   4.603  0.00  0.00     0.005 A 
HETATM   35  C   UNK N   1      33.799  16.961   5.791  0.00  0.00     0.017 A 
HETATM   36  C   UNK N   1      32.874  16.545   6.753  0.00  0.00     0.089 A 
HETATM   37  N   UNK N   1      31.538  16.694   6.531  0.00  0.00    -0.352 N 
ATOM     38  HN  UNK N   1      30.874  16.388   7.242  1.00  0.00     0.166 HD
ENDBRANCH  30  32
ENDBRANCH  25  28
ENDBRANCH  13  22
BRANCH  17  39
HETATM   39  N   UNK N   1      24.211  20.778   2.783  0.00  0.00    -0.384 N 
HETATM   40  H   UNK N   1      24.868  20.179   2.361  0.00  0.00     0.157 HD
HETATM   41  H   UNK N   1      24.484  21.674   3.084  0.00  0.00     0.157 HD
ENDBRANCH  17  39
ENDBRANCH   8  11
ENDBRANCH   3   4
TORSDOF 6
ENDMDL
MODEL 7
REMARK VINA RESULT:      -7.4      2.760      3.669
REMARK  6 active torsions:
REMARK  status: ('A' for Active; 'I' for Inactive)
REMARK    1  A    between atoms: C_3  and  C_4 
REMARK       I    between atoms: C_4  and  N_6 
REMARK    2  A    between atoms: C_10  and  C_11 
REMARK    3  A    between atoms: C_14  and  C_23 
REMARK    4  A    between atoms: C_21  and  N_22 
REMARK    5  A    between atoms: C_26  and  C_29 
REMARK       I    between atoms: C_29  and  N_31 
REMARK    6  A    between atoms: N_31  and  C_32 
ROOT
HETATM    1  C   UNK N   1      22.043  10.522   5.327  0.00  0.00     0.112 C 
HETATM    2  C   UNK N   1      22.014  11.986   5.300  0.00  0.00    -0.101 C 
HETATM    3  C   UNK N   1      21.998  13.189   5.228  0.00  0.00    -0.006 C 
ENDROOT
BRANCH   3   4
HETATM    4  C   UNK N   1      21.994  14.622   5.025  0.00  0.00     0.299 C 
HETATM    5  O   UNK N   1      22.455  15.041   3.978  0.00  0.00    -0.258 OA
HETATM    6  N   UNK N   1      21.445  15.478   5.950  0.00  0.00    -0.330 N 
HETATM    7  C   UNK N   1      20.808  14.970   7.135  0.00  0.00     0.128 C 
HETATM    8  C   UNK N   1      21.277  16.918   5.786  0.00  0.00     0.156 C 
HETATM    9  C   UNK N   1      20.030  16.148   7.696  0.00  0.00     0.022 C 
HETATM   10  C   UNK N   1      20.702  17.379   7.113  0.00  0.00     0.035 C 
BRANCH   8  11
HETATM   11  C   UNK N   1      22.472  17.749   5.328  0.00  0.00     0.112 A 
HETATM   12  N   UNK N   1      23.742  17.439   5.641  0.00  0.00    -0.341 N 
HETATM   13  C   UNK N   1      24.533  18.228   4.885  0.00  0.00     0.075 A 
ATOM     14  HN  UNK N   1      24.048  16.741   6.319  1.00  0.00     0.167 HD
HETATM   15  C   UNK N   1      23.706  19.051   4.104  0.00  0.00     0.112 A 
HETATM   16  N   UNK N   1      22.429  18.732   4.397  0.00  0.00    -0.303 N 
HETATM   17  C   UNK N   1      23.953  20.041   3.122  0.00  0.00     0.129 A 
HETATM   18  C   UNK N   1      21.362  19.308   3.790  0.00  0.00     0.116 A 
HETATM   19  C   UNK N   1      21.603  20.299   2.833  0.00  0.00     0.107 A 
HETATM   20  N   UNK N   1      22.886  20.639   2.521  0.00  0.00    -0.349 N 
ATOM     21  HN  UNK N   1      23.052  21.361   1.820  1.00  0.00     0.167 HD
BRANCH  13  22
HETATM   22  C   UNK N   1      26.003  18.052   4.929  0.00  0.00    -0.007 A 
HETATM   23  C   UNK N   1      26.627  16.969   4.327  0.00  0.00     0.015 A 
HETATM   24  C   UNK N   1      27.999  16.799   4.427  0.00  0.00     0.018 A 
HETATM   25  C   UNK N   1      28.785  17.709   5.142  0.00  0.00     0.032 A 
HETATM   26  C   UNK N   1      28.174  18.804   5.763  0.00  0.00     0.018 A 
HETATM   27  C   UNK N   1      26.786  18.970   5.659  0.00  0.00     0.015 A 
BRANCH  25  28
HETATM   28  C   UNK N   1      30.238  17.470   5.197  0.00  0.00     0.257 C 
HETATM   29  O   UNK N   1      30.927  17.527   4.187  0.00  0.00    -0.267 OA
HETATM   30  N   UNK N   1      30.776  17.175   6.407  0.00  0.00    -0.309 N 
HETATM   31  H   UNK N   1      30.145  17.152   7.163  0.00  0.00     0.170 HD
BRANCH  30  32
HETATM   32  C   UNK N   1      32.124  16.893   6.722  0.00  0.00     0.107 A 
HETATM   33  C   UNK N   1      32.804  17.789   7.549  0.00  0.00     0.048 A 
HETATM   34  C   UNK N   1      34.131  17.545   7.885  0.00  0.00     0.005 A 
HETATM   35  C   UNK N   1      34.768  16.408   7.391  0.00  0.00     0.017 A 
HETATM   36  C   UNK N   1      34.059  15.531   6.563  0.00  0.00     0.089 A 
HETATM   37  N   UNK N   1      32.759  15.786   6.246  0.00  0.00    -0.352 N 
ATOM     38  HN  UNK N   1      32.253  15.138   5.643  1.00  0.00     0.166 HD
ENDBRANCH  30  32
ENDBRANCH  25  28
ENDBRANCH  13  22
BRANCH  17  39
HETATM   39  N   UNK N   1      25.250  20.423   2.734  0.00  0.00    -0.384 N 
HETATM   40  H   UNK N   1      25.897  20.729   3.410  0.00  0.00     0.157 HD
HETATM   41  H   UNK N   1      25.511  20.386   1.786  0.00  0.00     0.157 HD
ENDBRANCH  17  39
ENDBRANCH   8  11
ENDBRANCH   3   4
TORSDOF 6
ENDMDL
MODEL 8
REMARK VINA RESULT:      -7.4      5.540      9.863
REMARK  6 active torsions:
REMARK  status: ('A' for Active; 'I' for Inactive)
REMARK    1  A    between atoms: C_3  and  C_4 
REMARK       I    between atoms: C_4  and  N_6 
REMARK    2  A    between atoms: C_10  and  C_11 
REMARK    3  A    between atoms: C_14  and  C_23 
REMARK    4  A    between atoms: C_21  and  N_22 
REMARK    5  A    between atoms: C_26  and  C_29 
REMARK       I    between atoms: C_29  and  N_31 
REMARK    6  A    between atoms: N_31  and  C_32 
ROOT
HETATM    1  C   UNK N   1      29.021  12.292   4.300  0.00  0.00     0.112 C 
HETATM    2  C   UNK N   1      30.300  12.911   4.649  0.00  0.00    -0.101 C 
HETATM    3  C   UNK N   1      31.371  13.376   4.953  0.00  0.00    -0.006 C 
ENDROOT
BRANCH   3   4
HETATM    4  C   UNK N   1      32.687  13.826   5.354  0.00  0.00     0.299 C 
HETATM    5  O   UNK N   1      33.564  12.985   5.439  0.00  0.00    -0.258 OA
HETATM    6  N   UNK N   1      32.954  15.154   5.580  0.00  0.00    -0.330 N 
HETATM    7  C   UNK N   1      31.940  16.154   5.377  0.00  0.00     0.128 C 
HETATM    8  C   UNK N   1      34.268  15.724   5.863  0.00  0.00     0.156 C 
HETATM    9  C   UNK N   1      32.691  17.475   5.366  0.00  0.00     0.022 C 
HETATM   10  C   UNK N   1      33.990  17.198   6.103  0.00  0.00     0.035 C 
BRANCH   8  11
HETATM   11  C   UNK N   1      35.124  15.089   6.955  0.00  0.00     0.112 A 
HETATM   12  N   UNK N   1      34.675  14.871   8.202  0.00  0.00    -0.341 N 
HETATM   13  C   UNK N   1      35.591  14.092   8.815  0.00  0.00     0.075 A 
ATOM     14  HN  UNK N   1      33.809  15.226   8.609  1.00  0.00     0.167 HD
HETATM   15  C   UNK N   1      36.632  13.849   7.905  0.00  0.00     0.112 A 
HETATM   16  N   UNK N   1      36.317  14.479   6.755  0.00  0.00    -0.303 N 
HETATM   17  C   UNK N   1      37.829  13.095   7.963  0.00  0.00     0.129 A 
HETATM   18  C   UNK N   1      37.088  14.420   5.641  0.00  0.00     0.116 A 
HETATM   19  C   UNK N   1      38.280  13.692   5.701  0.00  0.00     0.107 A 
HETATM   20  N   UNK N   1      38.620  13.047   6.853  0.00  0.00    -0.349 N 
ATOM     21  HN  UNK N   1      39.489  12.515   6.887  1.00  0.00     0.167 HD
BRANCH  13  22
HETATM   22  C   UNK N   1      35.331  13.592  10.184  0.00  0.00    -0.007 A 
HETATM   23  C   UNK N   1      35.519  14.391  11.302  0.00  0.00     0.015 A 
HETATM   24  C   UNK N   1      35.319  13.885  12.576  0.00  0.00     0.018 A 
HETATM   25  C   UNK N   1      34.929  12.555  12.767  0.00  0.00     0.032 A 
HETATM   26  C   UNK N   1      34.740  11.728  11.653  0.00  0.00     0.018 A 
HETATM   27  C   UNK N   1      34.945  12.248  10.367  0.00  0.00     0.015 A 
BRANCH  25  28
HETATM   28  C   UNK N   1      34.724  12.088  14.149  0.00  0.00     0.257 C 
HETATM   29  O   UNK N   1      33.943  11.179  14.401  0.00  0.00    -0.267 OA
HETATM   30  N   UNK N   1      35.426  12.711  15.128  0.00  0.00    -0.309 N 
HETATM   31  H   UNK N   1      36.031  13.429  14.832  0.00  0.00     0.170 HD
BRANCH  30  32
HETATM   32  C   UNK N   1      35.400  12.464  16.519  0.00  0.00     0.107 A 
HETATM   33  C   UNK N   1      35.202  13.551  17.373  0.00  0.00     0.048 A 
HETATM   34  C   UNK N   1      35.165  13.348  18.748  0.00  0.00     0.005 A 
HETATM   35  C   UNK N   1      35.328  12.061  19.258  0.00  0.00     0.017 A 
HETATM   36  C   UNK N   1      35.526  10.994  18.376  0.00  0.00     0.089 A 
HETATM   37  N   UNK N   1      35.557  11.212  17.031  0.00  0.00    -0.352 N 
ATOM     38  HN  UNK N   1      35.700  10.425  16.399  1.00  0.00     0.166 HD
ENDBRANCH  30  32
ENDBRANCH  25  28
ENDBRANCH  13  22
BRANCH  17  39
HETATM   39  N   UNK N   1      38.229  12.386   9.111  0.00  0.00    -0.384 N 
HETATM   40  H   UNK N   1      38.182  11.404   9.125  0.00  0.00     0.157 HD
HETATM   41  H   UNK N   1      38.556  12.875   9.901  0.00  0.00     0.157 HD
ENDBRANCH  17  39
ENDBRANCH   8  11
ENDBRANCH   3   4
TORSDOF 6
ENDMDL
MODEL 9
REMARK VINA RESULT:      -7.0      3.861     10.228
REMARK  6 active torsions:
REMARK  status: ('A' for Active; 'I' for Inactive)
REMARK    1  A    between atoms: C_3  and  C_4 
REMARK       I    between atoms: C_4  and  N_6 
REMARK    2  A    between atoms: C_10  and  C_11 
REMARK    3  A    between atoms: C_14  and  C_23 
REMARK    4  A    between atoms: C_21  and  N_22 
REMARK    5  A    between atoms: C_26  and  C_29 
REMARK       I    between atoms: C_29  and  N_31 
REMARK    6  A    between atoms: N_31  and  C_32 
ROOT
HETATM    1  C   UNK N   1      31.364   6.976  10.052  0.00  0.00     0.112 C 
HETATM    2  C   UNK N   1      32.157   8.198   9.904  0.00  0.00    -0.101 C 
HETATM    3  C   UNK N   1      32.838   9.180   9.748  0.00  0.00    -0.006 C 
ENDROOT
BRANCH   3   4
HETATM    4  C   UNK N   1      33.720  10.297   9.481  0.00  0.00     0.299 C 
HETATM    5  O   UNK N   1      33.828  11.145  10.349  0.00  0.00    -0.258 OA
HETATM    6  N   UNK N   1      34.447  10.377   8.318  0.00  0.00    -0.330 N 
HETATM    7  C   UNK N   1      34.394   9.320   7.344  0.00  0.00     0.128 C 
HETATM    8  C   UNK N   1      35.452  11.388   8.008  0.00  0.00     0.156 C 
HETATM    9  C   UNK N   1      35.569   9.584   6.417  0.00  0.00     0.022 C 
HETATM   10  C   UNK N   1      35.884  11.060   6.590  0.00  0.00     0.035 C 
BRANCH   8  11
HETATM   11  C   UNK N   1      35.098  12.860   8.203  0.00  0.00     0.112 A 
HETATM   12  N   UNK N   1      33.965  13.407   7.734  0.00  0.00    -0.341 N 
HETATM   13  C   UNK N   1      33.867  14.634   8.288  0.00  0.00     0.075 A 
ATOM     14  HN  UNK N   1      33.305  12.978   7.085  1.00  0.00     0.167 HD
HETATM   15  C   UNK N   1      34.992  14.832   9.104  0.00  0.00     0.112 A 
HETATM   16  N   UNK N   1      35.741  13.713   9.036  0.00  0.00    -0.303 N 
HETATM   17  C   UNK N   1      35.421  15.890   9.942  0.00  0.00     0.129 A 
HETATM   18  C   UNK N   1      36.888  13.544   9.740  0.00  0.00     0.116 A 
HETATM   19  C   UNK N   1      37.324  14.593  10.554  0.00  0.00     0.107 A 
HETATM   20  N   UNK N   1      36.583  15.735  10.638  0.00  0.00    -0.349 N 
ATOM     21  HN  UNK N   1      36.907  16.494  11.237  1.00  0.00     0.167 HD
BRANCH  13  22
HETATM   22  C   UNK N   1      32.661  15.457   8.040  0.00  0.00    -0.007 A 
HETATM   23  C   UNK N   1      32.383  15.988   6.789  0.00  0.00     0.015 A 
HETATM   24  C   UNK N   1      31.276  16.798   6.594  0.00  0.00     0.018 A 
HETATM   25  C   UNK N   1      30.416  17.105   7.654  0.00  0.00     0.032 A 
HETATM   26  C   UNK N   1      30.682  16.586   8.926  0.00  0.00     0.018 A 
HETATM   27  C   UNK N   1      31.805  15.768   9.116  0.00  0.00     0.015 A 
BRANCH  25  28
HETATM   28  C   UNK N   1      29.253  17.963   7.371  0.00  0.00     0.257 C 
HETATM   29  O   UNK N   1      28.543  18.386   8.275  0.00  0.00    -0.267 OA
HETATM   30  N   UNK N   1      28.995  18.257   6.071  0.00  0.00    -0.309 N 
HETATM   31  H   UNK N   1      29.620  17.874   5.414  0.00  0.00     0.170 HD
BRANCH  30  32
HETATM   32  C   UNK N   1      27.944  19.038   5.541  0.00  0.00     0.107 A 
HETATM   33  C   UNK N   1      27.487  18.734   4.257  0.00  0.00     0.048 A 
HETATM   34  C   UNK N   1      26.451  19.477   3.701  0.00  0.00     0.005 A 
HETATM   35  C   UNK N   1      25.883  20.518   4.432  0.00  0.00     0.017 A 
HETATM   36  C   UNK N   1      26.366  20.798   5.715  0.00  0.00     0.089 A 
HETATM   37  N   UNK N   1      27.379  20.058   6.244  0.00  0.00    -0.352 N 
ATOM     38  HN  UNK N   1      27.721  20.271   7.181  1.00  0.00     0.166 HD
ENDBRANCH  30  32
ENDBRANCH  25  28
ENDBRANCH  13  22
BRANCH  17  39
HETATM   39  N   UNK N   1      34.695  17.085  10.095  0.00  0.00    -0.384 N 
HETATM   40  H   UNK N   1      34.912  17.704  10.827  0.00  0.00     0.157 HD
HETATM   41  H   UNK N   1      33.966  17.300   9.468  0.00  0.00     0.157 HD
ENDBRANCH  17  39
ENDBRANCH   8  11
ENDBRANCH   3   4
TORSDOF 6
ENDMDL
