REMARK  5 active torsions:
REMARK  status: ('A' for Active; 'I' for Inactive)
REMARK    1  A    between atoms: O_2  and  C_3 
REMARK    2  A    between atoms: C_3  and  C_4 
REMARK    3  A    between atoms: C_4  and  C_5 
REMARK    4  A    between atoms: C_4  and  O_15 
REMARK    5  A    between atoms: C_5  and  N_6 
REMARK       I    between atoms: C_11  and  N_12 
ROOT
HETATM    1  N   UNK N   1       3.138  -1.513  -0.228  0.00  0.00    -0.320 N 
HETATM    2  C   UNK N   1       3.503  -0.220  -0.174  0.00  0.00     0.111 A 
HETATM    3  C   UNK N   1       4.880  -0.177  -0.012  0.00  0.00     0.108 A 
HETATM    4  N   UNK N   1       5.354  -1.443   0.028  0.00  0.00    -0.332 N 
ATOM      5  HN  UNK N   1       6.324  -1.737   0.133  1.00  0.00     0.168 HD
HETATM    6  C   UNK N   1       4.270  -2.230  -0.102  0.00  0.00     0.252 A 
HETATM    7  N   UNK N   1       4.331  -3.650  -0.099  0.00  0.00    -0.079 N 
HETATM    8  O   UNK N   1       5.391  -4.200  -0.079  0.00  0.00    -0.529 OA
HETATM    9  O   UNK N   1       3.230  -4.369  -0.059  0.00  0.00    -0.529 OA
ENDROOT
BRANCH   1  10
HETATM   10  C   UNK N   1       1.792  -2.028  -0.439  0.00  0.00     0.165 C 
BRANCH  10  11
HETATM   11  C   UNK N   1       0.898  -1.757   0.758  0.00  0.00     0.160 C 
BRANCH  11  12
HETATM   12  C   UNK N   1      -0.256  -2.749   0.777  0.00  0.00     0.200 C 
BRANCH  12  13
HETATM   13  O   UNK N   1      -1.046  -2.620  -0.368  0.00  0.00    -0.393 OA
HETATM   14  C   UNK N   1      -2.162  -3.414  -0.111  0.00  0.00     0.201 C 
ENDBRANCH  12  13
ENDBRANCH  11  12
BRANCH  11  15
HETATM   15  O   UNK N   1       0.411  -0.450   0.710  0.00  0.00    -0.392 OA
HETATM   16  H   UNK N   1       1.029   0.297   0.678  0.00  0.00     0.210 HD
ENDBRANCH  11  15
ENDBRANCH  10  11
ENDBRANCH   1  10
TORSDOF 5
