MODEL 1
REMARK VINA RESULT:      -5.6      0.000      0.000
REMARK  13 active torsions:
REMARK  status: ('A' for Active; 'I' for Inactive)
REMARK    1  A    between atoms: C_3  and  C_1 
REMARK    2  A    between atoms: C_4  and  C_2 
REMARK    3  A    between atoms: O_15  and  C_2 
REMARK    4  A    between atoms: C_5  and  C_3 
REMARK    5  A    between atoms: C_3  and  O_8 
REMARK    6  A    between atoms: C_6  and  C_4 
REMARK    7  A    between atoms: C_4  and  O_9 
REMARK    8  A    between atoms: C_6  and  C_5 
REMARK    9  A    between atoms: C_5  and  O_10 
REMARK   10  A    between atoms: C_6  and  O_11 
REMARK   11  A    between atoms: P_16  and  O_12 
REMARK   12  A    between atoms: P_16  and  O_13 
REMARK   13  A    between atoms: P_16  and  O_15 
ROOT
HETATM    1  C   UNK N   1      36.008  15.263  10.490  0.00  0.00     0.173 C 
ENDROOT
BRANCH   1   2
HETATM    2  C   UNK N   1      34.915  16.022   9.735  0.00  0.00     0.214 C 
BRANCH   2   3
HETATM    3  O   UNK N   1      35.207  17.391   9.620  0.00  0.00    -0.294 OA
BRANCH   3   4
HETATM    4  P   UNK N   1      34.112  18.043   8.434  0.00  0.00     0.390 P 
HETATM    5  O   UNK N   1      35.232  19.120   8.383  0.00  0.00    -0.632 OA
BRANCH   4   6
HETATM    6  O   UNK N   1      34.525  18.075   6.747  0.00  0.00    -0.307 OA
HETATM    7  H   UNK N   1      34.903  17.306   6.291  0.00  0.00     0.222 HD
ENDBRANCH   4   6
BRANCH   4   8
HETATM    8  O   UNK N   1      34.784  16.532   7.903  0.00  0.00    -0.307 OA
HETATM    9  H   UNK N   1      35.318  15.982   8.495  0.00  0.00     0.222 HD
ENDBRANCH   4   8
ENDBRANCH   3   4
ENDBRANCH   2   3
ENDBRANCH   1   2
BRANCH   1  10
HETATM   10  C   UNK N   1      35.383  14.601  11.736  0.00  0.00     0.180 C 
BRANCH  10  11
HETATM   11  C   UNK N   1      36.047  13.253  12.127  0.00  0.00     0.184 C 
BRANCH  11  12
HETATM   12  C   UNK N   1      35.570  12.711  13.492  0.00  0.00     0.210 C 
BRANCH  12  13
HETATM   13  C   UNK N   1      35.777  13.713  14.593  0.00  0.00     0.265 C 
HETATM   14  O   UNK N   1      36.894  13.967  15.000  0.00  0.00    -0.304 OA
ENDBRANCH  12  13
BRANCH  12  15
HETATM   15  O   UNK N   1      34.221  12.352  13.438  0.00  0.00    -0.386 OA
HETATM   16  H   UNK N   1      33.559  12.560  14.117  0.00  0.00     0.210 HD
ENDBRANCH  12  15
ENDBRANCH  11  12
BRANCH  11  17
HETATM   17  O   UNK N   1      37.438  13.397  12.176  0.00  0.00    -0.390 OA
HETATM   18  H   UNK N   1      37.944  13.482  12.999  0.00  0.00     0.210 HD
ENDBRANCH  11  17
ENDBRANCH  10  11
BRANCH  10  19
HETATM   19  O   UNK N   1      34.018  14.397  11.501  0.00  0.00    -0.390 OA
HETATM   20  H   UNK N   1      33.397  14.029  12.149  0.00  0.00     0.210 HD
ENDBRANCH  10  19
ENDBRANCH   1  10
BRANCH   1  21
HETATM   21  O   UNK N   1      37.004  16.166  10.875  0.00  0.00    -0.391 OA
HETATM   22  H   UNK N   1      37.949  15.957  10.946  0.00  0.00     0.210 HD
ENDBRANCH   1  21
TORSDOF 13
ENDMDL
MODEL 2
REMARK VINA RESULT:      -5.4      2.447      6.174
REMARK  13 active torsions:
REMARK  status: ('A' for Active; 'I' for Inactive)
REMARK    1  A    between atoms: C_3  and  C_1 
REMARK    2  A    between atoms: C_4  and  C_2 
REMARK    3  A    between atoms: O_15  and  C_2 
REMARK    4  A    between atoms: C_5  and  C_3 
REMARK    5  A    between atoms: C_3  and  O_8 
REMARK    6  A    between atoms: C_6  and  C_4 
REMARK    7  A    between atoms: C_4  and  O_9 
REMARK    8  A    between atoms: C_6  and  C_5 
REMARK    9  A    between atoms: C_5  and  O_10 
REMARK   10  A    between atoms: C_6  and  O_11 
REMARK   11  A    between atoms: P_16  and  O_12 
REMARK   12  A    between atoms: P_16  and  O_13 
REMARK   13  A    between atoms: P_16  and  O_15 
ROOT
HETATM    1  C   UNK N   1      35.809  15.671  11.503  0.00  0.00     0.173 C 
ENDROOT
BRANCH   1   2
HETATM    2  C   UNK N   1      35.961  14.295  12.155  0.00  0.00     0.214 C 
BRANCH   2   3
HETATM    3  O   UNK N   1      35.182  14.172  13.316  0.00  0.00    -0.294 OA
BRANCH   3   4
HETATM    4  P   UNK N   1      35.298  12.512  13.830  0.00  0.00     0.390 P 
HETATM    5  O   UNK N   1      34.477  13.100  15.012  0.00  0.00    -0.632 OA
BRANCH   4   6
HETATM    6  O   UNK N   1      33.901  11.481  13.866  0.00  0.00    -0.307 OA
HETATM    7  H   UNK N   1      32.997  11.830  13.823  0.00  0.00     0.222 HD
ENDBRANCH   4   6
BRANCH   4   8
HETATM    8  O   UNK N   1      34.348  12.656  12.383  0.00  0.00    -0.307 OA
HETATM    9  H   UNK N   1      33.416  12.922  12.415  0.00  0.00     0.222 HD
ENDBRANCH   4   8
ENDBRANCH   3   4
ENDBRANCH   2   3
ENDBRANCH   1   2
BRANCH   1  10
HETATM   10  C   UNK N   1      34.686  15.598  10.446  0.00  0.00     0.180 C 
BRANCH  10  11
HETATM   11  C   UNK N   1      34.269  16.983   9.881  0.00  0.00     0.184 C 
BRANCH  11  12
HETATM   12  C   UNK N   1      33.411  16.885   8.601  0.00  0.00     0.210 C 
BRANCH  12  13
HETATM   13  C   UNK N   1      33.676  18.030   7.663  0.00  0.00     0.265 C 
HETATM   14  O   UNK N   1      34.545  17.951   6.816  0.00  0.00    -0.304 OA
ENDBRANCH  12  13
BRANCH  12  15
HETATM   15  O   UNK N   1      33.644  15.678   7.939  0.00  0.00    -0.386 OA
HETATM   16  H   UNK N   1      34.490  15.203   7.922  0.00  0.00     0.210 HD
ENDBRANCH  12  15
ENDBRANCH  11  12
BRANCH  11  17
HETATM   17  O   UNK N   1      35.405  17.746   9.589  0.00  0.00    -0.390 OA
HETATM   18  H   UNK N   1      35.672  17.995   8.691  0.00  0.00     0.210 HD
ENDBRANCH  11  17
ENDBRANCH  10  11
BRANCH  10  19
HETATM   19  O   UNK N   1      33.571  14.971  11.015  0.00  0.00    -0.390 OA
HETATM   20  H   UNK N   1      33.528  14.032  11.251  0.00  0.00     0.210 HD
ENDBRANCH  10  19
ENDBRANCH   1  10
BRANCH   1  21
HETATM   21  O   UNK N   1      37.018  16.021  10.895  0.00  0.00    -0.391 OA
HETATM   22  H   UNK N   1      37.804  16.346  11.364  0.00  0.00     0.210 HD
ENDBRANCH   1  21
TORSDOF 13
ENDMDL
MODEL 3
REMARK VINA RESULT:      -5.3      2.516      6.392
REMARK  13 active torsions:
REMARK  status: ('A' for Active; 'I' for Inactive)
REMARK    1  A    between atoms: C_3  and  C_1 
REMARK    2  A    between atoms: C_4  and  C_2 
REMARK    3  A    between atoms: O_15  and  C_2 
REMARK    4  A    between atoms: C_5  and  C_3 
REMARK    5  A    between atoms: C_3  and  O_8 
REMARK    6  A    between atoms: C_6  and  C_4 
REMARK    7  A    between atoms: C_4  and  O_9 
REMARK    8  A    between atoms: C_6  and  C_5 
REMARK    9  A    between atoms: C_5  and  O_10 
REMARK   10  A    between atoms: C_6  and  O_11 
REMARK   11  A    between atoms: P_16  and  O_12 
REMARK   12  A    between atoms: P_16  and  O_13 
REMARK   13  A    between atoms: P_16  and  O_15 
ROOT
HETATM    1  C   UNK N   1      34.842  14.866  11.155  0.00  0.00     0.173 C 
ENDROOT
BRANCH   1   2
HETATM    2  C   UNK N   1      35.489  14.624  12.520  0.00  0.00     0.214 C 
BRANCH   2   3
HETATM    3  O   UNK N   1      34.892  13.554  13.205  0.00  0.00    -0.294 OA
BRANCH   3   4
HETATM    4  P   UNK N   1      36.033  13.024  14.409  0.00  0.00     0.390 P 
HETATM    5  O   UNK N   1      36.547  14.472  14.174  0.00  0.00    -0.632 OA
BRANCH   4   6
HETATM    6  O   UNK N   1      36.023  13.690  16.013  0.00  0.00    -0.307 OA
HETATM    7  H   UNK N   1      35.204  13.812  16.519  0.00  0.00     0.222 HD
ENDBRANCH   4   6
BRANCH   4   8
HETATM    8  O   UNK N   1      34.426  13.116  15.063  0.00  0.00    -0.307 OA
HETATM    9  H   UNK N   1      33.913  12.315  15.254  0.00  0.00     0.222 HD
ENDBRANCH   4   8
ENDBRANCH   3   4
ENDBRANCH   2   3
ENDBRANCH   1   2
BRANCH   1  10
HETATM   10  C   UNK N   1      35.335  16.221  10.604  0.00  0.00     0.180 C 
BRANCH  10  11
HETATM   11  C   UNK N   1      34.975  16.458   9.112  0.00  0.00     0.184 C 
BRANCH  11  12
HETATM   12  C   UNK N   1      33.788  17.426   8.918  0.00  0.00     0.210 C 
BRANCH  12  13
HETATM   13  C   UNK N   1      33.767  18.013   7.534  0.00  0.00     0.265 C 
HETATM   14  O   UNK N   1      34.591  17.680   6.705  0.00  0.00    -0.304 OA
ENDBRANCH  12  13
BRANCH  12  15
HETATM   15  O   UNK N   1      32.575  16.778   9.166  0.00  0.00    -0.386 OA
HETATM   16  H   UNK N   1      32.342  16.324   9.992  0.00  0.00     0.210 HD
ENDBRANCH  12  15
ENDBRANCH  11  12
BRANCH  11  17
HETATM   17  O   UNK N   1      34.655  15.243   8.495  0.00  0.00    -0.390 OA
HETATM   18  H   UNK N   1      35.046  14.942   7.660  0.00  0.00     0.210 HD
ENDBRANCH  11  17
ENDBRANCH  10  11
BRANCH  10  19
HETATM   19  O   UNK N   1      36.724  16.295  10.766  0.00  0.00    -0.390 OA
HETATM   20  H   UNK N   1      37.177  16.350  11.622  0.00  0.00     0.210 HD
ENDBRANCH  10  19
ENDBRANCH   1  10
BRANCH   1  21
HETATM   21  O   UNK N   1      33.453  14.888  11.309  0.00  0.00    -0.391 OA
HETATM   22  H   UNK N   1      32.817  15.095  10.606  0.00  0.00     0.210 HD
ENDBRANCH   1  21
TORSDOF 13
ENDMDL
MODEL 4
REMARK VINA RESULT:      -5.2      2.385      5.897
REMARK  13 active torsions:
REMARK  status: ('A' for Active; 'I' for Inactive)
REMARK    1  A    between atoms: C_3  and  C_1 
REMARK    2  A    between atoms: C_4  and  C_2 
REMARK    3  A    between atoms: O_15  and  C_2 
REMARK    4  A    between atoms: C_5  and  C_3 
REMARK    5  A    between atoms: C_3  and  O_8 
REMARK    6  A    between atoms: C_6  and  C_4 
REMARK    7  A    between atoms: C_4  and  O_9 
REMARK    8  A    between atoms: C_6  and  C_5 
REMARK    9  A    between atoms: C_5  and  O_10 
REMARK   10  A    between atoms: C_6  and  O_11 
REMARK   11  A    between atoms: P_16  and  O_12 
REMARK   12  A    between atoms: P_16  and  O_13 
REMARK   13  A    between atoms: P_16  and  O_15 
ROOT
HETATM    1  C   UNK N   1      34.377  13.897   9.505  0.00  0.00     0.173 C 
ENDROOT
BRANCH   1   2
HETATM    2  C   UNK N   1      34.928  13.587  10.898  0.00  0.00     0.214 C 
BRANCH   2   3
HETATM    3  O   UNK N   1      35.860  14.547  11.323  0.00  0.00    -0.294 OA
BRANCH   3   4
HETATM    4  P   UNK N   1      36.054  14.340  13.041  0.00  0.00     0.390 P 
HETATM    5  O   UNK N   1      34.752  13.520  12.819  0.00  0.00    -0.632 OA
BRANCH   4   6
HETATM    6  O   UNK N   1      36.463  12.795  13.721  0.00  0.00    -0.307 OA
HETATM    7  H   UNK N   1      37.258  12.660  14.260  0.00  0.00     0.222 HD
ENDBRANCH   4   6
BRANCH   4   8
HETATM    8  O   UNK N   1      37.340  13.566  12.167  0.00  0.00    -0.307 OA
HETATM    9  H   UNK N   1      37.624  12.664  12.379  0.00  0.00     0.222 HD
ENDBRANCH   4   8
ENDBRANCH   3   4
ENDBRANCH   2   3
ENDBRANCH   1   2
BRANCH   1  10
HETATM   10  C   UNK N   1      33.165  14.842   9.649  0.00  0.00     0.180 C 
BRANCH  10  11
HETATM   11  C   UNK N   1      33.302  16.161   8.841  0.00  0.00     0.184 C 
BRANCH  11  12
HETATM   12  C   UNK N   1      34.626  16.908   9.112  0.00  0.00     0.210 C 
BRANCH  12  13
HETATM   13  C   UNK N   1      34.709  18.195   8.339  0.00  0.00     0.265 C 
HETATM   14  O   UNK N   1      34.455  18.224   7.151  0.00  0.00    -0.304 OA
ENDBRANCH  12  13
BRANCH  12  15
HETATM   15  O   UNK N   1      34.774  17.175  10.476  0.00  0.00    -0.386 OA
HETATM   16  H   UNK N   1      34.208  17.767  10.995  0.00  0.00     0.210 HD
ENDBRANCH  12  15
ENDBRANCH  11  12
BRANCH  11  17
HETATM   17  O   UNK N   1      32.243  17.025   9.145  0.00  0.00    -0.390 OA
HETATM   18  H   UNK N   1      31.312  16.823   8.964  0.00  0.00     0.210 HD
ENDBRANCH  11  17
ENDBRANCH  10  11
BRANCH  10  19
HETATM   19  O   UNK N   1      32.985  15.143  11.005  0.00  0.00    -0.390 OA
HETATM   20  H   UNK N   1      32.296  14.758  11.567  0.00  0.00     0.210 HD
ENDBRANCH  10  19
ENDBRANCH   1  10
BRANCH   1  21
HETATM   21  O   UNK N   1      33.984  12.702   8.896  0.00  0.00    -0.391 OA
HETATM   22  H   UNK N   1      33.926  12.556   7.939  0.00  0.00     0.210 HD
ENDBRANCH   1  21
TORSDOF 13
ENDMDL
MODEL 5
REMARK VINA RESULT:      -5.0      2.804      6.464
REMARK  13 active torsions:
REMARK  status: ('A' for Active; 'I' for Inactive)
REMARK    1  A    between atoms: C_3  and  C_1 
REMARK    2  A    between atoms: C_4  and  C_2 
REMARK    3  A    between atoms: O_15  and  C_2 
REMARK    4  A    between atoms: C_5  and  C_3 
REMARK    5  A    between atoms: C_3  and  O_8 
REMARK    6  A    between atoms: C_6  and  C_4 
REMARK    7  A    between atoms: C_4  and  O_9 
REMARK    8  A    between atoms: C_6  and  C_5 
REMARK    9  A    between atoms: C_5  and  O_10 
REMARK   10  A    between atoms: C_6  and  O_11 
REMARK   11  A    between atoms: P_16  and  O_12 
REMARK   12  A    between atoms: P_16  and  O_13 
REMARK   13  A    between atoms: P_16  and  O_15 
ROOT
HETATM    1  C   UNK N   1      35.229  12.740  12.123  0.00  0.00     0.173 C 
ENDROOT
BRANCH   1   2
HETATM    2  C   UNK N   1      34.909  12.297  13.553  0.00  0.00     0.214 C 
BRANCH   2   3
HETATM    3  O   UNK N   1      34.917  13.374  14.452  0.00  0.00    -0.294 OA
BRANCH   3   4
HETATM    4  P   UNK N   1      35.606  12.786  15.939  0.00  0.00     0.390 P 
HETATM    5  O   UNK N   1      36.512  14.026  15.698  0.00  0.00    -0.632 OA
BRANCH   4   6
HETATM    6  O   UNK N   1      35.434  13.670  17.424  0.00  0.00    -0.307 OA
HETATM    7  H   UNK N   1      36.121  14.270  17.753  0.00  0.00     0.222 HD
ENDBRANCH   4   6
BRANCH   4   8
HETATM    8  O   UNK N   1      33.977  13.339  16.179  0.00  0.00    -0.307 OA
HETATM    9  H   UNK N   1      33.468  13.737  15.456  0.00  0.00     0.222 HD
ENDBRANCH   4   8
ENDBRANCH   3   4
ENDBRANCH   2   3
ENDBRANCH   1   2
BRANCH   1  10
HETATM   10  C   UNK N   1      35.204  14.281  12.063  0.00  0.00     0.180 C 
BRANCH  10  11
HETATM   11  C   UNK N   1      34.526  14.847  10.786  0.00  0.00     0.184 C 
BRANCH  11  12
HETATM   12  C   UNK N   1      35.155  16.169  10.294  0.00  0.00     0.210 C 
BRANCH  12  13
HETATM   13  C   UNK N   1      34.543  16.633   9.003  0.00  0.00     0.265 C 
HETATM   14  O   UNK N   1      33.525  17.296   9.000  0.00  0.00    -0.304 OA
ENDBRANCH  12  13
BRANCH  12  15
HETATM   15  O   UNK N   1      35.020  17.170  11.259  0.00  0.00    -0.386 OA
HETATM   16  H   UNK N   1      34.421  17.135  12.021  0.00  0.00     0.210 HD
ENDBRANCH  12  15
ENDBRANCH  11  12
BRANCH  11  17
HETATM   17  O   UNK N   1      33.165  15.072  11.022  0.00  0.00    -0.390 OA
HETATM   18  H   UNK N   1      32.524  14.368  11.204  0.00  0.00     0.210 HD
ENDBRANCH  11  17
ENDBRANCH  10  11
BRANCH  10  19
HETATM   19  O   UNK N   1      36.519  14.757  12.142  0.00  0.00    -0.390 OA
HETATM   20  H   UNK N   1      36.827  15.591  11.753  0.00  0.00     0.210 HD
ENDBRANCH  10  19
ENDBRANCH   1  10
BRANCH   1  21
HETATM   21  O   UNK N   1      34.266  12.210  11.258  0.00  0.00    -0.391 OA
HETATM   22  H   UNK N   1      33.309  12.348  11.338  0.00  0.00     0.210 HD
ENDBRANCH   1  21
TORSDOF 13
ENDMDL
MODEL 6
REMARK VINA RESULT:      -5.0     15.675     17.284
REMARK  13 active torsions:
REMARK  status: ('A' for Active; 'I' for Inactive)
REMARK    1  A    between atoms: C_3  and  C_1 
REMARK    2  A    between atoms: C_4  and  C_2 
REMARK    3  A    between atoms: O_15  and  C_2 
REMARK    4  A    between atoms: C_5  and  C_3 
REMARK    5  A    between atoms: C_3  and  O_8 
REMARK    6  A    between atoms: C_6  and  C_4 
REMARK    7  A    between atoms: C_4  and  O_9 
REMARK    8  A    between atoms: C_6  and  C_5 
REMARK    9  A    between atoms: C_5  and  O_10 
REMARK   10  A    between atoms: C_6  and  O_11 
REMARK   11  A    between atoms: P_16  and  O_12 
REMARK   12  A    between atoms: P_16  and  O_13 
REMARK   13  A    between atoms: P_16  and  O_15 
ROOT
HETATM    1  C   UNK N   1      30.214  23.140  -2.679  0.00  0.00     0.173 C 
ENDROOT
BRANCH   1   2
HETATM    2  C   UNK N   1      28.710  23.297  -2.914  0.00  0.00     0.214 C 
BRANCH   2   3
HETATM    3  O   UNK N   1      28.432  23.975  -4.111  0.00  0.00    -0.294 OA
BRANCH   3   4
HETATM    4  P   UNK N   1      26.795  24.557  -3.993  0.00  0.00     0.390 P 
HETATM    5  O   UNK N   1      26.947  23.905  -2.590  0.00  0.00    -0.632 OA
BRANCH   4   6
HETATM    6  O   UNK N   1      26.377  25.862  -2.927  0.00  0.00    -0.307 OA
HETATM    7  H   UNK N   1      27.008  26.237  -2.294  0.00  0.00     0.222 HD
ENDBRANCH   4   6
BRANCH   4   8
HETATM    8  O   UNK N   1      27.922  25.874  -4.108  0.00  0.00    -0.307 OA
HETATM    9  H   UNK N   1      27.627  26.796  -4.055  0.00  0.00     0.222 HD
ENDBRANCH   4   8
ENDBRANCH   3   4
ENDBRANCH   2   3
ENDBRANCH   1   2
BRANCH   1  10
HETATM   10  C   UNK N   1      30.681  21.813  -3.314  0.00  0.00     0.180 C 
BRANCH  10  11
HETATM   11  C   UNK N   1      32.220  21.608  -3.273  0.00  0.00     0.184 C 
BRANCH  11  12
HETATM   12  C   UNK N   1      32.718  20.533  -4.264  0.00  0.00     0.210 C 
BRANCH  12  13
HETATM   13  C   UNK N   1      34.145  20.144  -3.995  0.00  0.00     0.265 C 
HETATM   14  O   UNK N   1      34.976  20.984  -3.711  0.00  0.00    -0.304 OA
ENDBRANCH  12  13
BRANCH  12  15
HETATM   15  O   UNK N   1      31.908  19.397  -4.211  0.00  0.00    -0.386 OA
HETATM   16  H   UNK N   1      31.553  19.000  -3.399  0.00  0.00     0.210 HD
ENDBRANCH  12  15
ENDBRANCH  11  12
BRANCH  11  17
HETATM   17  O   UNK N   1      32.623  21.236  -1.986  0.00  0.00    -0.390 OA
HETATM   18  H   UNK N   1      32.581  20.328  -1.647  0.00  0.00     0.210 HD
ENDBRANCH  11  17
ENDBRANCH  10  11
BRANCH  10  19
HETATM   19  O   UNK N   1      30.240  21.768  -4.642  0.00  0.00    -0.390 OA
HETATM   20  H   UNK N   1      30.764  21.432  -5.385  0.00  0.00     0.210 HD
ENDBRANCH  10  19
ENDBRANCH   1  10
BRANCH   1  21
HETATM   21  O   UNK N   1      30.459  23.125  -1.302  0.00  0.00    -0.391 OA
HETATM   22  H   UNK N   1      31.073  23.717  -0.838  0.00  0.00     0.210 HD
ENDBRANCH   1  21
TORSDOF 13
ENDMDL
MODEL 7
REMARK VINA RESULT:      -4.9      1.790      3.252
REMARK  13 active torsions:
REMARK  status: ('A' for Active; 'I' for Inactive)
REMARK    1  A    between atoms: C_3  and  C_1 
REMARK    2  A    between atoms: C_4  and  C_2 
REMARK    3  A    between atoms: O_15  and  C_2 
REMARK    4  A    between atoms: C_5  and  C_3 
REMARK    5  A    between atoms: C_3  and  O_8 
REMARK    6  A    between atoms: C_6  and  C_4 
REMARK    7  A    between atoms: C_4  and  O_9 
REMARK    8  A    between atoms: C_6  and  C_5 
REMARK    9  A    between atoms: C_5  and  O_10 
REMARK   10  A    between atoms: C_6  and  O_11 
REMARK   11  A    between atoms: P_16  and  O_12 
REMARK   12  A    between atoms: P_16  and  O_13 
REMARK   13  A    between atoms: P_16  and  O_15 
ROOT
HETATM    1  C   UNK N   1      32.827  14.974   9.566  0.00  0.00     0.173 C 
ENDROOT
BRANCH   1   2
HETATM    2  C   UNK N   1      32.383  15.671   8.278  0.00  0.00     0.214 C 
BRANCH   2   3
HETATM    3  O   UNK N   1      33.231  15.377   7.200  0.00  0.00    -0.294 OA
BRANCH   3   4
HETATM    4  P   UNK N   1      33.327  16.816   6.224  0.00  0.00     0.390 P 
HETATM    5  O   UNK N   1      32.557  17.378   7.452  0.00  0.00    -0.632 OA
BRANCH   4   6
HETATM    6  O   UNK N   1      34.314  18.163   6.700  0.00  0.00    -0.307 OA
HETATM    7  H   UNK N   1      33.935  18.987   7.046  0.00  0.00     0.222 HD
ENDBRANCH   4   6
BRANCH   4   8
HETATM    8  O   UNK N   1      34.902  16.311   6.753  0.00  0.00    -0.307 OA
HETATM    9  H   UNK N   1      35.426  16.851   7.365  0.00  0.00     0.222 HD
ENDBRANCH   4   8
ENDBRANCH   3   4
ENDBRANCH   2   3
ENDBRANCH   1   2
BRANCH   1  10
HETATM   10  C   UNK N   1      34.244  15.462   9.932  0.00  0.00     0.180 C 
BRANCH  10  11
HETATM   11  C   UNK N   1      34.637  15.191  11.410  0.00  0.00     0.184 C 
BRANCH  11  12
HETATM   12  C   UNK N   1      36.164  15.166  11.640  0.00  0.00     0.210 C 
BRANCH  12  13
HETATM   13  C   UNK N   1      36.749  13.812  11.353  0.00  0.00     0.265 C 
HETATM   14  O   UNK N   1      36.912  13.003  12.245  0.00  0.00    -0.304 OA
ENDBRANCH  12  13
BRANCH  12  15
HETATM   15  O   UNK N   1      36.800  16.125  10.849  0.00  0.00    -0.386 OA
HETATM   16  H   UNK N   1      36.965  16.045   9.896  0.00  0.00     0.210 HD
ENDBRANCH  12  15
ENDBRANCH  11  12
BRANCH  11  17
HETATM   17  O   UNK N   1      34.111  13.965  11.831  0.00  0.00    -0.390 OA
HETATM   18  H   UNK N   1      34.087  13.168  11.279  0.00  0.00     0.210 HD
ENDBRANCH  11  17
ENDBRANCH  10  11
BRANCH  10  19
HETATM   19  O   UNK N   1      34.331  16.835   9.671  0.00  0.00    -0.390 OA
HETATM   20  H   UNK N   1      34.750  17.482  10.259  0.00  0.00     0.210 HD
ENDBRANCH  10  19
ENDBRANCH   1  10
BRANCH   1  21
HETATM   21  O   UNK N   1      32.834  13.592   9.355  0.00  0.00    -0.391 OA
HETATM   22  H   UNK N   1      33.333  13.138   8.658  0.00  0.00     0.210 HD
ENDBRANCH   1  21
TORSDOF 13
ENDMDL
MODEL 8
REMARK VINA RESULT:      -4.9      1.389      2.522
REMARK  13 active torsions:
REMARK  status: ('A' for Active; 'I' for Inactive)
REMARK    1  A    between atoms: C_3  and  C_1 
REMARK    2  A    between atoms: C_4  and  C_2 
REMARK    3  A    between atoms: O_15  and  C_2 
REMARK    4  A    between atoms: C_5  and  C_3 
REMARK    5  A    between atoms: C_3  and  O_8 
REMARK    6  A    between atoms: C_6  and  C_4 
REMARK    7  A    between atoms: C_4  and  O_9 
REMARK    8  A    between atoms: C_6  and  C_5 
REMARK    9  A    between atoms: C_5  and  O_10 
REMARK   10  A    between atoms: C_6  and  O_11 
REMARK   11  A    between atoms: P_16  and  O_12 
REMARK   12  A    between atoms: P_16  and  O_13 
REMARK   13  A    between atoms: P_16  and  O_15 
ROOT
HETATM    1  C   UNK N   1      34.742  15.858  11.047  0.00  0.00     0.173 C 
ENDROOT
BRANCH   1   2
HETATM    2  C   UNK N   1      34.698  16.713   9.778  0.00  0.00     0.214 C 
BRANCH   2   3
HETATM    3  O   UNK N   1      33.428  16.706   9.181  0.00  0.00    -0.294 OA
BRANCH   3   4
HETATM    4  P   UNK N   1      33.437  17.947   7.960  0.00  0.00     0.390 P 
HETATM    5  O   UNK N   1      34.758  18.294   8.701  0.00  0.00    -0.632 OA
BRANCH   4   6
HETATM    6  O   UNK N   1      34.602  17.937   6.673  0.00  0.00    -0.307 OA
HETATM    7  H   UNK N   1      35.521  17.658   6.807  0.00  0.00     0.222 HD
ENDBRANCH   4   6
BRANCH   4   8
HETATM    8  O   UNK N   1      33.607  16.370   7.252  0.00  0.00    -0.307 OA
HETATM    9  H   UNK N   1      34.480  16.000   7.048  0.00  0.00     0.222 HD
ENDBRANCH   4   8
ENDBRANCH   3   4
ENDBRANCH   2   3
ENDBRANCH   1   2
BRANCH   1  10
HETATM   10  C   UNK N   1      36.026  15.003  11.027  0.00  0.00     0.180 C 
BRANCH  10  11
HETATM   11  C   UNK N   1      36.288  14.236  12.352  0.00  0.00     0.184 C 
BRANCH  11  12
HETATM   12  C   UNK N   1      37.013  12.888  12.143  0.00  0.00     0.210 C 
BRANCH  12  13
HETATM   13  C   UNK N   1      36.179  11.924  11.347  0.00  0.00     0.265 C 
HETATM   14  O   UNK N   1      35.163  11.447  11.815  0.00  0.00    -0.304 OA
ENDBRANCH  12  13
BRANCH  12  15
HETATM   15  O   UNK N   1      38.240  13.080  11.503  0.00  0.00    -0.386 OA
HETATM   16  H   UNK N   1      39.092  12.735  11.814  0.00  0.00     0.210 HD
ENDBRANCH  12  15
ENDBRANCH  11  12
BRANCH  11  17
HETATM   17  O   UNK N   1      35.079  13.985  13.010  0.00  0.00    -0.390 OA
HETATM   18  H   UNK N   1      34.226  13.894  12.559  0.00  0.00     0.210 HD
ENDBRANCH  11  17
ENDBRANCH  10  11
BRANCH  10  19
HETATM   19  O   UNK N   1      37.118  15.835  10.746  0.00  0.00    -0.390 OA
HETATM   20  H   UNK N   1      37.412  16.566  11.311  0.00  0.00     0.210 HD
ENDBRANCH  10  19
ENDBRANCH   1  10
BRANCH   1  21
HETATM   21  O   UNK N   1      33.615  15.031  11.075  0.00  0.00    -0.391 OA
HETATM   22  H   UNK N   1      33.196  14.632  10.296  0.00  0.00     0.210 HD
ENDBRANCH   1  21
TORSDOF 13
ENDMDL
MODEL 9
REMARK VINA RESULT:      -4.9      1.768      2.914
REMARK  13 active torsions:
REMARK  status: ('A' for Active; 'I' for Inactive)
REMARK    1  A    between atoms: C_3  and  C_1 
REMARK    2  A    between atoms: C_4  and  C_2 
REMARK    3  A    between atoms: O_15  and  C_2 
REMARK    4  A    between atoms: C_5  and  C_3 
REMARK    5  A    between atoms: C_3  and  O_8 
REMARK    6  A    between atoms: C_6  and  C_4 
REMARK    7  A    between atoms: C_4  and  O_9 
REMARK    8  A    between atoms: C_6  and  C_5 
REMARK    9  A    between atoms: C_5  and  O_10 
REMARK   10  A    between atoms: C_6  and  O_11 
REMARK   11  A    between atoms: P_16  and  O_12 
REMARK   12  A    between atoms: P_16  and  O_13 
REMARK   13  A    between atoms: P_16  and  O_15 
ROOT
HETATM    1  C   UNK N   1      35.346  13.671  12.155  0.00  0.00     0.173 C 
ENDROOT
BRANCH   1   2
HETATM    2  C   UNK N   1      35.256  13.505  10.636  0.00  0.00     0.214 C 
BRANCH   2   3
HETATM    3  O   UNK N   1      35.821  14.592   9.952  0.00  0.00    -0.294 OA
BRANCH   3   4
HETATM    4  P   UNK N   1      35.320  16.033  10.791  0.00  0.00     0.390 P 
HETATM    5  O   UNK N   1      36.859  16.252  10.783  0.00  0.00    -0.632 OA
BRANCH   4   6
HETATM    6  O   UNK N   1      35.472  17.601  10.060  0.00  0.00    -0.307 OA
HETATM    7  H   UNK N   1      36.218  18.191  10.248  0.00  0.00     0.222 HD
ENDBRANCH   4   6
BRANCH   4   8
HETATM    8  O   UNK N   1      34.760  16.038   9.147  0.00  0.00    -0.307 OA
HETATM    9  H   UNK N   1      34.827  16.832   8.594  0.00  0.00     0.222 HD
ENDBRANCH   4   8
ENDBRANCH   3   4
ENDBRANCH   2   3
ENDBRANCH   1   2
BRANCH   1  10
HETATM   10  C   UNK N   1      36.636  12.984  12.654  0.00  0.00     0.180 C 
BRANCH  10  11
HETATM   11  C   UNK N   1      36.974  13.293  14.138  0.00  0.00     0.184 C 
BRANCH  11  12
HETATM   12  C   UNK N   1      36.426  12.235  15.121  0.00  0.00     0.210 C 
BRANCH  12  13
HETATM   13  C   UNK N   1      35.397  12.816  16.050  0.00  0.00     0.265 C 
HETATM   14  O   UNK N   1      34.277  13.075  15.655  0.00  0.00    -0.304 OA
ENDBRANCH  12  13
BRANCH  12  15
HETATM   15  O   UNK N   1      35.870  11.156  14.428  0.00  0.00    -0.386 OA
HETATM   16  H   UNK N   1      35.699  10.278  14.804  0.00  0.00     0.210 HD
ENDBRANCH  12  15
ENDBRANCH  11  12
BRANCH  11  17
HETATM   17  O   UNK N   1      36.453  14.539  14.502  0.00  0.00    -0.390 OA
HETATM   18  H   UNK N   1      35.834  15.048  13.956  0.00  0.00     0.210 HD
ENDBRANCH  11  17
ENDBRANCH  10  11
BRANCH  10  19
HETATM   19  O   UNK N   1      37.703  13.383  11.840  0.00  0.00    -0.390 OA
HETATM   20  H   UNK N   1      38.093  12.840  11.138  0.00  0.00     0.210 HD
ENDBRANCH  10  19
ENDBRANCH   1  10
BRANCH   1  21
HETATM   21  O   UNK N   1      34.227  13.075  12.744  0.00  0.00    -0.391 OA
HETATM   22  H   UNK N   1      33.909  12.178  12.556  0.00  0.00     0.210 HD
ENDBRANCH   1  21
TORSDOF 13
ENDMDL
