MODEL 1
REMARK VINA RESULT:      -4.9      0.000      0.000
REMARK  6 active torsions:
REMARK  status: ('A' for Active; 'I' for Inactive)
REMARK    1  A    between atoms: N_2  and  C_3 
REMARK       I    between atoms: N_2  and  C_7 
REMARK    2  A    between atoms: C_3  and  C_4 
REMARK       I    between atoms: C_4  and  N_6 
REMARK       I    between atoms: C_7  and  N_9 
REMARK    3  A    between atoms: N_9  and  C_10 
REMARK    4  A    between atoms: N_9  and  N_13 
REMARK    5  A    between atoms: C_10  and  C_11 
REMARK    6  A    between atoms: N_13  and  O_15 
ROOT
HETATM    1  C   UNK N   1      21.476  18.920   4.125  0.00  0.00     0.155 C 
HETATM    2  N   UNK N   1      22.169  19.877   3.316  0.00  0.00    -0.328 N 
HETATM    3  C   UNK N   1      23.539  20.103   3.334  0.00  0.00     0.340 C 
HETATM    4  O   UNK N   1      23.952  20.969   2.565  0.00  0.00    -0.245 OA
HETATM    5  N   UNK N   1      24.507  19.463   4.124  0.00  0.00    -0.222 N 
ENDROOT
BRANCH   2   6
HETATM    6  C   UNK N   1      21.393  20.702   2.380  0.00  0.00     0.229 C 
BRANCH   6   7
HETATM    7  C   UNK N   1      20.934  20.155   1.044  0.00  0.00     0.233 C 
HETATM    8  O   UNK N   1      21.148  20.821   0.047  0.00  0.00    -0.272 OA
HETATM    9  N   UNK N   1      20.303  18.971   0.916  0.00  0.00    -0.369 N 
HETATM   10  H   UNK N   1      20.023  18.657   0.026  0.00  0.00     0.159 HD
HETATM   11  H   UNK N   1      20.123  18.421   1.713  0.00  0.00     0.159 HD
ENDBRANCH   6   7
ENDBRANCH   2   6
BRANCH   5  12
HETATM   12  C   UNK N   1      25.871  19.930   3.907  0.00  0.00     0.171 C 
BRANCH  12  13
HETATM   13  C   UNK N   1      26.790  19.800   5.107  0.00  0.00     0.136 C 
HETATM   14 Cl   UNK N   1      27.109  21.438   5.709  0.00  0.00    -0.129 Cl
ENDBRANCH  12  13
ENDBRANCH   5  12
BRANCH   5  15
HETATM   15  N   UNK N   1      24.352  18.457   5.075  0.00  0.00    -0.204 N 
ATOM     16  HN  UNK N   1      24.077  18.740   6.015  1.00  0.00     0.216 HD
BRANCH  15  17
HETATM   17  O   UNK N   1      24.512  17.297   4.882  0.00  0.00    -0.274 OA
ATOM     18  HO  UNK N   1      24.064  16.782   4.221  1.00  0.00     0.246 HD
ENDBRANCH  15  17
ENDBRANCH   5  15
TORSDOF 6
ENDMDL
MODEL 2
REMARK VINA RESULT:      -4.9     11.828     14.400
REMARK  6 active torsions:
REMARK  status: ('A' for Active; 'I' for Inactive)
REMARK    1  A    between atoms: N_2  and  C_3 
REMARK       I    between atoms: N_2  and  C_7 
REMARK    2  A    between atoms: C_3  and  C_4 
REMARK       I    between atoms: C_4  and  N_6 
REMARK       I    between atoms: C_7  and  N_9 
REMARK    3  A    between atoms: N_9  and  C_10 
REMARK    4  A    between atoms: N_9  and  N_13 
REMARK    5  A    between atoms: C_10  and  C_11 
REMARK    6  A    between atoms: N_13  and  O_15 
ROOT
HETATM    1  C   UNK N   1      35.405  16.756  10.963  0.00  0.00     0.155 C 
HETATM    2  N   UNK N   1      35.316  15.699  10.000  0.00  0.00    -0.328 N 
HETATM    3  C   UNK N   1      34.926  15.848   8.677  0.00  0.00     0.340 C 
HETATM    4  O   UNK N   1      34.911  14.821   8.000  0.00  0.00    -0.245 OA
HETATM    5  N   UNK N   1      34.546  17.029   8.017  0.00  0.00    -0.222 N 
ENDROOT
BRANCH   2   6
HETATM    6  C   UNK N   1      35.661  14.333  10.420  0.00  0.00     0.229 C 
BRANCH   6   7
HETATM    7  C   UNK N   1      35.765  13.964  11.885  0.00  0.00     0.233 C 
HETATM    8  O   UNK N   1      34.734  13.768  12.503  0.00  0.00    -0.272 OA
HETATM    9  N   UNK N   1      36.944  13.845  12.528  0.00  0.00    -0.369 N 
HETATM   10  H   UNK N   1      36.962  13.603  13.482  0.00  0.00     0.159 HD
HETATM   11  H   UNK N   1      37.786  14.001  12.043  0.00  0.00     0.159 HD
ENDBRANCH   6   7
ENDBRANCH   2   6
BRANCH   5  12
HETATM   12  C   UNK N   1      34.189  16.852   6.615  0.00  0.00     0.171 C 
BRANCH  12  13
HETATM   13  C   UNK N   1      32.818  17.376   6.234  0.00  0.00     0.136 C 
HETATM   14 Cl   UNK N   1      32.848  17.720   4.493  0.00  0.00    -0.129 Cl
ENDBRANCH  12  13
ENDBRANCH   5  12
BRANCH   5  15
HETATM   15  N   UNK N   1      34.464  18.330   8.508  0.00  0.00    -0.204 N 
ATOM     16  HN  UNK N   1      33.591  18.605   8.958  1.00  0.00     0.216 HD
BRANCH  15  17
HETATM   17  O   UNK N   1      35.325  19.144   8.446  0.00  0.00    -0.274 OA
ATOM     18  HO  UNK N   1      36.165  19.091   8.887  1.00  0.00     0.246 HD
ENDBRANCH  15  17
ENDBRANCH   5  15
TORSDOF 6
ENDMDL
MODEL 3
REMARK VINA RESULT:      -4.8      3.538      5.161
REMARK  6 active torsions:
REMARK  status: ('A' for Active; 'I' for Inactive)
REMARK    1  A    between atoms: N_2  and  C_3 
REMARK       I    between atoms: N_2  and  C_7 
REMARK    2  A    between atoms: C_3  and  C_4 
REMARK       I    between atoms: C_4  and  N_6 
REMARK       I    between atoms: C_7  and  N_9 
REMARK    3  A    between atoms: N_9  and  C_10 
REMARK    4  A    between atoms: N_9  and  N_13 
REMARK    5  A    between atoms: C_10  and  C_11 
REMARK    6  A    between atoms: N_13  and  O_15 
ROOT
HETATM    1  C   UNK N   1      26.431  21.073   6.245  0.00  0.00     0.155 C 
HETATM    2  N   UNK N   1      26.937  20.091   5.334  0.00  0.00    -0.328 N 
HETATM    3  C   UNK N   1      27.601  18.926   5.694  0.00  0.00     0.340 C 
HETATM    4  O   UNK N   1      27.962  18.203   4.768  0.00  0.00    -0.245 OA
HETATM    5  N   UNK N   1      27.908  18.475   6.989  0.00  0.00    -0.222 N 
ENDROOT
BRANCH   2   6
HETATM    6  C   UNK N   1      26.753  20.307   3.892  0.00  0.00     0.229 C 
BRANCH   6   7
HETATM    7  C   UNK N   1      25.383  20.227   3.253  0.00  0.00     0.233 C 
HETATM    8  O   UNK N   1      25.171  20.902   2.261  0.00  0.00    -0.272 OA
HETATM    9  N   UNK N   1      24.396  19.446   3.734  0.00  0.00    -0.369 N 
HETATM   10  H   UNK N   1      23.520  19.427   3.285  0.00  0.00     0.159 HD
HETATM   11  H   UNK N   1      24.551  18.894   4.535  0.00  0.00     0.159 HD
ENDBRANCH   6   7
ENDBRANCH   2   6
BRANCH   5  12
HETATM   12  C   UNK N   1      28.618  17.202   7.033  0.00  0.00     0.171 C 
BRANCH  12  13
HETATM   13  C   UNK N   1      30.122  17.314   7.198  0.00  0.00     0.136 C 
HETATM   14 Cl   UNK N   1      30.493  16.997   8.903  0.00  0.00    -0.129 Cl
ENDBRANCH  12  13
ENDBRANCH   5  12
BRANCH   5  15
HETATM   15  N   UNK N   1      27.635  19.064   8.220  0.00  0.00    -0.204 N 
ATOM     16  HN  UNK N   1      27.609  20.084   8.256  1.00  0.00     0.216 HD
BRANCH  15  17
HETATM   17  O   UNK N   1      27.430  18.480   9.232  0.00  0.00    -0.274 OA
ATOM     18  HO  UNK N   1      27.296  18.881  10.083  1.00  0.00     0.246 HD
ENDBRANCH  15  17
ENDBRANCH   5  15
TORSDOF 6
ENDMDL
MODEL 4
REMARK VINA RESULT:      -4.7      2.729      3.292
REMARK  6 active torsions:
REMARK  status: ('A' for Active; 'I' for Inactive)
REMARK    1  A    between atoms: N_2  and  C_3 
REMARK       I    between atoms: N_2  and  C_7 
REMARK    2  A    between atoms: C_3  and  C_4 
REMARK       I    between atoms: C_4  and  N_6 
REMARK       I    between atoms: C_7  and  N_9 
REMARK    3  A    between atoms: N_9  and  C_10 
REMARK    4  A    between atoms: N_9  and  N_13 
REMARK    5  A    between atoms: C_10  and  C_11 
REMARK    6  A    between atoms: N_13  and  O_15 
ROOT
HETATM    1  C   UNK N   1      23.874  20.544   2.876  0.00  0.00     0.155 C 
HETATM    2  N   UNK N   1      22.547  20.091   3.165  0.00  0.00    -0.328 N 
HETATM    3  C   UNK N   1      22.217  19.102   4.082  0.00  0.00     0.340 C 
HETATM    4  O   UNK N   1      21.019  18.849   4.193  0.00  0.00    -0.245 OA
HETATM    5  N   UNK N   1      23.085  18.358   4.897  0.00  0.00    -0.222 N 
ENDROOT
BRANCH   2   6
HETATM    6  C   UNK N   1      21.421  20.705   2.447  0.00  0.00     0.229 C 
BRANCH   6   7
HETATM    7  C   UNK N   1      20.929  20.145   1.129  0.00  0.00     0.233 C 
HETATM    8  O   UNK N   1      21.148  20.784   0.116  0.00  0.00    -0.272 OA
HETATM    9  N   UNK N   1      20.265  18.976   1.032  0.00  0.00    -0.369 N 
HETATM   10  H   UNK N   1      19.965  18.652   0.153  0.00  0.00     0.159 HD
HETATM   11  H   UNK N   1      20.081  18.447   1.842  0.00  0.00     0.159 HD
ENDBRANCH   6   7
ENDBRANCH   2   6
BRANCH   5  12
HETATM   12  C   UNK N   1      22.423  17.387   5.760  0.00  0.00     0.171 C 
BRANCH  12  13
HETATM   13  C   UNK N   1      22.946  15.968   5.644  0.00  0.00     0.136 C 
HETATM   14 Cl   UNK N   1      22.360  15.312   4.103  0.00  0.00    -0.129 Cl
ENDBRANCH  12  13
ENDBRANCH   5  12
BRANCH   5  15
HETATM   15  N   UNK N   1      24.473  18.415   4.996  0.00  0.00    -0.204 N 
ATOM     16  HN  UNK N   1      25.011  17.771   4.416  1.00  0.00     0.216 HD
BRANCH  15  17
HETATM   17  O   UNK N   1      25.083  19.151   5.700  0.00  0.00    -0.274 OA
ATOM     18  HO  UNK N   1      25.321  20.046   5.487  1.00  0.00     0.246 HD
ENDBRANCH  15  17
ENDBRANCH   5  15
TORSDOF 6
ENDMDL
MODEL 5
REMARK VINA RESULT:      -4.7      6.525      9.078
REMARK  6 active torsions:
REMARK  status: ('A' for Active; 'I' for Inactive)
REMARK    1  A    between atoms: N_2  and  C_3 
REMARK       I    between atoms: N_2  and  C_7 
REMARK    2  A    between atoms: C_3  and  C_4 
REMARK       I    between atoms: C_4  and  N_6 
REMARK       I    between atoms: C_7  and  N_9 
REMARK    3  A    between atoms: N_9  and  C_10 
REMARK    4  A    between atoms: N_9  and  N_13 
REMARK    5  A    between atoms: C_10  and  C_11 
REMARK    6  A    between atoms: N_13  and  O_15 
ROOT
HETATM    1  C   UNK N   1      31.295  17.940   8.701  0.00  0.00     0.155 C 
HETATM    2  N   UNK N   1      31.049  17.377   7.407  0.00  0.00    -0.328 N 
HETATM    3  C   UNK N   1      29.838  17.416   6.731  0.00  0.00     0.340 C 
HETATM    4  O   UNK N   1      29.819  16.876   5.626  0.00  0.00    -0.245 OA
HETATM    5  N   UNK N   1      28.632  17.998   7.156  0.00  0.00    -0.222 N 
ENDROOT
BRANCH   2   6
HETATM    6  C   UNK N   1      32.151  16.695   6.714  0.00  0.00     0.229 C 
BRANCH   6   7
HETATM    7  C   UNK N   1      33.076  17.446   5.779  0.00  0.00     0.233 C 
HETATM    8  O   UNK N   1      34.134  17.854   6.224  0.00  0.00    -0.272 OA
HETATM    9  N   UNK N   1      32.778  17.678   4.486  0.00  0.00    -0.369 N 
HETATM   10  H   UNK N   1      33.412  18.172   3.916  0.00  0.00     0.159 HD
HETATM   11  H   UNK N   1      31.927  17.355   4.111  0.00  0.00     0.159 HD
ENDBRANCH   6   7
ENDBRANCH   2   6
BRANCH   5  12
HETATM   12  C   UNK N   1      27.531  17.870   6.209  0.00  0.00     0.171 C 
BRANCH  12  13
HETATM   13  C   UNK N   1      26.948  19.183   5.724  0.00  0.00     0.136 C 
HETATM   14 Cl   UNK N   1      28.141  19.921   4.638  0.00  0.00    -0.129 Cl
ENDBRANCH  12  13
ENDBRANCH   5  12
BRANCH   5  15
HETATM   15  N   UNK N   1      28.342  18.672   8.340  0.00  0.00    -0.204 N 
ATOM     16  HN  UNK N   1      28.840  19.545   8.514  1.00  0.00     0.216 HD
BRANCH  15  17
HETATM   17  O   UNK N   1      27.565  18.315   9.162  0.00  0.00    -0.274 OA
ATOM     18  HO  UNK N   1      27.754  17.717   9.876  1.00  0.00     0.246 HD
ENDBRANCH  15  17
ENDBRANCH   5  15
TORSDOF 6
ENDMDL
MODEL 6
REMARK VINA RESULT:      -4.6      6.622      9.679
REMARK  6 active torsions:
REMARK  status: ('A' for Active; 'I' for Inactive)
REMARK    1  A    between atoms: N_2  and  C_3 
REMARK       I    between atoms: N_2  and  C_7 
REMARK    2  A    between atoms: C_3  and  C_4 
REMARK       I    between atoms: C_4  and  N_6 
REMARK       I    between atoms: C_7  and  N_9 
REMARK    3  A    between atoms: N_9  and  C_10 
REMARK    4  A    between atoms: N_9  and  N_13 
REMARK    5  A    between atoms: C_10  and  C_11 
REMARK    6  A    between atoms: N_13  and  O_15 
ROOT
HETATM    1  C   UNK N   1      30.723  18.560   9.124  0.00  0.00     0.155 C 
HETATM    2  N   UNK N   1      30.806  17.644   8.027  0.00  0.00    -0.328 N 
HETATM    3  C   UNK N   1      29.740  17.240   7.234  0.00  0.00     0.340 C 
HETATM    4  O   UNK N   1      30.007  16.444   6.336  0.00  0.00    -0.245 OA
HETATM    5  N   UNK N   1      28.395  17.632   7.335  0.00  0.00    -0.222 N 
ENDROOT
BRANCH   2   6
HETATM    6  C   UNK N   1      32.114  17.066   7.688  0.00  0.00     0.229 C 
BRANCH   6   7
HETATM    7  C   UNK N   1      33.397  17.639   8.255  0.00  0.00     0.233 C 
HETATM    8  O   UNK N   1      33.997  18.467   7.595  0.00  0.00    -0.272 OA
HETATM    9  N   UNK N   1      33.896  17.271   9.452  0.00  0.00    -0.369 N 
HETATM   10  H   UNK N   1      34.734  17.671   9.779  0.00  0.00     0.159 HD
HETATM   11  H   UNK N   1      33.422  16.602   9.998  0.00  0.00     0.159 HD
ENDBRANCH   6   7
ENDBRANCH   2   6
BRANCH   5  12
HETATM   12  C   UNK N   1      27.512  17.025   6.346  0.00  0.00     0.171 C 
BRANCH  12  13
HETATM   13  C   UNK N   1      26.822  18.006   5.417  0.00  0.00     0.136 C 
HETATM   14 Cl   UNK N   1      28.089  18.929   4.586  0.00  0.00    -0.129 Cl
ENDBRANCH  12  13
ENDBRANCH   5  12
BRANCH   5  15
HETATM   15  N   UNK N   1      27.792  18.507   8.235  0.00  0.00    -0.204 N 
ATOM     16  HN  UNK N   1      27.723  19.487   7.960  1.00  0.00     0.216 HD
BRANCH  15  17
HETATM   17  O   UNK N   1      27.351  18.207   9.295  0.00  0.00    -0.274 OA
ATOM     18  HO  UNK N   1      27.730  17.569   9.889  1.00  0.00     0.246 HD
ENDBRANCH  15  17
ENDBRANCH   5  15
TORSDOF 6
ENDMDL
MODEL 7
REMARK VINA RESULT:      -4.6      9.225     11.805
REMARK  6 active torsions:
REMARK  status: ('A' for Active; 'I' for Inactive)
REMARK    1  A    between atoms: N_2  and  C_3 
REMARK       I    between atoms: N_2  and  C_7 
REMARK    2  A    between atoms: C_3  and  C_4 
REMARK       I    between atoms: C_4  and  N_6 
REMARK       I    between atoms: C_7  and  N_9 
REMARK    3  A    between atoms: N_9  and  C_10 
REMARK    4  A    between atoms: N_9  and  N_13 
REMARK    5  A    between atoms: C_10  and  C_11 
REMARK    6  A    between atoms: N_13  and  O_15 
ROOT
HETATM    1  C   UNK N   1      31.866  16.926   8.513  0.00  0.00     0.155 C 
HETATM    2  N   UNK N   1      33.041  17.383   7.832  0.00  0.00    -0.328 N 
HETATM    3  C   UNK N   1      33.158  17.554   6.459  0.00  0.00     0.340 C 
HETATM    4  O   UNK N   1      34.248  17.956   6.058  0.00  0.00    -0.245 OA
HETATM    5  N   UNK N   1      32.182  17.324   5.475  0.00  0.00    -0.222 N 
ENDROOT
BRANCH   2   6
HETATM    6  C   UNK N   1      34.235  17.704   8.625  0.00  0.00     0.229 C 
BRANCH   6   7
HETATM    7  C   UNK N   1      34.850  16.690   9.567  0.00  0.00     0.233 C 
HETATM    8  O   UNK N   1      35.183  15.611   9.110  0.00  0.00    -0.272 OA
HETATM    9  N   UNK N   1      35.043  16.931  10.878  0.00  0.00    -0.369 N 
HETATM   10  H   UNK N   1      35.446  16.241  11.452  0.00  0.00     0.159 HD
HETATM   11  H   UNK N   1      34.779  17.799  11.263  0.00  0.00     0.159 HD
ENDBRANCH   6   7
ENDBRANCH   2   6
BRANCH   5  12
HETATM   12  C   UNK N   1      32.619  17.601   4.113  0.00  0.00     0.171 C 
BRANCH  12  13
HETATM   13  C   UNK N   1      32.195  16.571   3.083  0.00  0.00     0.136 C 
HETATM   14 Cl   UNK N   1      33.582  15.503   2.800  0.00  0.00    -0.129 Cl
ENDBRANCH  12  13
ENDBRANCH   5  12
BRANCH   5  15
HETATM   15  N   UNK N   1      30.872  16.874   5.616  0.00  0.00    -0.204 N 
ATOM     16  HN  UNK N   1      30.730  15.867   5.699  1.00  0.00     0.216 HD
BRANCH  15  17
HETATM   17  O   UNK N   1      29.907  17.564   5.646  0.00  0.00    -0.274 OA
ATOM     18  HO  UNK N   1      29.794  18.328   6.199  1.00  0.00     0.246 HD
ENDBRANCH  15  17
ENDBRANCH   5  15
TORSDOF 6
ENDMDL
MODEL 8
REMARK VINA RESULT:      -4.5      1.929      2.741
REMARK  6 active torsions:
REMARK  status: ('A' for Active; 'I' for Inactive)
REMARK    1  A    between atoms: N_2  and  C_3 
REMARK       I    between atoms: N_2  and  C_7 
REMARK    2  A    between atoms: C_3  and  C_4 
REMARK       I    between atoms: C_4  and  N_6 
REMARK       I    between atoms: C_7  and  N_9 
REMARK    3  A    between atoms: N_9  and  C_10 
REMARK    4  A    between atoms: N_9  and  N_13 
REMARK    5  A    between atoms: C_10  and  C_11 
REMARK    6  A    between atoms: N_13  and  O_15 
ROOT
HETATM    1  C   UNK N   1      21.502  20.514   2.479  0.00  0.00     0.155 C 
HETATM    2  N   UNK N   1      21.720  19.392   3.342  0.00  0.00    -0.328 N 
HETATM    3  C   UNK N   1      22.946  19.010   3.869  0.00  0.00     0.340 C 
HETATM    4  O   UNK N   1      22.936  18.015   4.592  0.00  0.00    -0.245 OA
HETATM    5  N   UNK N   1      24.196  19.622   3.677  0.00  0.00    -0.222 N 
ENDROOT
BRANCH   2   6
HETATM    6  C   UNK N   1      20.570  18.557   3.716  0.00  0.00     0.229 C 
BRANCH   6   7
HETATM    7  C   UNK N   1      19.861  17.691   2.696  0.00  0.00     0.233 C 
HETATM    8  O   UNK N   1      20.242  16.543   2.553  0.00  0.00    -0.272 OA
HETATM    9  N   UNK N   1      18.835  18.137   1.944  0.00  0.00    -0.369 N 
HETATM   10  H   UNK N   1      18.405  17.537   1.293  0.00  0.00     0.159 HD
HETATM   11  H   UNK N   1      18.516  19.063   2.047  0.00  0.00     0.159 HD
ENDBRANCH   6   7
ENDBRANCH   2   6
BRANCH   5  12
HETATM   12  C   UNK N   1      25.301  18.975   4.373  0.00  0.00     0.171 C 
BRANCH  12  13
HETATM   13  C   UNK N   1      26.181  19.909   5.182  0.00  0.00     0.136 C 
HETATM   14 Cl   UNK N   1      27.730  20.047   4.328  0.00  0.00    -0.129 Cl
ENDBRANCH  12  13
ENDBRANCH   5  12
BRANCH   5  15
HETATM   15  N   UNK N   1      24.524  20.747   2.924  0.00  0.00    -0.204 N 
ATOM     16  HN  UNK N   1      24.256  21.657   3.301  1.00  0.00     0.216 HD
BRANCH  15  17
HETATM   17  O   UNK N   1      25.090  20.736   1.881  0.00  0.00    -0.274 OA
ATOM     18  HO  UNK N   1      24.674  20.797   1.029  1.00  0.00     0.246 HD
ENDBRANCH  15  17
ENDBRANCH   5  15
TORSDOF 6
ENDMDL
MODEL 9
REMARK VINA RESULT:      -4.5      2.919      5.738
REMARK  6 active torsions:
REMARK  status: ('A' for Active; 'I' for Inactive)
REMARK    1  A    between atoms: N_2  and  C_3 
REMARK       I    between atoms: N_2  and  C_7 
REMARK    2  A    between atoms: C_3  and  C_4 
REMARK       I    between atoms: C_4  and  N_6 
REMARK       I    between atoms: C_7  and  N_9 
REMARK    3  A    between atoms: N_9  and  C_10 
REMARK    4  A    between atoms: N_9  and  N_13 
REMARK    5  A    between atoms: C_10  and  C_11 
REMARK    6  A    between atoms: N_13  and  O_15 
ROOT
HETATM    1  C   UNK N   1      25.014  20.478   2.645  0.00  0.00     0.155 C 
HETATM    2  N   UNK N   1      24.690  19.464   3.603  0.00  0.00    -0.328 N 
HETATM    3  C   UNK N   1      23.407  19.058   3.941  0.00  0.00     0.340 C 
HETATM    4  O   UNK N   1      23.328  18.170   4.788  0.00  0.00    -0.245 OA
HETATM    5  N   UNK N   1      22.189  19.538   3.433  0.00  0.00    -0.222 N 
ENDROOT
BRANCH   2   6
HETATM    6  C   UNK N   1      25.787  18.779   4.302  0.00  0.00     0.229 C 
BRANCH   6   7
HETATM    7  C   UNK N   1      26.741  19.538   5.201  0.00  0.00     0.233 C 
HETATM    8  O   UNK N   1      27.902  19.643   4.847  0.00  0.00    -0.272 OA
HETATM    9  N   UNK N   1      26.361  20.097   6.367  0.00  0.00    -0.369 N 
HETATM   10  H   UNK N   1      27.018  20.581   6.918  0.00  0.00     0.159 HD
HETATM   11  H   UNK N   1      25.426  20.020   6.667  0.00  0.00     0.159 HD
ENDBRANCH   6   7
ENDBRANCH   2   6
BRANCH   5  12
HETATM   12  C   UNK N   1      21.004  18.901   3.995  0.00  0.00     0.171 C 
BRANCH  12  13
HETATM   13  C   UNK N   1      19.949  18.504   2.981  0.00  0.00     0.136 C 
HETATM   14 Cl   UNK N   1      20.566  17.091   2.102  0.00  0.00    -0.129 Cl
ENDBRANCH  12  13
ENDBRANCH   5  12
BRANCH   5  15
HETATM   15  N   UNK N   1      21.955  20.525   2.478  0.00  0.00    -0.204 N 
ATOM     16  HN  UNK N   1      22.025  20.253   1.497  1.00  0.00     0.216 HD
BRANCH  15  17
HETATM   17  O   UNK N   1      21.682  21.656   2.711  0.00  0.00    -0.274 OA
ATOM     18  HO  UNK N   1      22.112  22.205   3.356  1.00  0.00     0.246 HD
ENDBRANCH  15  17
ENDBRANCH   5  15
TORSDOF 6
ENDMDL
