MODEL 1
REMARK VINA RESULT:      -8.3      0.000      0.000
REMARK  10 active torsions:
REMARK  status: ('A' for Active; 'I' for Inactive)
REMARK    1  A    between atoms: N_6  and  C_9 
REMARK    2  A    between atoms: C_12  and  O_16 
REMARK    3  A    between atoms: C_18  and  C_27 
REMARK    4  A    between atoms: N_20  and  C_21 
REMARK    5  A    between atoms: C_21  and  O_22 
REMARK    6  A    between atoms: O_22  and  P_23 
REMARK    7  A    between atoms: P_23  and  O_25 
REMARK    8  A    between atoms: P_23  and  O_26 
REMARK    9  A    between atoms: C_27  and  C_29 
REMARK       I    between atoms: C_29  and  N_31 
REMARK       I    between atoms: N_34  and  C_37 
REMARK   10  A    between atoms: C_37  and  C_39 
ROOT
HETATM    1  C   UNK N   1      24.095  15.832   3.213  0.00  0.00     0.156 A 
HETATM    2  C   UNK N   1      24.402  17.121   3.732  0.00  0.00     0.096 A 
HETATM    3  C   UNK N   1      25.721  17.493   3.813  0.00  0.00     0.045 A 
HETATM    4  C   UNK N   1      26.774  16.702   3.369  0.00  0.00     0.097 A 
HETATM    5  C   UNK N   1      26.443  15.457   2.823  0.00  0.00     0.127 A 
HETATM    6  N   UNK N   1      25.137  15.058   2.771  0.00  0.00    -0.346 N 
ATOM      7  HN  UNK N   1      24.926  14.139   2.385  1.00  0.00     0.167 HD
HETATM    8  C   UNK N   1      25.750  18.739   4.360  0.00  0.00     0.051 A 
HETATM    9  C   UNK N   1      24.459  19.142   4.556  0.00  0.00     0.110 A 
HETATM   10  N   UNK N   1      23.625  18.150   4.190  0.00  0.00    -0.330 N 
ENDROOT
BRANCH   8  11
HETATM   11  C   UNK N   1      26.922  19.518   4.653  0.00  0.00     0.251 C 
HETATM   12  O   UNK N   1      27.684  19.799   3.741  0.00  0.00    -0.281 OA
BRANCH  11  13
HETATM   13  C   UNK N   1      27.234  19.842   6.055  0.00  0.00     0.294 C 
HETATM   14  O   UNK N   1      26.643  20.768   6.596  0.00  0.00    -0.264 OA
HETATM   15  N   UNK N   1      28.146  19.131   6.757  0.00  0.00    -0.342 N 
HETATM   16  C   UNK N   1      28.168  19.245   8.198  0.00  0.00     0.146 C 
HETATM   17  C   UNK N   1      29.052  18.202   6.101  0.00  0.00     0.146 C 
HETATM   18  C   UNK N   1      27.911  17.837   8.747  0.00  0.00     0.146 C 
HETATM   19  N   UNK N   1      29.004  17.067   8.220  0.00  0.00    -0.345 N 
HETATM   20  C   UNK N   1      29.025  16.853   6.789  0.00  0.00     0.146 C 
HETATM   21  C   UNK N   1      30.102  16.920   9.016  0.00  0.00     0.253 C 
HETATM   22  O   UNK N   1      29.963  16.979  10.231  0.00  0.00    -0.267 OA
BRANCH  21  23
HETATM   23  C   UNK N   1      31.489  16.915   8.475  0.00  0.00     0.032 A 
HETATM   24  C   UNK N   1      32.200  15.710   8.447  0.00  0.00     0.017 A 
HETATM   25  C   UNK N   1      33.570  15.700   8.179  0.00  0.00     0.001 A 
HETATM   26  C   UNK N   1      34.253  16.901   7.976  0.00  0.00     0.000 A 
HETATM   27  C   UNK N   1      33.560  18.112   8.012  0.00  0.00     0.001 A 
HETATM   28  C   UNK N   1      32.190  18.115   8.264  0.00  0.00     0.017 A 
ENDBRANCH  21  23
ENDBRANCH  11  13
ENDBRANCH   8  11
BRANCH   4  29
HETATM   29  O   UNK N   1      28.052  17.150   3.446  0.00  0.00    -0.354 OA
HETATM   30  C   UNK N   1      29.132  16.456   2.950  0.00  0.00     0.210 C 
ENDBRANCH   4  29
BRANCH  10  31
HETATM   31  C   UNK N   1      22.180  18.337   4.259  0.00  0.00     0.311 C 
BRANCH  31  32
HETATM   32  O   UNK N   1      21.626  18.431   2.972  0.00  0.00    -0.277 OA
BRANCH  32  33
HETATM   33  P   UNK N   1      21.147  20.100   2.730  0.00  0.00     0.392 P 
HETATM   34  O   UNK N   1      20.280  20.531   3.941  0.00  0.00    -0.632 OA
BRANCH  33  35
HETATM   35  O   UNK N   1      20.178  20.339   1.305  0.00  0.00    -0.307 OA
HETATM   36  H   UNK N   1      19.888  20.671   0.441  0.00  0.00     0.222 HD
ENDBRANCH  33  35
BRANCH  33  37
HETATM   37  O   UNK N   1      22.532  21.148   2.702  0.00  0.00    -0.307 OA
HETATM   38  H   UNK N   1      23.200  21.415   3.353  0.00  0.00     0.222 HD
ENDBRANCH  33  37
ENDBRANCH  32  33
ENDBRANCH  31  32
ENDBRANCH  10  31
BRANCH   1  39
HETATM   39  N   UNK N   1      22.773  15.269   3.184  0.00  0.00    -0.232 N 
HETATM   40  C   UNK N   1      22.171  14.672   4.234  0.00  0.00     0.210 A 
HETATM   41  N   UNK N   1      20.905  14.342   3.909  0.00  0.00    -0.340 N 
HETATM   42  C   UNK N   1      20.779  14.773   2.638  0.00  0.00     0.093 A 
ATOM     43  HN  UNK N   1      20.206  13.877   4.488  1.00  0.00     0.168 HD
HETATM   44  C   UNK N   1      19.537  14.661   1.834  0.00  0.00     0.090 C 
HETATM   45  N   UNK N   1      21.911  15.342   2.199  0.00  0.00    -0.280 N 
ATOM     46  HN  UNK N   1      22.069  15.751   1.277  1.00  0.00     0.189 HD
ENDBRANCH   1  39
TORSDOF 10
ENDMDL
MODEL 2
REMARK VINA RESULT:      -8.3      5.334      8.906
REMARK  10 active torsions:
REMARK  status: ('A' for Active; 'I' for Inactive)
REMARK    1  A    between atoms: N_6  and  C_9 
REMARK    2  A    between atoms: C_12  and  O_16 
REMARK    3  A    between atoms: C_18  and  C_27 
REMARK    4  A    between atoms: N_20  and  C_21 
REMARK    5  A    between atoms: C_21  and  O_22 
REMARK    6  A    between atoms: O_22  and  P_23 
REMARK    7  A    between atoms: P_23  and  O_25 
REMARK    8  A    between atoms: P_23  and  O_26 
REMARK    9  A    between atoms: C_27  and  C_29 
REMARK       I    between atoms: C_29  and  N_31 
REMARK       I    between atoms: N_34  and  C_37 
REMARK   10  A    between atoms: C_37  and  C_39 
ROOT
HETATM    1  C   UNK N   1      31.522  16.454   4.961  0.00  0.00     0.156 A 
HETATM    2  C   UNK N   1      31.902  16.246   6.317  0.00  0.00     0.096 A 
HETATM    3  C   UNK N   1      33.204  15.901   6.582  0.00  0.00     0.045 A 
HETATM    4  C   UNK N   1      34.187  15.793   5.606  0.00  0.00     0.097 A 
HETATM    5  C   UNK N   1      33.798  16.044   4.286  0.00  0.00     0.127 A 
HETATM    6  N   UNK N   1      32.497  16.351   4.002  0.00  0.00    -0.346 N 
ATOM      7  HN  UNK N   1      32.238  16.511   3.030  1.00  0.00     0.167 HD
HETATM    8  C   UNK N   1      33.305  15.735   7.929  0.00  0.00     0.051 A 
HETATM    9  C   UNK N   1      32.090  16.031   8.481  0.00  0.00     0.110 A 
HETATM   10  N   UNK N   1      31.218  16.330   7.498  0.00  0.00    -0.330 N 
ENDROOT
BRANCH   8  11
HETATM   11  C   UNK N   1      34.482  15.350   8.658  0.00  0.00     0.251 C 
HETATM   12  O   UNK N   1      35.337  16.192   8.882  0.00  0.00    -0.281 OA
BRANCH  11  13
HETATM   13  C   UNK N   1      34.680  13.931   9.000  0.00  0.00     0.294 C 
HETATM   14  O   UNK N   1      34.446  13.078   8.154  0.00  0.00    -0.264 OA
HETATM   15  N   UNK N   1      35.129  13.557  10.220  0.00  0.00    -0.342 N 
HETATM   16  C   UNK N   1      35.639  12.216  10.399  0.00  0.00     0.146 C 
HETATM   17  C   UNK N   1      35.176  14.492  11.331  0.00  0.00     0.146 C 
HETATM   18  C   UNK N   1      37.095  12.365  10.855  0.00  0.00     0.146 C 
HETATM   19  N   UNK N   1      36.988  13.103  12.083  0.00  0.00    -0.345 N 
HETATM   20  C   UNK N   1      36.541  14.476  11.987  0.00  0.00     0.146 C 
HETATM   21  C   UNK N   1      36.949  12.382  13.241  0.00  0.00     0.253 C 
HETATM   22  O   UNK N   1      37.479  11.279  13.268  0.00  0.00    -0.267 OA
BRANCH  21  23
HETATM   23  C   UNK N   1      36.102  12.774  14.400  0.00  0.00     0.032 A 
HETATM   24  C   UNK N   1      36.678  13.515  15.439  0.00  0.00     0.017 A 
HETATM   25  C   UNK N   1      35.997  13.694  16.645  0.00  0.00     0.001 A 
HETATM   26  C   UNK N   1      34.748  13.101  16.839  0.00  0.00     0.000 A 
HETATM   27  C   UNK N   1      34.166  12.350  15.818  0.00  0.00     0.001 A 
HETATM   28  C   UNK N   1      34.842  12.187  14.611  0.00  0.00     0.017 A 
ENDBRANCH  21  23
ENDBRANCH  11  13
ENDBRANCH   8  11
BRANCH   4  29
HETATM   29  O   UNK N   1      35.464  15.485   5.945  0.00  0.00    -0.354 OA
HETATM   30  C   UNK N   1      36.141  14.395   5.450  0.00  0.00     0.210 C 
ENDBRANCH   4  29
BRANCH  10  31
HETATM   31  C   UNK N   1      29.852  16.727   7.820  0.00  0.00     0.311 C 
BRANCH  31  32
HETATM   32  O   UNK N   1      29.632  18.074   7.489  0.00  0.00    -0.277 OA
BRANCH  32  33
HETATM   33  P   UNK N   1      27.931  18.406   7.759  0.00  0.00     0.392 P 
HETATM   34  O   UNK N   1      27.622  19.815   7.189  0.00  0.00    -0.632 OA
BRANCH  33  35
HETATM   35  O   UNK N   1      27.495  18.435   9.443  0.00  0.00    -0.307 OA
HETATM   36  H   UNK N   1      27.231  18.130  10.325  0.00  0.00     0.222 HD
ENDBRANCH  33  35
BRANCH  33  37
HETATM   37  O   UNK N   1      26.931  17.281   6.895  0.00  0.00    -0.307 OA
HETATM   38  H   UNK N   1      26.372  16.529   7.147  0.00  0.00     0.222 HD
ENDBRANCH  33  37
ENDBRANCH  32  33
ENDBRANCH  31  32
ENDBRANCH  10  31
BRANCH   1  39
HETATM   39  N   UNK N   1      30.173  16.698   4.531  0.00  0.00    -0.232 N 
HETATM   40  C   UNK N   1      29.229  15.744   4.385  0.00  0.00     0.210 A 
HETATM   41  N   UNK N   1      28.049  16.312   4.066  0.00  0.00    -0.340 N 
HETATM   42  C   UNK N   1      28.326  17.631   4.038  0.00  0.00     0.093 A 
ATOM     43  HN  UNK N   1      27.156  15.852   3.888  1.00  0.00     0.168 HD
HETATM   44  C   UNK N   1      27.329  18.692   3.754  0.00  0.00     0.090 C 
HETATM   45  N   UNK N   1      29.614  17.867   4.326  0.00  0.00    -0.280 N 
ATOM     46  HN  UNK N   1      30.070  18.779   4.376  1.00  0.00     0.189 HD
ENDBRANCH   1  39
TORSDOF 10
ENDMDL
MODEL 3
REMARK VINA RESULT:      -8.1      4.324      8.586
REMARK  10 active torsions:
REMARK  status: ('A' for Active; 'I' for Inactive)
REMARK    1  A    between atoms: N_6  and  C_9 
REMARK    2  A    between atoms: C_12  and  O_16 
REMARK    3  A    between atoms: C_18  and  C_27 
REMARK    4  A    between atoms: N_20  and  C_21 
REMARK    5  A    between atoms: C_21  and  O_22 
REMARK    6  A    between atoms: O_22  and  P_23 
REMARK    7  A    between atoms: P_23  and  O_25 
REMARK    8  A    between atoms: P_23  and  O_26 
REMARK    9  A    between atoms: C_27  and  C_29 
REMARK       I    between atoms: C_29  and  N_31 
REMARK       I    between atoms: N_34  and  C_37 
REMARK   10  A    between atoms: C_37  and  C_39 
ROOT
HETATM    1  C   UNK N   1      28.313  18.071   4.532  0.00  0.00     0.156 A 
HETATM    2  C   UNK N   1      27.230  17.155   4.651  0.00  0.00     0.096 A 
HETATM    3  C   UNK N   1      25.963  17.607   4.381  0.00  0.00     0.045 A 
HETATM    4  C   UNK N   1      25.680  18.897   3.947  0.00  0.00     0.097 A 
HETATM    5  C   UNK N   1      26.767  19.765   3.796  0.00  0.00     0.127 A 
HETATM    6  N   UNK N   1      28.030  19.341   4.098  0.00  0.00    -0.346 N 
ATOM      7  HN  UNK N   1      28.800  20.000   3.996  1.00  0.00     0.167 HD
HETATM    8  C   UNK N   1      25.115  16.564   4.591  0.00  0.00     0.051 A 
HETATM    9  C   UNK N   1      25.866  15.474   4.931  0.00  0.00     0.110 A 
HETATM   10  N   UNK N   1      27.164  15.831   4.986  0.00  0.00    -0.330 N 
ENDROOT
BRANCH   8  11
HETATM   11  C   UNK N   1      23.684  16.582   4.452  0.00  0.00     0.251 C 
HETATM   12  O   UNK N   1      23.197  16.337   3.359  0.00  0.00    -0.281 OA
BRANCH  11  13
HETATM   13  C   UNK N   1      22.859  17.017   5.592  0.00  0.00     0.294 C 
HETATM   14  O   UNK N   1      22.549  18.197   5.685  0.00  0.00    -0.264 OA
HETATM   15  N   UNK N   1      22.426  16.137   6.523  0.00  0.00    -0.342 N 
HETATM   16  C   UNK N   1      21.351  16.524   7.409  0.00  0.00     0.146 C 
HETATM   17  C   UNK N   1      22.968  14.791   6.606  0.00  0.00     0.146 C 
HETATM   18  C   UNK N   1      20.215  15.522   7.173  0.00  0.00     0.146 C 
HETATM   19  N   UNK N   1      20.807  14.258   7.515  0.00  0.00    -0.345 N 
HETATM   20  C   UNK N   1      21.853  13.766   6.643  0.00  0.00     0.146 C 
HETATM   21  C   UNK N   1      20.621  13.808   8.789  0.00  0.00     0.253 C 
HETATM   22  O   UNK N   1      19.627  14.171   9.404  0.00  0.00    -0.267 OA
BRANCH  21  23
HETATM   23  C   UNK N   1      21.676  13.079   9.544  0.00  0.00     0.032 A 
HETATM   24  C   UNK N   1      21.327  12.414  10.725  0.00  0.00     0.017 A 
HETATM   25  C   UNK N   1      22.314  11.928  11.585  0.00  0.00     0.001 A 
HETATM   26  C   UNK N   1      23.663  12.137  11.292  0.00  0.00     0.000 A 
HETATM   27  C   UNK N   1      24.027  12.808  10.124  0.00  0.00     0.001 A 
HETATM   28  C   UNK N   1      23.039  13.277   9.261  0.00  0.00     0.017 A 
ENDBRANCH  21  23
ENDBRANCH  11  13
ENDBRANCH   8  11
BRANCH   4  29
HETATM   29  O   UNK N   1      24.406  19.264   3.662  0.00  0.00    -0.354 OA
HETATM   30  C   UNK N   1      24.075  20.452   3.052  0.00  0.00     0.210 C 
ENDBRANCH   4  29
BRANCH  10  31
HETATM   31  C   UNK N   1      28.190  14.838   5.288  0.00  0.00     0.311 C 
BRANCH  31  32
HETATM   32  O   UNK N   1      28.833  14.413   4.114  0.00  0.00    -0.277 OA
BRANCH  32  33
HETATM   33  P   UNK N   1      30.276  13.541   4.597  0.00  0.00     0.392 P 
HETATM   34  O   UNK N   1      30.751  14.115   5.957  0.00  0.00    -0.632 OA
BRANCH  33  35
HETATM   35  O   UNK N   1      31.598  13.725   3.481  0.00  0.00    -0.307 OA
HETATM   36  H   UNK N   1      32.086  13.920   2.666  0.00  0.00     0.222 HD
ENDBRANCH  33  35
BRANCH  33  37
HETATM   37  O   UNK N   1      29.931  11.858   4.853  0.00  0.00    -0.307 OA
HETATM   38  H   UNK N   1      29.283  11.366   5.381  0.00  0.00     0.222 HD
ENDBRANCH  33  37
ENDBRANCH  32  33
ENDBRANCH  31  32
ENDBRANCH  10  31
BRANCH   1  39
HETATM   39  N   UNK N   1      29.669  17.768   4.899  0.00  0.00    -0.232 N 
HETATM   40  C   UNK N   1      30.088  17.535   6.161  0.00  0.00     0.210 A 
HETATM   41  N   UNK N   1      31.390  17.184   6.153  0.00  0.00    -0.340 N 
HETATM   42  C   UNK N   1      31.720  17.209   4.847  0.00  0.00     0.093 A 
ATOM     43  HN  UNK N   1      31.985  16.953   6.949  1.00  0.00     0.168 HD
HETATM   44  C   UNK N   1      33.062  16.867   4.314  0.00  0.00     0.090 C 
HETATM   45  N   UNK N   1      30.674  17.558   4.084  0.00  0.00    -0.280 N 
ATOM     46  HN  UNK N   1      30.664  17.643   3.066  1.00  0.00     0.189 HD
ENDBRANCH   1  39
TORSDOF 10
ENDMDL
MODEL 4
REMARK VINA RESULT:      -8.1      3.190      5.545
REMARK  10 active torsions:
REMARK  status: ('A' for Active; 'I' for Inactive)
REMARK    1  A    between atoms: N_6  and  C_9 
REMARK    2  A    between atoms: C_12  and  O_16 
REMARK    3  A    between atoms: C_18  and  C_27 
REMARK    4  A    between atoms: N_20  and  C_21 
REMARK    5  A    between atoms: C_21  and  O_22 
REMARK    6  A    between atoms: O_22  and  P_23 
REMARK    7  A    between atoms: P_23  and  O_25 
REMARK    8  A    between atoms: P_23  and  O_26 
REMARK    9  A    between atoms: C_27  and  C_29 
REMARK       I    between atoms: C_29  and  N_31 
REMARK       I    between atoms: N_34  and  C_37 
REMARK   10  A    between atoms: C_37  and  C_39 
ROOT
HETATM    1  C   UNK N   1      27.080  16.343   3.852  0.00  0.00     0.156 A 
HETATM    2  C   UNK N   1      28.152  16.242   4.782  0.00  0.00     0.096 A 
HETATM    3  C   UNK N   1      29.243  15.482   4.439  0.00  0.00     0.045 A 
HETATM    4  C   UNK N   1      29.383  14.846   3.211  0.00  0.00     0.097 A 
HETATM    5  C   UNK N   1      28.334  14.997   2.297  0.00  0.00     0.127 A 
HETATM    6  N   UNK N   1      27.225  15.718   2.641  0.00  0.00    -0.346 N 
ATOM      7  HN  UNK N   1      26.469  15.796   1.962  1.00  0.00     0.167 HD
HETATM    8  C   UNK N   1      30.104  15.522   5.491  0.00  0.00     0.051 A 
HETATM    9  C   UNK N   1      29.567  16.344   6.442  0.00  0.00     0.110 A 
HETATM   10  N   UNK N   1      28.362  16.777   6.024  0.00  0.00    -0.330 N 
ENDROOT
BRANCH   8  11
HETATM   11  C   UNK N   1      31.372  14.851   5.586  0.00  0.00     0.251 C 
HETATM   12  O   UNK N   1      31.385  13.638   5.728  0.00  0.00    -0.281 OA
BRANCH  11  13
HETATM   13  C   UNK N   1      32.605  15.654   5.637  0.00  0.00     0.294 C 
HETATM   14  O   UNK N   1      32.989  16.219   4.622  0.00  0.00    -0.264 OA
HETATM   15  N   UNK N   1      33.310  15.790   6.784  0.00  0.00    -0.342 N 
HETATM   16  C   UNK N   1      34.293  16.845   6.883  0.00  0.00     0.146 C 
HETATM   17  C   UNK N   1      33.051  14.946   7.938  0.00  0.00     0.146 C 
HETATM   18  C   UNK N   1      33.855  17.734   8.053  0.00  0.00     0.146 C 
HETATM   19  N   UNK N   1      33.865  16.839   9.177  0.00  0.00    -0.345 N 
HETATM   20  C   UNK N   1      32.872  15.786   9.186  0.00  0.00     0.146 C 
HETATM   21  C   UNK N   1      34.998  16.806   9.936  0.00  0.00     0.253 C 
HETATM   22  O   UNK N   1      35.711  17.801   9.976  0.00  0.00    -0.267 OA
BRANCH  21  23
HETATM   23  C   UNK N   1      35.526  15.550  10.535  0.00  0.00     0.032 A 
HETATM   24  C   UNK N   1      35.379  15.343  11.912  0.00  0.00     0.017 A 
HETATM   25  C   UNK N   1      36.063  14.307  12.551  0.00  0.00     0.001 A 
HETATM   26  C   UNK N   1      36.933  13.490  11.826  0.00  0.00     0.000 A 
HETATM   27  C   UNK N   1      37.099  13.691  10.455  0.00  0.00     0.001 A 
HETATM   28  C   UNK N   1      36.402  14.716   9.819  0.00  0.00     0.017 A 
ENDBRANCH  21  23
ENDBRANCH  11  13
ENDBRANCH   8  11
BRANCH   4  29
HETATM   29  O   UNK N   1      30.506  14.142   2.924  0.00  0.00    -0.354 OA
HETATM   30  C   UNK N   1      30.504  12.961   2.219  0.00  0.00     0.210 C 
ENDBRANCH   4  29
BRANCH  10  31
HETATM   31  C   UNK N   1      27.589  17.709   6.838  0.00  0.00     0.311 C 
BRANCH  31  32
HETATM   32  O   UNK N   1      28.276  18.924   6.995  0.00  0.00    -0.277 OA
BRANCH  32  33
HETATM   33  P   UNK N   1      27.514  20.094   5.934  0.00  0.00     0.392 P 
HETATM   34  O   UNK N   1      27.915  21.512   6.417  0.00  0.00    -0.632 OA
BRANCH  33  35
HETATM   35  O   UNK N   1      25.776  20.022   5.965  0.00  0.00    -0.307 OA
HETATM   36  H   UNK N   1      24.857  19.958   5.661  0.00  0.00     0.222 HD
ENDBRANCH  33  35
BRANCH  33  37
HETATM   37  O   UNK N   1      28.096  19.931   4.306  0.00  0.00    -0.307 OA
HETATM   38  H   UNK N   1      28.132  19.206   3.662  0.00  0.00     0.222 HD
ENDBRANCH  33  37
ENDBRANCH  32  33
ENDBRANCH  31  32
ENDBRANCH  10  31
BRANCH   1  39
HETATM   39  N   UNK N   1      25.833  17.001   4.129  0.00  0.00    -0.232 N 
HETATM   40  C   UNK N   1      25.357  18.063   3.446  0.00  0.00     0.210 A 
HETATM   41  N   UNK N   1      24.124  18.378   3.888  0.00  0.00    -0.340 N 
HETATM   42  C   UNK N   1      23.884  17.461   4.845  0.00  0.00     0.093 A 
ATOM     43  HN  UNK N   1      23.514  19.132   3.571  1.00  0.00     0.168 HD
HETATM   44  C   UNK N   1      22.625  17.372   5.625  0.00  0.00     0.090 C 
HETATM   45  N   UNK N   1      24.918  16.620   4.989  0.00  0.00    -0.280 N 
ATOM     46  HN  UNK N   1      24.981  15.838   5.641  1.00  0.00     0.189 HD
ENDBRANCH   1  39
TORSDOF 10
ENDMDL
MODEL 5
REMARK VINA RESULT:      -8.0      3.148      9.188
REMARK  10 active torsions:
REMARK  status: ('A' for Active; 'I' for Inactive)
REMARK    1  A    between atoms: N_6  and  C_9 
REMARK    2  A    between atoms: C_12  and  O_16 
REMARK    3  A    between atoms: C_18  and  C_27 
REMARK    4  A    between atoms: N_20  and  C_21 
REMARK    5  A    between atoms: C_21  and  O_22 
REMARK    6  A    between atoms: O_22  and  P_23 
REMARK    7  A    between atoms: P_23  and  O_25 
REMARK    8  A    between atoms: P_23  and  O_26 
REMARK    9  A    between atoms: C_27  and  C_29 
REMARK       I    between atoms: C_29  and  N_31 
REMARK       I    between atoms: N_34  and  C_37 
REMARK   10  A    between atoms: C_37  and  C_39 
ROOT
HETATM    1  C   UNK N   1      31.385  15.491   5.163  0.00  0.00     0.156 A 
HETATM    2  C   UNK N   1      30.016  15.839   4.987  0.00  0.00     0.096 A 
HETATM    3  C   UNK N   1      29.280  15.139   4.063  0.00  0.00     0.045 A 
HETATM    4  C   UNK N   1      29.782  14.074   3.324  0.00  0.00     0.097 A 
HETATM    5  C   UNK N   1      31.118  13.723   3.548  0.00  0.00     0.127 A 
HETATM    6  N   UNK N   1      31.873  14.436   4.437  0.00  0.00    -0.346 N 
ATOM      7  HN  UNK N   1      32.848  14.170   4.566  1.00  0.00     0.167 HD
HETATM    8  C   UNK N   1      28.028  15.673   4.064  0.00  0.00     0.051 A 
HETATM    9  C   UNK N   1      27.989  16.650   5.019  0.00  0.00     0.110 A 
HETATM   10  N   UNK N   1      29.208  16.771   5.579  0.00  0.00    -0.330 N 
ENDROOT
BRANCH   8  11
HETATM   11  C   UNK N   1      26.925  15.269   3.236  0.00  0.00     0.251 C 
HETATM   12  O   UNK N   1      26.924  15.593   2.059  0.00  0.00    -0.281 OA
BRANCH  11  13
HETATM   13  C   UNK N   1      25.775  14.590   3.856  0.00  0.00     0.294 C 
HETATM   14  O   UNK N   1      25.845  13.389   4.083  0.00  0.00    -0.264 OA
HETATM   15  N   UNK N   1      24.654  15.268   4.193  0.00  0.00    -0.342 N 
HETATM   16  C   UNK N   1      23.709  14.657   5.101  0.00  0.00     0.146 C 
HETATM   17  C   UNK N   1      24.415  16.622   3.720  0.00  0.00     0.146 C 
HETATM   18  C   UNK N   1      23.610  15.590   6.313  0.00  0.00     0.146 C 
HETATM   19  N   UNK N   1      23.139  16.825   5.748  0.00  0.00    -0.345 N 
HETATM   20  C   UNK N   1      24.048  17.534   4.873  0.00  0.00     0.146 C 
HETATM   21  C   UNK N   1      21.793  17.045   5.766  0.00  0.00     0.253 C 
HETATM   22  O   UNK N   1      21.119  16.507   6.636  0.00  0.00    -0.267 OA
BRANCH  21  23
HETATM   23  C   UNK N   1      21.076  17.723   4.652  0.00  0.00     0.032 A 
HETATM   24  C   UNK N   1      20.608  16.953   3.581  0.00  0.00     0.017 A 
HETATM   25  C   UNK N   1      20.151  17.566   2.412  0.00  0.00     0.001 A 
HETATM   26  C   UNK N   1      20.195  18.957   2.288  0.00  0.00     0.000 A 
HETATM   27  C   UNK N   1      20.669  19.737   3.342  0.00  0.00     0.001 A 
HETATM   28  C   UNK N   1      21.109  19.122   4.512  0.00  0.00     0.017 A 
ENDBRANCH  21  23
ENDBRANCH  11  13
ENDBRANCH   8  11
BRANCH   4  29
HETATM   29  O   UNK N   1      28.986  13.402   2.456  0.00  0.00    -0.354 OA
HETATM   30  C   UNK N   1      28.823  12.037   2.474  0.00  0.00     0.210 C 
ENDBRANCH   4  29
BRANCH  10  31
HETATM   31  C   UNK N   1      29.431  17.720   6.665  0.00  0.00     0.311 C 
BRANCH  31  32
HETATM   32  O   UNK N   1      29.581  17.051   7.890  0.00  0.00    -0.277 OA
BRANCH  32  33
HETATM   33  P   UNK N   1      28.642  17.928   9.082  0.00  0.00     0.392 P 
HETATM   34  O   UNK N   1      27.710  16.917   9.798  0.00  0.00    -0.632 OA
BRANCH  33  35
HETATM   35  O   UNK N   1      27.619  19.153   8.387  0.00  0.00    -0.307 OA
HETATM   36  H   UNK N   1      27.342  19.972   7.949  0.00  0.00     0.222 HD
ENDBRANCH  33  35
BRANCH  33  37
HETATM   37  O   UNK N   1      29.669  18.618  10.301  0.00  0.00    -0.307 OA
HETATM   38  H   UNK N   1      30.553  19.018  10.303  0.00  0.00     0.222 HD
ENDBRANCH  33  37
ENDBRANCH  32  33
ENDBRANCH  31  32
ENDBRANCH  10  31
BRANCH   1  39
HETATM   39  N   UNK N   1      32.298  16.215   6.003  0.00  0.00    -0.232 N 
HETATM   40  C   UNK N   1      32.999  17.302   5.617  0.00  0.00     0.210 A 
HETATM   41  N   UNK N   1      33.684  17.802   6.664  0.00  0.00    -0.340 N 
HETATM   42  C   UNK N   1      33.358  16.981   7.681  0.00  0.00     0.093 A 
ATOM     43  HN  UNK N   1      34.304  18.612   6.682  1.00  0.00     0.168 HD
HETATM   44  C   UNK N   1      33.848  17.133   9.073  0.00  0.00     0.090 C 
HETATM   45  N   UNK N   1      32.511  16.020   7.283  0.00  0.00    -0.280 N 
ATOM     46  HN  UNK N   1      32.111  15.281   7.863  1.00  0.00     0.189 HD
ENDBRANCH   1  39
TORSDOF 10
ENDMDL
MODEL 6
REMARK VINA RESULT:      -7.9      4.301      7.061
REMARK  10 active torsions:
REMARK  status: ('A' for Active; 'I' for Inactive)
REMARK    1  A    between atoms: N_6  and  C_9 
REMARK    2  A    between atoms: C_12  and  O_16 
REMARK    3  A    between atoms: C_18  and  C_27 
REMARK    4  A    between atoms: N_20  and  C_21 
REMARK    5  A    between atoms: C_21  and  O_22 
REMARK    6  A    between atoms: O_22  and  P_23 
REMARK    7  A    between atoms: P_23  and  O_25 
REMARK    8  A    between atoms: P_23  and  O_26 
REMARK    9  A    between atoms: C_27  and  C_29 
REMARK       I    between atoms: C_29  and  N_31 
REMARK       I    between atoms: N_34  and  C_37 
REMARK   10  A    between atoms: C_37  and  C_39 
ROOT
HETATM    1  C   UNK N   1      28.369  15.691   3.879  0.00  0.00     0.156 A 
HETATM    2  C   UNK N   1      29.376  15.498   4.867  0.00  0.00     0.096 A 
HETATM    3  C   UNK N   1      30.362  14.577   4.619  0.00  0.00     0.045 A 
HETATM    4  C   UNK N   1      30.465  13.856   3.435  0.00  0.00     0.097 A 
HETATM    5  C   UNK N   1      29.488  14.096   2.462  0.00  0.00     0.127 A 
HETATM    6  N   UNK N   1      28.477  14.982   2.711  0.00  0.00    -0.346 N 
ATOM      7  HN  UNK N   1      27.769  15.123   1.992  1.00  0.00     0.167 HD
HETATM    8  C   UNK N   1      31.175  14.560   5.711  0.00  0.00     0.051 A 
HETATM    9  C   UNK N   1      30.718  15.502   6.588  0.00  0.00     0.110 A 
HETATM   10  N   UNK N   1      29.604  16.072   6.087  0.00  0.00    -0.330 N 
ENDROOT
BRANCH   8  11
HETATM   11  C   UNK N   1      32.331  13.728   5.905  0.00  0.00     0.251 C 
HETATM   12  O   UNK N   1      32.172  12.525   6.038  0.00  0.00    -0.281 OA
BRANCH  11  13
HETATM   13  C   UNK N   1      33.651  14.361   6.063  0.00  0.00     0.294 C 
HETATM   14  O   UNK N   1      34.242  14.759   5.068  0.00  0.00    -0.264 OA
HETATM   15  N   UNK N   1      34.212  14.524   7.283  0.00  0.00    -0.342 N 
HETATM   16  C   UNK N   1      35.316  15.444   7.431  0.00  0.00     0.146 C 
HETATM   17  C   UNK N   1      33.684  13.850   8.458  0.00  0.00     0.146 C 
HETATM   18  C   UNK N   1      34.864  16.503   8.443  0.00  0.00     0.146 C 
HETATM   19  N   UNK N   1      34.597  15.739   9.630  0.00  0.00    -0.345 N 
HETATM   20  C   UNK N   1      33.468  14.834   9.588  0.00  0.00     0.146 C 
HETATM   21  C   UNK N   1      35.604  15.638  10.545  0.00  0.00     0.253 C 
HETATM   22  O   UNK N   1      36.442  16.528  10.601  0.00  0.00    -0.267 OA
BRANCH  21  23
HETATM   23  C   UNK N   1      35.859  14.394  11.321  0.00  0.00     0.032 A 
HETATM   24  C   UNK N   1      35.593  14.388  12.695  0.00  0.00     0.017 A 
HETATM   25  C   UNK N   1      36.040  13.337  13.500  0.00  0.00     0.001 A 
HETATM   26  C   UNK N   1      36.792  12.300  12.944  0.00  0.00     0.000 A 
HETATM   27  C   UNK N   1      37.075  12.298  11.579  0.00  0.00     0.001 A 
HETATM   28  C   UNK N   1      36.614  13.340  10.777  0.00  0.00     0.017 A 
ENDBRANCH  21  23
ENDBRANCH  11  13
ENDBRANCH   8  11
BRANCH   4  29
HETATM   29  O   UNK N   1      31.490  12.989   3.243  0.00  0.00    -0.354 OA
HETATM   30  C   UNK N   1      32.489  13.186   2.318  0.00  0.00     0.210 C 
ENDBRANCH   4  29
BRANCH  10  31
HETATM   31  C   UNK N   1      28.935  17.147   6.811  0.00  0.00     0.311 C 
BRANCH  31  32
HETATM   32  O   UNK N   1      29.757  17.648   7.834  0.00  0.00    -0.277 OA
BRANCH  32  33
HETATM   33  P   UNK N   1      28.709  18.162   9.142  0.00  0.00     0.392 P 
HETATM   34  O   UNK N   1      27.986  16.908   9.699  0.00  0.00    -0.632 OA
BRANCH  33  35
HETATM   35  O   UNK N   1      27.470  19.274   8.634  0.00  0.00    -0.307 OA
HETATM   36  H   UNK N   1      27.024  19.989   8.155  0.00  0.00     0.222 HD
ENDBRANCH  33  35
BRANCH  33  37
HETATM   37  O   UNK N   1      29.629  18.837  10.450  0.00  0.00    -0.307 OA
HETATM   38  H   UNK N   1      29.576  19.652  10.974  0.00  0.00     0.222 HD
ENDBRANCH  33  37
ENDBRANCH  32  33
ENDBRANCH  31  32
ENDBRANCH  10  31
BRANCH   1  39
HETATM   39  N   UNK N   1      27.215  16.529   4.057  0.00  0.00    -0.232 N 
HETATM   40  C   UNK N   1      26.078  16.149   4.677  0.00  0.00     0.210 A 
HETATM   41  N   UNK N   1      25.233  17.195   4.765  0.00  0.00    -0.340 N 
HETATM   42  C   UNK N   1      25.912  18.204   4.187  0.00  0.00     0.093 A 
ATOM     43  HN  UNK N   1      24.298  17.217   5.174  1.00  0.00     0.168 HD
HETATM   44  C   UNK N   1      25.404  19.593   4.059  0.00  0.00     0.090 C 
HETATM   45  N   UNK N   1      27.119  17.804   3.762  0.00  0.00    -0.280 N 
ATOM     46  HN  UNK N   1      27.823  18.378   3.299  1.00  0.00     0.189 HD
ENDBRANCH   1  39
TORSDOF 10
ENDMDL
MODEL 7
REMARK VINA RESULT:      -7.9      5.951      9.822
REMARK  10 active torsions:
REMARK  status: ('A' for Active; 'I' for Inactive)
REMARK    1  A    between atoms: N_6  and  C_9 
REMARK    2  A    between atoms: C_12  and  O_16 
REMARK    3  A    between atoms: C_18  and  C_27 
REMARK    4  A    between atoms: N_20  and  C_21 
REMARK    5  A    between atoms: C_21  and  O_22 
REMARK    6  A    between atoms: O_22  and  P_23 
REMARK    7  A    between atoms: P_23  and  O_25 
REMARK    8  A    between atoms: P_23  and  O_26 
REMARK    9  A    between atoms: C_27  and  C_29 
REMARK       I    between atoms: C_29  and  N_31 
REMARK       I    between atoms: N_34  and  C_37 
REMARK   10  A    between atoms: C_37  and  C_39 
ROOT
HETATM    1  C   UNK N   1      31.687  15.309   5.705  0.00  0.00     0.156 A 
HETATM    2  C   UNK N   1      32.126  15.126   7.046  0.00  0.00     0.096 A 
HETATM    3  C   UNK N   1      32.988  14.091   7.313  0.00  0.00     0.045 A 
HETATM    4  C   UNK N   1      33.499  13.242   6.338  0.00  0.00     0.097 A 
HETATM    5  C   UNK N   1      33.086  13.471   5.021  0.00  0.00     0.127 A 
HETATM    6  N   UNK N   1      32.197  14.473   4.747  0.00  0.00    -0.346 N 
ATOM      7  HN  UNK N   1      31.900  14.605   3.781  1.00  0.00     0.167 HD
HETATM    8  C   UNK N   1      33.233  14.112   8.652  0.00  0.00     0.051 A 
HETATM    9  C   UNK N   1      32.571  15.182   9.183  0.00  0.00     0.110 A 
HETATM   10  N   UNK N   1      31.875  15.801   8.209  0.00  0.00    -0.330 N 
ENDROOT
BRANCH   8  11
HETATM   11  C   UNK N   1      34.065  13.197   9.384  0.00  0.00     0.251 C 
HETATM   12  O   UNK N   1      33.641  12.075   9.617  0.00  0.00    -0.281 OA
BRANCH  11  13
HETATM   13  C   UNK N   1      35.343  13.675   9.937  0.00  0.00     0.294 C 
HETATM   14  O   UNK N   1      36.055  14.396   9.251  0.00  0.00    -0.264 OA
HETATM   15  N   UNK N   1      35.734  13.348  11.190  0.00  0.00    -0.342 N 
HETATM   16  C   UNK N   1      36.796  14.105  11.815  0.00  0.00     0.146 C 
HETATM   17  C   UNK N   1      35.065  12.301  11.945  0.00  0.00     0.146 C 
HETATM   18  C   UNK N   1      36.197  14.722  13.084  0.00  0.00     0.146 C 
HETATM   19  N   UNK N   1      35.786  13.578  13.851  0.00  0.00    -0.345 N 
HETATM   20  C   UNK N   1      34.686  12.797  13.326  0.00  0.00     0.146 C 
HETATM   21  C   UNK N   1      36.664  13.104  14.781  0.00  0.00     0.253 C 
HETATM   22  O   UNK N   1      37.474  13.877  15.276  0.00  0.00    -0.267 OA
BRANCH  21  23
HETATM   23  C   UNK N   1      36.832  11.651  15.057  0.00  0.00     0.032 A 
HETATM   24  C   UNK N   1      36.293  11.119  16.234  0.00  0.00     0.017 A 
HETATM   25  C   UNK N   1      36.630   9.830  16.650  0.00  0.00     0.001 A 
HETATM   26  C   UNK N   1      37.544   9.072  15.913  0.00  0.00     0.000 A 
HETATM   27  C   UNK N   1      38.099   9.593  14.744  0.00  0.00     0.001 A 
HETATM   28  C   UNK N   1      37.747  10.874  14.324  0.00  0.00     0.017 A 
ENDBRANCH  21  23
ENDBRANCH  11  13
ENDBRANCH   8  11
BRANCH   4  29
HETATM   29  O   UNK N   1      34.378  12.264   6.669  0.00  0.00    -0.354 OA
HETATM   30  C   UNK N   1      34.341  10.996   6.135  0.00  0.00     0.210 C 
ENDBRANCH   4  29
BRANCH  10  31
HETATM   31  C   UNK N   1      31.108  17.007   8.502  0.00  0.00     0.311 C 
BRANCH  31  32
HETATM   32  O   UNK N   1      29.736  16.789   8.298  0.00  0.00    -0.277 OA
BRANCH  32  33
HETATM   33  P   UNK N   1      28.881  17.583   9.607  0.00  0.00     0.392 P 
HETATM   34  O   UNK N   1      28.594  16.526  10.704  0.00  0.00    -0.632 OA
BRANCH  33  35
HETATM   35  O   UNK N   1      27.344  18.242   9.125  0.00  0.00    -0.307 OA
HETATM   36  H   UNK N   1      26.431  18.565   9.176  0.00  0.00     0.222 HD
ENDBRANCH  33  35
BRANCH  33  37
HETATM   37  O   UNK N   1      29.865  18.815  10.336  0.00  0.00    -0.307 OA
HETATM   38  H   UNK N   1      30.639  18.814  10.920  0.00  0.00     0.222 HD
ENDBRANCH  33  37
ENDBRANCH  32  33
ENDBRANCH  31  32
ENDBRANCH  10  31
BRANCH   1  39
HETATM   39  N   UNK N   1      30.696  16.270   5.306  0.00  0.00    -0.232 N 
HETATM   40  C   UNK N   1      30.971  17.494   4.807  0.00  0.00     0.210 A 
HETATM   41  N   UNK N   1      29.827  18.107   4.441  0.00  0.00    -0.340 N 
HETATM   42  C   UNK N   1      28.872  17.202   4.731  0.00  0.00     0.093 A 
ATOM     43  HN  UNK N   1      29.712  19.037   4.038  1.00  0.00     0.168 HD
HETATM   44  C   UNK N   1      27.424  17.402   4.482  0.00  0.00     0.090 C 
HETATM   45  N   UNK N   1      29.399  16.083   5.251  0.00  0.00    -0.280 N 
ATOM     46  HN  UNK N   1      28.889  15.250   5.547  1.00  0.00     0.189 HD
ENDBRANCH   1  39
TORSDOF 10
ENDMDL
MODEL 8
REMARK VINA RESULT:      -7.9      3.817      8.425
REMARK  10 active torsions:
REMARK  status: ('A' for Active; 'I' for Inactive)
REMARK    1  A    between atoms: N_6  and  C_9 
REMARK    2  A    between atoms: C_12  and  O_16 
REMARK    3  A    between atoms: C_18  and  C_27 
REMARK    4  A    between atoms: N_20  and  C_21 
REMARK    5  A    between atoms: C_21  and  O_22 
REMARK    6  A    between atoms: O_22  and  P_23 
REMARK    7  A    between atoms: P_23  and  O_25 
REMARK    8  A    between atoms: P_23  and  O_26 
REMARK    9  A    between atoms: C_27  and  C_29 
REMARK       I    between atoms: C_29  and  N_31 
REMARK       I    between atoms: N_34  and  C_37 
REMARK   10  A    between atoms: C_37  and  C_39 
ROOT
HETATM    1  C   UNK N   1      29.546  15.073   5.269  0.00  0.00     0.156 A 
HETATM    2  C   UNK N   1      28.451  15.983   5.261  0.00  0.00     0.096 A 
HETATM    3  C   UNK N   1      27.294  15.605   4.627  0.00  0.00     0.045 A 
HETATM    4  C   UNK N   1      27.111  14.361   4.034  0.00  0.00     0.097 A 
HETATM    5  C   UNK N   1      28.187  13.468   4.093  0.00  0.00     0.127 A 
HETATM    6  N   UNK N   1      29.358  13.845   4.687  0.00  0.00    -0.346 N 
ATOM      7  HN  UNK N   1      30.131  13.181   4.700  1.00  0.00     0.167 HD
HETATM    8  C   UNK N   1      26.423  16.644   4.735  0.00  0.00     0.051 A 
HETATM    9  C   UNK N   1      27.025  17.621   5.477  0.00  0.00     0.110 A 
HETATM   10  N   UNK N   1      28.276  17.232   5.790  0.00  0.00    -0.330 N 
ENDROOT
BRANCH   8  11
HETATM   11  C   UNK N   1      25.091  16.704   4.199  0.00  0.00     0.251 C 
HETATM   12  O   UNK N   1      24.931  16.522   3.002  0.00  0.00    -0.281 OA
BRANCH  11  13
HETATM   13  C   UNK N   1      23.980  17.105   5.079  0.00  0.00     0.294 C 
HETATM   14  O   UNK N   1      23.615  18.273   5.080  0.00  0.00    -0.264 OA
HETATM   15  N   UNK N   1      23.351  16.208   5.872  0.00  0.00    -0.342 N 
HETATM   16  C   UNK N   1      22.068  16.553   6.442  0.00  0.00     0.146 C 
HETATM   17  C   UNK N   1      23.901  14.882   6.104  0.00  0.00     0.146 C 
HETATM   18  C   UNK N   1      21.071  15.510   5.924  0.00  0.00     0.146 C 
HETATM   19  N   UNK N   1      21.598  14.268   6.418  0.00  0.00    -0.345 N 
HETATM   20  C   UNK N   1      22.853  13.817   5.855  0.00  0.00     0.146 C 
HETATM   21  C   UNK N   1      21.101  13.808   7.603  0.00  0.00     0.253 C 
HETATM   22  O   UNK N   1      19.968  14.133   7.933  0.00  0.00    -0.267 OA
BRANCH  21  23
HETATM   23  C   UNK N   1      21.947  13.117   8.613  0.00  0.00     0.032 A 
HETATM   24  C   UNK N   1      22.601  11.932   8.252  0.00  0.00     0.017 A 
HETATM   25  C   UNK N   1      23.201  11.129   9.224  0.00  0.00     0.001 A 
HETATM   26  C   UNK N   1      23.120  11.481  10.573  0.00  0.00     0.000 A 
HETATM   27  C   UNK N   1      22.462  12.652  10.949  0.00  0.00     0.001 A 
HETATM   28  C   UNK N   1      21.878  13.459   9.975  0.00  0.00     0.017 A 
ENDBRANCH  21  23
ENDBRANCH  11  13
ENDBRANCH   8  11
BRANCH   4  29
HETATM   29  O   UNK N   1      25.926  14.040   3.457  0.00  0.00    -0.354 OA
HETATM   30  C   UNK N   1      25.806  13.170   2.400  0.00  0.00     0.210 C 
ENDBRANCH   4  29
BRANCH  10  31
HETATM   31  C   UNK N   1      29.127  18.080   6.619  0.00  0.00     0.311 C 
BRANCH  31  32
HETATM   32  O   UNK N   1      29.524  17.402   7.783  0.00  0.00    -0.277 OA
BRANCH  32  33
HETATM   33  P   UNK N   1      28.598  18.066   9.115  0.00  0.00     0.392 P 
HETATM   34  O   UNK N   1      27.784  16.913   9.756  0.00  0.00    -0.632 OA
BRANCH  33  35
HETATM   35  O   UNK N   1      27.452  19.278   8.620  0.00  0.00    -0.307 OA
HETATM   36  H   UNK N   1      26.877  19.816   8.053  0.00  0.00     0.222 HD
ENDBRANCH  33  35
BRANCH  33  37
HETATM   37  O   UNK N   1      29.645  18.693  10.351  0.00  0.00    -0.307 OA
HETATM   38  H   UNK N   1      30.300  19.408  10.394  0.00  0.00     0.222 HD
ENDBRANCH  33  37
ENDBRANCH  32  33
ENDBRANCH  31  32
ENDBRANCH  10  31
BRANCH   1  39
HETATM   39  N   UNK N   1      30.849  15.384   5.787  0.00  0.00    -0.232 N 
HETATM   40  C   UNK N   1      31.549  14.594   6.628  0.00  0.00     0.210 A 
HETATM   41  N   UNK N   1      32.770  15.123   6.844  0.00  0.00    -0.340 N 
HETATM   42  C   UNK N   1      32.769  16.244   6.097  0.00  0.00     0.093 A 
ATOM     43  HN  UNK N   1      33.518  14.760   7.435  1.00  0.00     0.168 HD
HETATM   44  C   UNK N   1      33.919  17.175   5.979  0.00  0.00     0.090 C 
HETATM   45  N   UNK N   1      31.606  16.401   5.449  0.00  0.00    -0.280 N 
ATOM     46  HN  UNK N   1      31.358  17.163   4.817  1.00  0.00     0.189 HD
ENDBRANCH   1  39
TORSDOF 10
ENDMDL
MODEL 9
REMARK VINA RESULT:      -7.6      5.230     11.412
REMARK  10 active torsions:
REMARK  status: ('A' for Active; 'I' for Inactive)
REMARK    1  A    between atoms: N_6  and  C_9 
REMARK    2  A    between atoms: C_12  and  O_16 
REMARK    3  A    between atoms: C_18  and  C_27 
REMARK    4  A    between atoms: N_20  and  C_21 
REMARK    5  A    between atoms: C_21  and  O_22 
REMARK    6  A    between atoms: O_22  and  P_23 
REMARK    7  A    between atoms: P_23  and  O_25 
REMARK    8  A    between atoms: P_23  and  O_26 
REMARK    9  A    between atoms: C_27  and  C_29 
REMARK       I    between atoms: C_29  and  N_31 
REMARK       I    between atoms: N_34  and  C_37 
REMARK   10  A    between atoms: C_37  and  C_39 
ROOT
HETATM    1  C   UNK N   1      34.808  14.051  10.430  0.00  0.00     0.156 A 
HETATM    2  C   UNK N   1      33.965  14.178   9.290  0.00  0.00     0.096 A 
HETATM    3  C   UNK N   1      33.671  15.440   8.836  0.00  0.00     0.045 A 
HETATM    4  C   UNK N   1      34.192  16.601   9.395  0.00  0.00     0.097 A 
HETATM    5  C   UNK N   1      35.053  16.447  10.487  0.00  0.00     0.127 A 
HETATM    6  N   UNK N   1      35.324  15.199  10.974  0.00  0.00    -0.346 N 
ATOM      7  HN  UNK N   1      35.940  15.118  11.781  1.00  0.00     0.167 HD
HETATM    8  C   UNK N   1      32.838  15.295   7.769  0.00  0.00     0.051 A 
HETATM    9  C   UNK N   1      32.674  13.958   7.544  0.00  0.00     0.110 A 
HETATM   10  N   UNK N   1      33.348  13.264   8.482  0.00  0.00    -0.330 N 
ENDROOT
BRANCH   8  11
HETATM   11  C   UNK N   1      32.255  16.352   6.990  0.00  0.00     0.251 C 
HETATM   12  O   UNK N   1      32.925  16.874   6.112  0.00  0.00    -0.281 OA
BRANCH  11  13
HETATM   13  C   UNK N   1      30.920  16.857   7.353  0.00  0.00     0.294 C 
HETATM   14  O   UNK N   1      30.756  17.365   8.455  0.00  0.00    -0.264 OA
HETATM   15  N   UNK N   1      29.881  16.785   6.489  0.00  0.00    -0.342 N 
HETATM   16  C   UNK N   1      28.706  17.591   6.736  0.00  0.00     0.146 C 
HETATM   17  C   UNK N   1      29.949  15.973   5.286  0.00  0.00     0.146 C 
HETATM   18  C   UNK N   1      28.547  18.506   5.516  0.00  0.00     0.146 C 
HETATM   19  N   UNK N   1      28.387  17.585   4.425  0.00  0.00    -0.345 N 
HETATM   20  C   UNK N   1      29.537  16.780   4.072  0.00  0.00     0.146 C 
HETATM   21  C   UNK N   1      27.111  17.270   4.059  0.00  0.00     0.253 C 
HETATM   22  O   UNK N   1      26.218  18.079   4.274  0.00  0.00    -0.267 OA
BRANCH  21  23
HETATM   23  C   UNK N   1      26.719  15.905   3.615  0.00  0.00     0.032 A 
HETATM   24  C   UNK N   1      26.386  15.699   2.271  0.00  0.00     0.017 A 
HETATM   25  C   UNK N   1      25.786  14.506   1.863  0.00  0.00     0.001 A 
HETATM   26  C   UNK N   1      25.474  13.521   2.803  0.00  0.00     0.000 A 
HETATM   27  C   UNK N   1      25.788  13.717   4.148  0.00  0.00     0.001 A 
HETATM   28  C   UNK N   1      26.402  14.901   4.548  0.00  0.00     0.017 A 
ENDBRANCH  21  23
ENDBRANCH  11  13
ENDBRANCH   8  11
BRANCH   4  29
HETATM   29  O   UNK N   1      33.888  17.815   8.870  0.00  0.00    -0.354 OA
HETATM   30  C   UNK N   1      34.823  18.664   8.326  0.00  0.00     0.210 C 
ENDBRANCH   4  29
BRANCH  10  31
HETATM   31  C   UNK N   1      33.373  11.806   8.446  0.00  0.00     0.311 C 
BRANCH  31  32
HETATM   32  O   UNK N   1      32.487  11.267   9.394  0.00  0.00    -0.277 OA
BRANCH  32  33
HETATM   33  P   UNK N   1      32.409   9.538   9.112  0.00  0.00     0.392 P 
HETATM   34  O   UNK N   1      32.662   8.820  10.463  0.00  0.00    -0.632 OA
BRANCH  33  35
HETATM   35  O   UNK N   1      33.621   8.967   8.002  0.00  0.00    -0.307 OA
HETATM   36  H   UNK N   1      34.355   8.970   7.367  0.00  0.00     0.222 HD
ENDBRANCH  33  35
BRANCH  33  37
HETATM   37  O   UNK N   1      30.827   9.065   8.576  0.00  0.00    -0.307 OA
HETATM   38  H   UNK N   1      30.061   8.642   8.996  0.00  0.00     0.222 HD
ENDBRANCH  33  37
ENDBRANCH  32  33
ENDBRANCH  31  32
ENDBRANCH  10  31
BRANCH   1  39
HETATM   39  N   UNK N   1      35.099  12.804  11.082  0.00  0.00    -0.232 N 
HETATM   40  C   UNK N   1      36.308  12.204  11.088  0.00  0.00     0.210 A 
HETATM   41  N   UNK N   1      36.270  11.105  11.867  0.00  0.00    -0.340 N 
HETATM   42  C   UNK N   1      35.004  11.083  12.327  0.00  0.00     0.093 A 
ATOM     43  HN  UNK N   1      37.024  10.446  12.064  1.00  0.00     0.168 HD
HETATM   44  C   UNK N   1      34.469  10.060  13.260  0.00  0.00     0.090 C 
HETATM   45  N   UNK N   1      34.293  12.117  11.856  0.00  0.00    -0.280 N 
ATOM     46  HN  UNK N   1      33.315  12.327  12.060  1.00  0.00     0.189 HD
ENDBRANCH   1  39
TORSDOF 10
ENDMDL
