MODEL 1
REMARK VINA RESULT:      -7.3      0.000      0.000
REMARK  10 active torsions:
REMARK  status: ('A' for Active; 'I' for Inactive)
REMARK    1  A    between atoms: C_2  and  O_3 
REMARK    2  A    between atoms: O_3  and  C_4 
REMARK    3  A    between atoms: C_7  and  C_10 
REMARK    4  A    between atoms: C_10  and  C_11 
REMARK    5  A    between atoms: C_18  and  C_13 
REMARK    6  A    between atoms: C_19  and  O_30 
REMARK    7  A    between atoms: C_20  and  O_29 
REMARK    8  A    between atoms: C_21  and  O_28 
REMARK    9  A    between atoms: C_22  and  C_26 
REMARK   10  A    between atoms: C_26  and  O_27 
ROOT
HETATM    1  C   UNK N   1      21.378  13.534   4.814  0.00  0.00    -0.032 A 
HETATM    2  C   UNK N   1      20.963  14.883   4.723  0.00  0.00     0.022 A 
HETATM    3  C   UNK N   1      21.520  15.752   3.764  0.00  0.00     0.007 A 
HETATM    4  C   UNK N   1      22.494  15.247   2.892  0.00  0.00     0.014 A 
HETATM    5  C   UNK N   1      22.919  13.930   2.972  0.00  0.00     0.025 A 
HETATM    6  C   UNK N   1      22.382  13.064   3.918  0.00  0.00     0.040 A 
HETATM    7 Cl   UNK N   1      23.032  11.429   3.918  0.00  0.00    -0.084 Cl
ENDROOT
BRANCH   3   8
HETATM    8  C   UNK N   1      21.040  17.196   3.605  0.00  0.00     0.223 C 
HETATM    9  C   UNK N   1      19.638  17.253   2.919  0.00  0.00     0.217 C 
HETATM   10  C   UNK N   1      19.132  18.696   2.967  0.00  0.00     0.184 C 
HETATM   11  C   UNK N   1      20.229  19.688   2.552  0.00  0.00     0.188 C 
HETATM   12  C   UNK N   1      21.574  19.275   3.217  0.00  0.00     0.135 C 
HETATM   13  O   UNK N   1      21.924  17.976   2.815  0.00  0.00    -0.330 OA
HETATM   14  C   UNK N   1      21.420  19.112   4.709  0.00  0.00     0.215 C 
HETATM   15  O   UNK N   1      20.956  17.794   4.888  0.00  0.00    -0.346 OA
BRANCH   9  16
HETATM   16  O   UNK N   1      19.737  16.822   1.591  0.00  0.00    -0.387 OA
HETATM   17  H   UNK N   1      19.779  16.854   0.622  0.00  0.00     0.210 HD
ENDBRANCH   9  16
BRANCH  10  18
HETATM   18  O   UNK N   1      17.958  18.861   2.228  0.00  0.00    -0.390 OA
HETATM   19  H   UNK N   1      17.219  18.243   2.339  0.00  0.00     0.210 HD
ENDBRANCH  10  18
BRANCH  11  20
HETATM   20  O   UNK N   1      20.366  19.705   1.160  0.00  0.00    -0.390 OA
HETATM   21  H   UNK N   1      20.798  19.530   0.309  0.00  0.00     0.210 HD
ENDBRANCH  11  20
BRANCH  12  22
HETATM   22  C   UNK N   1      22.643  20.309   2.870  0.00  0.00     0.207 C 
BRANCH  22  23
HETATM   23  O   UNK N   1      22.114  21.599   2.822  0.00  0.00    -0.398 OA
HETATM   24  H   UNK N   1      21.873  21.994   1.970  0.00  0.00     0.209 HD
ENDBRANCH  22  23
ENDBRANCH  12  22
ENDBRANCH   3   8
BRANCH   1  25
HETATM   25  C   UNK N   1      20.736  12.681   5.895  0.00  0.00     0.078 C 
BRANCH  25  26
HETATM   26  C   UNK N   1      21.297  12.799   7.283  0.00  0.00    -0.054 A 
HETATM   27  C   UNK N   1      22.307  11.918   7.691  0.00  0.00     0.010 A 
HETATM   28  C   UNK N   1      22.796  11.963   9.001  0.00  0.00     0.037 A 
HETATM   29  C   UNK N   1      22.275  12.880   9.918  0.00  0.00     0.068 A 
HETATM   30  C   UNK N   1      21.280  13.784   9.499  0.00  0.00     0.037 A 
HETATM   31  C   UNK N   1      20.798  13.748   8.187  0.00  0.00     0.010 A 
BRANCH  29  32
HETATM   32  O   UNK N   1      22.717  12.852  11.197  0.00  0.00    -0.352 OA
BRANCH  32  33
HETATM   33  C   UNK N   1      23.174  11.705  11.809  0.00  0.00     0.171 C 
HETATM   34  C   UNK N   1      23.342  11.964  13.295  0.00  0.00     0.034 C 
ENDBRANCH  32  33
ENDBRANCH  29  32
ENDBRANCH  25  26
ENDBRANCH   1  25
TORSDOF 10
ENDMDL
MODEL 2
REMARK VINA RESULT:      -7.3     11.174     14.212
REMARK  10 active torsions:
REMARK  status: ('A' for Active; 'I' for Inactive)
REMARK    1  A    between atoms: C_2  and  O_3 
REMARK    2  A    between atoms: O_3  and  C_4 
REMARK    3  A    between atoms: C_7  and  C_10 
REMARK    4  A    between atoms: C_10  and  C_11 
REMARK    5  A    between atoms: C_18  and  C_13 
REMARK    6  A    between atoms: C_19  and  O_30 
REMARK    7  A    between atoms: C_20  and  O_29 
REMARK    8  A    between atoms: C_21  and  O_28 
REMARK    9  A    between atoms: C_22  and  C_26 
REMARK   10  A    between atoms: C_26  and  O_27 
ROOT
HETATM    1  C   UNK N   1      32.041  15.784   6.548  0.00  0.00    -0.032 A 
HETATM    2  C   UNK N   1      32.738  15.041   7.528  0.00  0.00     0.022 A 
HETATM    3  C   UNK N   1      34.130  15.180   7.693  0.00  0.00     0.007 A 
HETATM    4  C   UNK N   1      34.813  16.082   6.866  0.00  0.00     0.014 A 
HETATM    5  C   UNK N   1      34.148  16.813   5.894  0.00  0.00     0.025 A 
HETATM    6  C   UNK N   1      32.776  16.679   5.716  0.00  0.00     0.040 A 
HETATM    7 Cl   UNK N   1      32.070  17.652   4.431  0.00  0.00    -0.084 Cl
ENDROOT
BRANCH   3   8
HETATM    8  C   UNK N   1      34.893  14.435   8.791  0.00  0.00     0.223 C 
HETATM    9  C   UNK N   1      34.126  14.488  10.150  0.00  0.00     0.217 C 
HETATM   10  C   UNK N   1      34.836  13.570  11.146  0.00  0.00     0.184 C 
HETATM   11  C   UNK N   1      36.357  13.781  11.116  0.00  0.00     0.188 C 
HETATM   12  C   UNK N   1      36.830  13.900   9.638  0.00  0.00     0.135 C 
HETATM   13  O   UNK N   1      36.183  14.980   9.017  0.00  0.00    -0.330 OA
HETATM   14  C   UNK N   1      36.352  12.731   8.814  0.00  0.00     0.215 C 
HETATM   15  O   UNK N   1      35.053  13.081   8.398  0.00  0.00    -0.346 OA
BRANCH   9  16
HETATM   16  O   UNK N   1      34.106  15.801  10.637  0.00  0.00    -0.387 OA
HETATM   17  H   UNK N   1      33.859  16.735  10.734  0.00  0.00     0.210 HD
ENDBRANCH   9  16
BRANCH  10  18
HETATM   18  O   UNK N   1      34.307  13.689  12.433  0.00  0.00    -0.390 OA
HETATM   19  H   UNK N   1      33.937  12.914  12.884  0.00  0.00     0.210 HD
ENDBRANCH  10  18
BRANCH  11  20
HETATM   20  O   UNK N   1      36.700  14.936  11.825  0.00  0.00    -0.390 OA
HETATM   21  H   UNK N   1      37.240  15.490  12.410  0.00  0.00     0.210 HD
ENDBRANCH  11  20
BRANCH  12  22
HETATM   22  C   UNK N   1      38.352  14.026   9.609  0.00  0.00     0.207 C 
BRANCH  22  23
HETATM   23  O   UNK N   1      38.935  13.489  10.756  0.00  0.00    -0.398 OA
HETATM   24  H   UNK N   1      39.877  13.634  10.936  0.00  0.00     0.209 HD
ENDBRANCH  22  23
ENDBRANCH  12  22
ENDBRANCH   3   8
BRANCH   1  25
HETATM   25  C   UNK N   1      30.545  15.547   6.430  0.00  0.00     0.078 C 
BRANCH  25  26
HETATM   26  C   UNK N   1      29.640  16.689   6.795  0.00  0.00    -0.054 A 
HETATM   27  C   UNK N   1      28.604  17.049   5.923  0.00  0.00     0.010 A 
HETATM   28  C   UNK N   1      27.794  18.153   6.207  0.00  0.00     0.037 A 
HETATM   29  C   UNK N   1      28.016  18.914   7.359  0.00  0.00     0.068 A 
HETATM   30  C   UNK N   1      29.039  18.535   8.249  0.00  0.00     0.037 A 
HETATM   31  C   UNK N   1      29.843  17.424   7.972  0.00  0.00     0.010 A 
BRANCH  29  32
HETATM   32  O   UNK N   1      27.262  20.018   7.572  0.00  0.00    -0.352 OA
BRANCH  32  33
HETATM   33  C   UNK N   1      26.520  20.623   6.580  0.00  0.00     0.171 C 
HETATM   34  C   UNK N   1      27.314  21.778   5.997  0.00  0.00     0.034 C 
ENDBRANCH  32  33
ENDBRANCH  29  32
ENDBRANCH  25  26
ENDBRANCH   1  25
TORSDOF 10
ENDMDL
MODEL 3
REMARK VINA RESULT:      -7.2     14.799     16.910
REMARK  10 active torsions:
REMARK  status: ('A' for Active; 'I' for Inactive)
REMARK    1  A    between atoms: C_2  and  O_3 
REMARK    2  A    between atoms: O_3  and  C_4 
REMARK    3  A    between atoms: C_7  and  C_10 
REMARK    4  A    between atoms: C_10  and  C_11 
REMARK    5  A    between atoms: C_18  and  C_13 
REMARK    6  A    between atoms: C_19  and  O_30 
REMARK    7  A    between atoms: C_20  and  O_29 
REMARK    8  A    between atoms: C_21  and  O_28 
REMARK    9  A    between atoms: C_22  and  C_26 
REMARK   10  A    between atoms: C_26  and  O_27 
ROOT
HETATM    1  C   UNK N   1      26.747  23.430  -6.542  0.00  0.00    -0.032 A 
HETATM    2  C   UNK N   1      27.942  22.993  -5.925  0.00  0.00     0.022 A 
HETATM    3  C   UNK N   1      29.021  22.509  -6.690  0.00  0.00     0.007 A 
HETATM    4  C   UNK N   1      28.888  22.477  -8.085  0.00  0.00     0.014 A 
HETATM    5  C   UNK N   1      27.722  22.893  -8.707  0.00  0.00     0.025 A 
HETATM    6  C   UNK N   1      26.647  23.366  -7.963  0.00  0.00     0.040 A 
HETATM    7 Cl   UNK N   1      25.225  23.839  -8.885  0.00  0.00    -0.084 Cl
ENDROOT
BRANCH   3   8
HETATM    8  C   UNK N   1      30.346  22.093  -6.047  0.00  0.00     0.223 C 
HETATM    9  C   UNK N   1      30.999  20.901  -6.817  0.00  0.00     0.217 C 
HETATM   10  C   UNK N   1      32.400  20.665  -6.249  0.00  0.00     0.184 C 
HETATM   11  C   UNK N   1      32.390  20.672  -4.713  0.00  0.00     0.188 C 
HETATM   12  C   UNK N   1      31.495  21.842  -4.211  0.00  0.00     0.135 C 
HETATM   13  O   UNK N   1      30.188  21.684  -4.698  0.00  0.00    -0.330 OA
HETATM   14  C   UNK N   1      31.907  23.153  -4.832  0.00  0.00     0.215 C 
HETATM   15  O   UNK N   1      31.231  23.202  -6.068  0.00  0.00    -0.346 OA
BRANCH   9  16
HETATM   16  O   UNK N   1      30.218  19.749  -6.665  0.00  0.00    -0.387 OA
HETATM   17  H   UNK N   1      29.876  18.921  -6.292  0.00  0.00     0.210 HD
ENDBRANCH   9  16
BRANCH  10  18
HETATM   18  O   UNK N   1      32.986  19.510  -6.772  0.00  0.00    -0.390 OA
HETATM   19  H   UNK N   1      33.818  19.174  -6.404  0.00  0.00     0.210 HD
ENDBRANCH  10  18
BRANCH  11  20
HETATM   20  O   UNK N   1      31.907  19.454  -4.225  0.00  0.00    -0.390 OA
HETATM   21  H   UNK N   1      31.257  18.851  -3.833  0.00  0.00     0.210 HD
ENDBRANCH  11  20
BRANCH  12  22
HETATM   22  C   UNK N   1      31.554  21.898  -2.685  0.00  0.00     0.207 C 
BRANCH  22  23
HETATM   23  O   UNK N   1      32.687  21.253  -2.190  0.00  0.00    -0.398 OA
HETATM   24  H   UNK N   1      32.637  20.747  -1.365  0.00  0.00     0.209 HD
ENDBRANCH  22  23
ENDBRANCH  12  22
ENDBRANCH   3   8
BRANCH   1  25
HETATM   25  C   UNK N   1      25.631  23.912  -5.632  0.00  0.00     0.078 C 
BRANCH  25  26
HETATM   26  C   UNK N   1      25.777  25.284  -5.037  0.00  0.00    -0.054 A 
HETATM   27  C   UNK N   1      26.433  25.431  -3.808  0.00  0.00     0.010 A 
HETATM   28  C   UNK N   1      26.519  26.688  -3.200  0.00  0.00     0.037 A 
HETATM   29  C   UNK N   1      25.943  27.807  -3.809  0.00  0.00     0.068 A 
HETATM   30  C   UNK N   1      25.309  27.663  -5.057  0.00  0.00     0.037 A 
HETATM   31  C   UNK N   1      25.232  26.409  -5.671  0.00  0.00     0.010 A 
BRANCH  29  32
HETATM   32  O   UNK N   1      25.981  28.997  -3.163  0.00  0.00    -0.352 OA
BRANCH  32  33
HETATM   33  C   UNK N   1      26.384  30.167  -3.769  0.00  0.00     0.171 C 
HETATM   34  C   UNK N   1      27.898  30.180  -3.875  0.00  0.00     0.034 C 
ENDBRANCH  32  33
ENDBRANCH  29  32
ENDBRANCH  25  26
ENDBRANCH   1  25
TORSDOF 10
ENDMDL
MODEL 4
REMARK VINA RESULT:      -7.1     12.837     14.862
REMARK  10 active torsions:
REMARK  status: ('A' for Active; 'I' for Inactive)
REMARK    1  A    between atoms: C_2  and  O_3 
REMARK    2  A    between atoms: O_3  and  C_4 
REMARK    3  A    between atoms: C_7  and  C_10 
REMARK    4  A    between atoms: C_10  and  C_11 
REMARK    5  A    between atoms: C_18  and  C_13 
REMARK    6  A    between atoms: C_19  and  O_30 
REMARK    7  A    between atoms: C_20  and  O_29 
REMARK    8  A    between atoms: C_21  and  O_28 
REMARK    9  A    between atoms: C_22  and  C_26 
REMARK   10  A    between atoms: C_26  and  O_27 
ROOT
HETATM    1  C   UNK N   1      34.567  10.431  10.852  0.00  0.00    -0.032 A 
HETATM    2  C   UNK N   1      34.954  11.755  10.544  0.00  0.00     0.022 A 
HETATM    3  C   UNK N   1      34.253  12.514   9.586  0.00  0.00     0.007 A 
HETATM    4  C   UNK N   1      33.152  11.928   8.946  0.00  0.00     0.014 A 
HETATM    5  C   UNK N   1      32.763  10.628   9.229  0.00  0.00     0.025 A 
HETATM    6  C   UNK N   1      33.451   9.866  10.167  0.00  0.00     0.040 A 
HETATM    7 Cl   UNK N   1      32.860   8.227  10.407  0.00  0.00    -0.084 Cl
ENDROOT
BRANCH   3   8
HETATM    8  C   UNK N   1      34.613  13.971   9.286  0.00  0.00     0.223 C 
HETATM    9  C   UNK N   1      34.603  14.836  10.586  0.00  0.00     0.217 C 
HETATM   10  C   UNK N   1      35.156  16.222  10.252  0.00  0.00     0.184 C 
HETATM   11  C   UNK N   1      34.539  16.775   8.959  0.00  0.00     0.188 C 
HETATM   12  C   UNK N   1      34.482  15.643   7.892  0.00  0.00     0.135 C 
HETATM   13  O   UNK N   1      33.709  14.575   8.374  0.00  0.00    -0.330 OA
HETATM   14  C   UNK N   1      35.832  14.997   7.705  0.00  0.00     0.215 C 
HETATM   15  O   UNK N   1      35.909  14.011   8.709  0.00  0.00    -0.346 OA
BRANCH   9  16
HETATM   16  O   UNK N   1      33.296  14.946  11.077  0.00  0.00    -0.387 OA
HETATM   17  H   UNK N   1      32.362  14.738  11.241  0.00  0.00     0.210 HD
ENDBRANCH   9  16
BRANCH  10  18
HETATM   18  O   UNK N   1      35.026  17.108  11.324  0.00  0.00    -0.390 OA
HETATM   19  H   UNK N   1      34.971  18.063  11.166  0.00  0.00     0.210 HD
ENDBRANCH  10  18
BRANCH  11  20
HETATM   20  O   UNK N   1      33.254  17.268   9.206  0.00  0.00    -0.390 OA
HETATM   21  H   UNK N   1      32.285  17.242   9.239  0.00  0.00     0.210 HD
ENDBRANCH  11  20
BRANCH  12  22
HETATM   22  C   UNK N   1      33.945  16.216   6.582  0.00  0.00     0.207 C 
BRANCH  22  23
HETATM   23  O   UNK N   1      34.420  17.507   6.352  0.00  0.00    -0.398 OA
HETATM   24  H   UNK N   1      35.297  17.640   5.960  0.00  0.00     0.209 HD
ENDBRANCH  22  23
ENDBRANCH  12  22
ENDBRANCH   3   8
BRANCH   1  25
HETATM   25  C   UNK N   1      35.399   9.685  11.881  0.00  0.00     0.078 C 
BRANCH  25  26
HETATM   26  C   UNK N   1      35.327  10.169  13.301  0.00  0.00    -0.054 A 
HETATM   27  C   UNK N   1      34.077  10.276  13.926  0.00  0.00     0.010 A 
HETATM   28  C   UNK N   1      33.978  10.791  15.222  0.00  0.00     0.037 A 
HETATM   29  C   UNK N   1      35.123  11.213  15.903  0.00  0.00     0.068 A 
HETATM   30  C   UNK N   1      36.382  11.080  15.286  0.00  0.00     0.037 A 
HETATM   31  C   UNK N   1      36.483  10.555  13.993  0.00  0.00     0.010 A 
BRANCH  29  32
HETATM   32  O   UNK N   1      34.989  11.773  17.129  0.00  0.00    -0.352 OA
BRANCH  32  33
HETATM   33  C   UNK N   1      35.280  13.094  17.387  0.00  0.00     0.171 C 
HETATM   34  C   UNK N   1      35.124  13.359  18.874  0.00  0.00     0.034 C 
ENDBRANCH  32  33
ENDBRANCH  29  32
ENDBRANCH  25  26
ENDBRANCH   1  25
TORSDOF 10
ENDMDL
MODEL 5
REMARK VINA RESULT:      -7.1     12.493     14.821
REMARK  10 active torsions:
REMARK  status: ('A' for Active; 'I' for Inactive)
REMARK    1  A    between atoms: C_2  and  O_3 
REMARK    2  A    between atoms: O_3  and  C_4 
REMARK    3  A    between atoms: C_7  and  C_10 
REMARK    4  A    between atoms: C_10  and  C_11 
REMARK    5  A    between atoms: C_18  and  C_13 
REMARK    6  A    between atoms: C_19  and  O_30 
REMARK    7  A    between atoms: C_20  and  O_29 
REMARK    8  A    between atoms: C_21  and  O_28 
REMARK    9  A    between atoms: C_22  and  C_26 
REMARK   10  A    between atoms: C_26  and  O_27 
ROOT
HETATM    1  C   UNK N   1      35.406  12.452  11.219  0.00  0.00    -0.032 A 
HETATM    2  C   UNK N   1      34.735  13.419  10.435  0.00  0.00     0.022 A 
HETATM    3  C   UNK N   1      35.451  14.395   9.713  0.00  0.00     0.007 A 
HETATM    4  C   UNK N   1      36.851  14.382   9.784  0.00  0.00     0.014 A 
HETATM    5  C   UNK N   1      37.525  13.449  10.554  0.00  0.00     0.025 A 
HETATM    6  C   UNK N   1      36.830  12.485  11.276  0.00  0.00     0.040 A 
HETATM    7 Cl   UNK N   1      37.815  11.379  12.226  0.00  0.00    -0.084 Cl
ENDROOT
BRANCH   3   8
HETATM    8  C   UNK N   1      34.749  15.408   8.807  0.00  0.00     0.223 C 
HETATM    9  C   UNK N   1      35.162  16.871   9.166  0.00  0.00     0.217 C 
HETATM   10  C   UNK N   1      34.584  17.813   8.109  0.00  0.00     0.184 C 
HETATM   11  C   UNK N   1      33.115  17.483   7.808  0.00  0.00     0.188 C 
HETATM   12  C   UNK N   1      32.945  15.940   7.702  0.00  0.00     0.135 C 
HETATM   13  O   UNK N   1      33.336  15.335   8.908  0.00  0.00    -0.330 OA
HETATM   14  C   UNK N   1      33.925  15.347   6.721  0.00  0.00     0.215 C 
HETATM   15  O   UNK N   1      35.106  15.141   7.460  0.00  0.00    -0.346 OA
BRANCH   9  16
HETATM   16  O   UNK N   1      34.669  17.209  10.432  0.00  0.00    -0.387 OA
HETATM   17  H   UNK N   1      34.501  17.722  11.239  0.00  0.00     0.210 HD
ENDBRANCH   9  16
BRANCH  10  18
HETATM   18  O   UNK N   1      34.770  19.155   8.449  0.00  0.00    -0.390 OA
HETATM   19  H   UNK N   1      34.008  19.715   8.662  0.00  0.00     0.210 HD
ENDBRANCH  10  18
BRANCH  11  20
HETATM   20  O   UNK N   1      32.288  17.990   8.815  0.00  0.00    -0.390 OA
HETATM   21  H   UNK N   1      32.061  18.529   9.589  0.00  0.00     0.210 HD
ENDBRANCH  11  20
BRANCH  12  22
HETATM   22  C   UNK N   1      31.501  15.619   7.321  0.00  0.00     0.207 C 
BRANCH  22  23
HETATM   23  O   UNK N   1      30.975  16.574   6.452  0.00  0.00    -0.398 OA
HETATM   24  H   UNK N   1      31.049  17.518   6.664  0.00  0.00     0.209 HD
ENDBRANCH  22  23
ENDBRANCH  12  22
ENDBRANCH   3   8
BRANCH   1  25
HETATM   25  C   UNK N   1      34.547  11.456  11.979  0.00  0.00     0.078 C 
BRANCH  25  26
HETATM   26  C   UNK N   1      34.612  11.501  13.479  0.00  0.00    -0.054 A 
HETATM   27  C   UNK N   1      34.963  12.699  14.115  0.00  0.00     0.010 A 
HETATM   28  C   UNK N   1      35.100  12.746  15.506  0.00  0.00     0.037 A 
HETATM   29  C   UNK N   1      34.896  11.596  16.274  0.00  0.00     0.068 A 
HETATM   30  C   UNK N   1      34.516  10.399  15.638  0.00  0.00     0.037 A 
HETATM   31  C   UNK N   1      34.368  10.354  14.247  0.00  0.00     0.010 A 
BRANCH  29  32
HETATM   32  O   UNK N   1      35.104  11.655  17.611  0.00  0.00    -0.352 OA
BRANCH  32  33
HETATM   33  C   UNK N   1      35.216  12.842  18.302  0.00  0.00     0.171 C 
HETATM   34  C   UNK N   1      35.227  12.554  19.792  0.00  0.00     0.034 C 
ENDBRANCH  32  33
ENDBRANCH  29  32
ENDBRANCH  25  26
ENDBRANCH   1  25
TORSDOF 10
ENDMDL
MODEL 6
REMARK VINA RESULT:      -7.1      7.817     11.127
REMARK  10 active torsions:
REMARK  status: ('A' for Active; 'I' for Inactive)
REMARK    1  A    between atoms: C_2  and  O_3 
REMARK    2  A    between atoms: O_3  and  C_4 
REMARK    3  A    between atoms: C_7  and  C_10 
REMARK    4  A    between atoms: C_10  and  C_11 
REMARK    5  A    between atoms: C_18  and  C_13 
REMARK    6  A    between atoms: C_19  and  O_30 
REMARK    7  A    between atoms: C_20  and  O_29 
REMARK    8  A    between atoms: C_21  and  O_28 
REMARK    9  A    between atoms: C_22  and  C_26 
REMARK   10  A    between atoms: C_26  and  O_27 
ROOT
HETATM    1  C   UNK N   1      28.058  19.265   5.294  0.00  0.00    -0.032 A 
HETATM    2  C   UNK N   1      29.002  18.231   5.099  0.00  0.00     0.022 A 
HETATM    3  C   UNK N   1      29.587  17.563   6.194  0.00  0.00     0.007 A 
HETATM    4  C   UNK N   1      29.204  17.943   7.488  0.00  0.00     0.014 A 
HETATM    5  C   UNK N   1      28.287  18.961   7.698  0.00  0.00     0.025 A 
HETATM    6  C   UNK N   1      27.709  19.632   6.627  0.00  0.00     0.040 A 
HETATM    7 Cl   UNK N   1      26.579  20.914   7.044  0.00  0.00    -0.084 Cl
ENDROOT
BRANCH   3   8
HETATM    8  C   UNK N   1      30.560  16.397   6.005  0.00  0.00     0.223 C 
HETATM    9  C   UNK N   1      31.610  16.344   7.160  0.00  0.00     0.217 C 
HETATM   10  C   UNK N   1      32.422  15.055   7.019  0.00  0.00     0.184 C 
HETATM   11  C   UNK N   1      32.867  14.830   5.567  0.00  0.00     0.188 C 
HETATM   12  C   UNK N   1      31.684  15.154   4.610  0.00  0.00     0.135 C 
HETATM   13  O   UNK N   1      31.281  16.488   4.787  0.00  0.00    -0.330 OA
HETATM   14  C   UNK N   1      30.440  14.395   4.999  0.00  0.00     0.215 C 
HETATM   15  O   UNK N   1      29.823  15.185   5.989  0.00  0.00    -0.346 OA
BRANCH   9  16
HETATM   16  O   UNK N   1      32.457  17.456   7.088  0.00  0.00    -0.387 OA
HETATM   17  H   UNK N   1      33.205  18.019   6.829  0.00  0.00     0.210 HD
ENDBRANCH   9  16
BRANCH  10  18
HETATM   18  O   UNK N   1      33.491  15.013   7.917  0.00  0.00    -0.390 OA
HETATM   19  H   UNK N   1      34.253  15.601   7.799  0.00  0.00     0.210 HD
ENDBRANCH  10  18
BRANCH  11  20
HETATM   20  O   UNK N   1      33.966  15.641   5.266  0.00  0.00    -0.390 OA
HETATM   21  H   UNK N   1      34.901  15.896   5.247  0.00  0.00     0.210 HD
ENDBRANCH  11  20
BRANCH  12  22
HETATM   22  C   UNK N   1      32.104  14.850   3.173  0.00  0.00     0.207 C 
BRANCH  22  23
HETATM   23  O   UNK N   1      32.903  15.864   2.645  0.00  0.00    -0.398 OA
HETATM   24  H   UNK N   1      32.682  16.260   1.788  0.00  0.00     0.209 HD
ENDBRANCH  22  23
ENDBRANCH  12  22
ENDBRANCH   3   8
BRANCH   1  25
HETATM   25  C   UNK N   1      27.501  19.941   4.052  0.00  0.00     0.078 C 
BRANCH  25  26
HETATM   26  C   UNK N   1      26.031  19.783   3.788  0.00  0.00    -0.054 A 
HETATM   27  C   UNK N   1      25.373  20.727   2.989  0.00  0.00     0.010 A 
HETATM   28  C   UNK N   1      23.992  20.641   2.787  0.00  0.00     0.037 A 
HETATM   29  C   UNK N   1      23.254  19.617   3.388  0.00  0.00     0.068 A 
HETATM   30  C   UNK N   1      23.919  18.652   4.168  0.00  0.00     0.037 A 
HETATM   31  C   UNK N   1      25.302  18.731   4.362  0.00  0.00     0.010 A 
BRANCH  29  32
HETATM   32  O   UNK N   1      21.908  19.600   3.232  0.00  0.00    -0.352 OA
BRANCH  32  33
HETATM   33  C   UNK N   1      21.198  20.668   2.729  0.00  0.00     0.171 C 
HETATM   34  C   UNK N   1      20.740  20.343   1.318  0.00  0.00     0.034 C 
ENDBRANCH  32  33
ENDBRANCH  29  32
ENDBRANCH  25  26
ENDBRANCH   1  25
TORSDOF 10
ENDMDL
MODEL 7
REMARK VINA RESULT:      -6.8      4.752      6.254
REMARK  10 active torsions:
REMARK  status: ('A' for Active; 'I' for Inactive)
REMARK    1  A    between atoms: C_2  and  O_3 
REMARK    2  A    between atoms: O_3  and  C_4 
REMARK    3  A    between atoms: C_7  and  C_10 
REMARK    4  A    between atoms: C_10  and  C_11 
REMARK    5  A    between atoms: C_18  and  C_13 
REMARK    6  A    between atoms: C_19  and  O_30 
REMARK    7  A    between atoms: C_20  and  O_29 
REMARK    8  A    between atoms: C_21  and  O_28 
REMARK    9  A    between atoms: C_22  and  C_26 
REMARK   10  A    between atoms: C_26  and  O_27 
ROOT
HETATM    1  C   UNK N   1      23.657  16.449   3.765  0.00  0.00    -0.032 A 
HETATM    2  C   UNK N   1      24.541  17.188   4.584  0.00  0.00     0.022 A 
HETATM    3  C   UNK N   1      25.938  17.069   4.442  0.00  0.00     0.007 A 
HETATM    4  C   UNK N   1      26.436  16.203   3.459  0.00  0.00     0.014 A 
HETATM    5  C   UNK N   1      25.585  15.463   2.653  0.00  0.00     0.025 A 
HETATM    6  C   UNK N   1      24.206  15.566   2.789  0.00  0.00     0.040 A 
HETATM    7 Cl   UNK N   1      23.250  14.553   1.713  0.00  0.00    -0.084 Cl
ENDROOT
BRANCH   3   8
HETATM    8  C   UNK N   1      26.911  17.909   5.272  0.00  0.00     0.223 C 
HETATM    9  C   UNK N   1      27.748  17.013   6.240  0.00  0.00     0.217 C 
HETATM   10  C   UNK N   1      28.826  17.879   6.893  0.00  0.00     0.184 C 
HETATM   11  C   UNK N   1      28.249  19.213   7.390  0.00  0.00     0.188 C 
HETATM   12  C   UNK N   1      27.285  19.789   6.312  0.00  0.00     0.135 C 
HETATM   13  O   UNK N   1      26.245  18.877   6.068  0.00  0.00    -0.330 OA
HETATM   14  C   UNK N   1      27.956  19.870   4.964  0.00  0.00     0.215 C 
HETATM   15  O   UNK N   1      27.789  18.593   4.394  0.00  0.00    -0.346 OA
BRANCH   9  16
HETATM   16  O   UNK N   1      26.915  16.461   7.222  0.00  0.00    -0.387 OA
HETATM   17  H   UNK N   1      26.414  15.802   7.728  0.00  0.00     0.210 HD
ENDBRANCH   9  16
BRANCH  10  18
HETATM   18  O   UNK N   1      29.511  17.190   7.896  0.00  0.00    -0.390 OA
HETATM   19  H   UNK N   1      30.313  16.686   7.683  0.00  0.00     0.210 HD
ENDBRANCH  10  18
BRANCH  11  20
HETATM   20  O   UNK N   1      27.565  19.026   8.596  0.00  0.00    -0.390 OA
HETATM   21  H   UNK N   1      27.348  19.190   9.527  0.00  0.00     0.210 HD
ENDBRANCH  11  20
BRANCH  12  22
HETATM   22  C   UNK N   1      26.777  21.154   6.773  0.00  0.00     0.207 C 
BRANCH  22  23
HETATM   23  O   UNK N   1      25.927  21.042   7.873  0.00  0.00    -0.398 OA
HETATM   24  H   UNK N   1      26.295  20.907   8.760  0.00  0.00     0.209 HD
ENDBRANCH  22  23
ENDBRANCH  12  22
ENDBRANCH   3   8
BRANCH   1  25
HETATM   25  C   UNK N   1      22.169  16.627   4.010  0.00  0.00     0.078 C 
BRANCH  25  26
HETATM   26  C   UNK N   1      21.573  15.887   5.174  0.00  0.00    -0.054 A 
HETATM   27  C   UNK N   1      21.404  16.551   6.395  0.00  0.00     0.010 A 
HETATM   28  C   UNK N   1      20.918  15.864   7.512  0.00  0.00     0.037 A 
HETATM   29  C   UNK N   1      20.606  14.504   7.422  0.00  0.00     0.068 A 
HETATM   30  C   UNK N   1      20.750  13.843   6.187  0.00  0.00     0.037 A 
HETATM   31  C   UNK N   1      21.225  14.533   5.067  0.00  0.00     0.010 A 
BRANCH  29  32
HETATM   32  O   UNK N   1      20.205  13.848   8.537  0.00  0.00    -0.352 OA
BRANCH  32  33
HETATM   33  C   UNK N   1      20.707  14.122   9.790  0.00  0.00     0.171 C 
HETATM   34  C   UNK N   1      21.860  13.179  10.083  0.00  0.00     0.034 C 
ENDBRANCH  32  33
ENDBRANCH  29  32
ENDBRANCH  25  26
ENDBRANCH   1  25
TORSDOF 10
ENDMDL
MODEL 8
REMARK VINA RESULT:      -6.8     12.410     14.537
REMARK  10 active torsions:
REMARK  status: ('A' for Active; 'I' for Inactive)
REMARK    1  A    between atoms: C_2  and  O_3 
REMARK    2  A    between atoms: O_3  and  C_4 
REMARK    3  A    between atoms: C_7  and  C_10 
REMARK    4  A    between atoms: C_10  and  C_11 
REMARK    5  A    between atoms: C_18  and  C_13 
REMARK    6  A    between atoms: C_19  and  O_30 
REMARK    7  A    between atoms: C_20  and  O_29 
REMARK    8  A    between atoms: C_21  and  O_28 
REMARK    9  A    between atoms: C_22  and  C_26 
REMARK   10  A    between atoms: C_26  and  O_27 
ROOT
HETATM    1  C   UNK N   1      35.787  12.961  10.632  0.00  0.00    -0.032 A 
HETATM    2  C   UNK N   1      35.526  14.132   9.882  0.00  0.00     0.022 A 
HETATM    3  C   UNK N   1      34.465  14.181   8.956  0.00  0.00     0.007 A 
HETATM    4  C   UNK N   1      33.664  13.042   8.799  0.00  0.00     0.014 A 
HETATM    5  C   UNK N   1      33.909  11.884   9.518  0.00  0.00     0.025 A 
HETATM    6  C   UNK N   1      34.958  11.820  10.430  0.00  0.00     0.040 A 
HETATM    7 Cl   UNK N   1      35.164  10.279  11.255  0.00  0.00    -0.084 Cl
ENDROOT
BRANCH   3   8
HETATM    8  C   UNK N   1      34.124  15.457   8.184  0.00  0.00     0.223 C 
HETATM    9  C   UNK N   1      34.789  16.710   8.838  0.00  0.00     0.217 C 
HETATM   10  C   UNK N   1      34.574  17.912   7.917  0.00  0.00     0.184 C 
HETATM   11  C   UNK N   1      33.122  17.986   7.423  0.00  0.00     0.188 C 
HETATM   12  C   UNK N   1      32.641  16.559   7.026  0.00  0.00     0.135 C 
HETATM   13  O   UNK N   1      32.728  15.703   8.135  0.00  0.00    -0.330 OA
HETATM   14  C   UNK N   1      33.593  15.912   6.052  0.00  0.00     0.215 C 
HETATM   15  O   UNK N   1      34.593  15.324   6.852  0.00  0.00    -0.346 OA
BRANCH   9  16
HETATM   16  O   UNK N   1      34.216  16.956  10.091  0.00  0.00    -0.387 OA
HETATM   17  H   UNK N   1      33.786  17.431  10.821  0.00  0.00     0.210 HD
ENDBRANCH   9  16
BRANCH  10  18
HETATM   18  O   UNK N   1      34.996  19.104   8.509  0.00  0.00    -0.390 OA
HETATM   19  H   UNK N   1      35.935  19.248   8.705  0.00  0.00     0.210 HD
ENDBRANCH  10  18
BRANCH  11  20
HETATM   20  O   UNK N   1      32.296  18.511   8.421  0.00  0.00    -0.390 OA
HETATM   21  H   UNK N   1      31.840  18.528   9.277  0.00  0.00     0.210 HD
ENDBRANCH  11  20
BRANCH  12  22
HETATM   22  C   UNK N   1      31.226  16.648   6.457  0.00  0.00     0.207 C 
BRANCH  22  23
HETATM   23  O   UNK N   1      30.277  16.816   7.465  0.00  0.00    -0.398 OA
HETATM   24  H   UNK N   1      29.916  17.697   7.651  0.00  0.00     0.209 HD
ENDBRANCH  22  23
ENDBRANCH  12  22
ENDBRANCH   3   8
BRANCH   1  25
HETATM   25  C   UNK N   1      36.967  12.997  11.588  0.00  0.00     0.078 C 
BRANCH  25  26
HETATM   26  C   UNK N   1      36.670  12.821  13.049  0.00  0.00    -0.054 A 
HETATM   27  C   UNK N   1      37.344  11.827  13.771  0.00  0.00     0.010 A 
HETATM   28  C   UNK N   1      37.033  11.597  15.115  0.00  0.00     0.037 A 
HETATM   29  C   UNK N   1      36.040  12.350  15.749  0.00  0.00     0.068 A 
HETATM   30  C   UNK N   1      35.383  13.367  15.031  0.00  0.00     0.037 A 
HETATM   31  C   UNK N   1      35.701  13.606  13.690  0.00  0.00     0.010 A 
BRANCH  29  32
HETATM   32  O   UNK N   1      35.712  12.057  17.029  0.00  0.00    -0.352 OA
BRANCH  32  33
HETATM   33  C   UNK N   1      35.126  12.967  17.881  0.00  0.00     0.171 C 
HETATM   34  C   UNK N   1      35.281  12.485  19.312  0.00  0.00     0.034 C 
ENDBRANCH  32  33
ENDBRANCH  29  32
ENDBRANCH  25  26
ENDBRANCH   1  25
TORSDOF 10
ENDMDL
MODEL 9
REMARK VINA RESULT:      -6.5     13.272     15.945
REMARK  10 active torsions:
REMARK  status: ('A' for Active; 'I' for Inactive)
REMARK    1  A    between atoms: C_2  and  O_3 
REMARK    2  A    between atoms: O_3  and  C_4 
REMARK    3  A    between atoms: C_7  and  C_10 
REMARK    4  A    between atoms: C_10  and  C_11 
REMARK    5  A    between atoms: C_18  and  C_13 
REMARK    6  A    between atoms: C_19  and  O_30 
REMARK    7  A    between atoms: C_20  and  O_29 
REMARK    8  A    between atoms: C_21  and  O_28 
REMARK    9  A    between atoms: C_22  and  C_26 
REMARK   10  A    between atoms: C_26  and  O_27 
ROOT
HETATM    1  C   UNK N   1      35.349  11.669  13.150  0.00  0.00    -0.032 A 
HETATM    2  C   UNK N   1      34.901  12.510  12.105  0.00  0.00     0.022 A 
HETATM    3  C   UNK N   1      35.809  13.091  11.198  0.00  0.00     0.007 A 
HETATM    4  C   UNK N   1      37.174  12.809  11.349  0.00  0.00     0.014 A 
HETATM    5  C   UNK N   1      37.632  11.994  12.372  0.00  0.00     0.025 A 
HETATM    6  C   UNK N   1      36.747  11.421  13.278  0.00  0.00     0.040 A 
HETATM    7 Cl   UNK N   1      37.471  10.428  14.536  0.00  0.00    -0.084 Cl
ENDROOT
BRANCH   3   8
HETATM    8  C   UNK N   1      35.341  13.950  10.021  0.00  0.00     0.223 C 
HETATM    9  C   UNK N   1      34.719  15.295  10.514  0.00  0.00     0.217 C 
HETATM   10  C   UNK N   1      34.453  16.182   9.298  0.00  0.00     0.184 C 
HETATM   11  C   UNK N   1      33.775  15.394   8.167  0.00  0.00     0.188 C 
HETATM   12  C   UNK N   1      34.462  14.005   8.026  0.00  0.00     0.135 C 
HETATM   13  O   UNK N   1      34.357  13.297   9.234  0.00  0.00    -0.330 OA
HETATM   14  C   UNK N   1      35.956  14.145   7.873  0.00  0.00     0.215 C 
HETATM   15  O   UNK N   1      36.454  14.229   9.188  0.00  0.00    -0.346 OA
BRANCH   9  16
HETATM   16  O   UNK N   1      33.523  15.046  11.199  0.00  0.00    -0.387 OA
HETATM   17  H   UNK N   1      32.645  14.684  11.401  0.00  0.00     0.210 HD
ENDBRANCH   9  16
BRANCH  10  18
HETATM   18  O   UNK N   1      33.745  17.337   9.640  0.00  0.00    -0.390 OA
HETATM   19  H   UNK N   1      33.137  17.332  10.396  0.00  0.00     0.210 HD
ENDBRANCH  10  18
BRANCH  11  20
HETATM   20  O   UNK N   1      32.413  15.232   8.438  0.00  0.00    -0.390 OA
HETATM   21  H   UNK N   1      31.462  15.264   8.252  0.00  0.00     0.210 HD
ENDBRANCH  11  20
BRANCH  12  22
HETATM   22  C   UNK N   1      33.842  13.257   6.848  0.00  0.00     0.207 C 
BRANCH  22  23
HETATM   23  O   UNK N   1      32.722  12.523   7.237  0.00  0.00    -0.398 OA
HETATM   24  H   UNK N   1      31.859  12.958   7.316  0.00  0.00     0.209 HD
ENDBRANCH  22  23
ENDBRANCH  12  22
ENDBRANCH   3   8
BRANCH   1  25
HETATM   25  C   UNK N   1      34.296  11.110  14.091  0.00  0.00     0.078 C 
BRANCH  25  26
HETATM   26  C   UNK N   1      34.584  11.187  15.563  0.00  0.00    -0.054 A 
HETATM   27  C   UNK N   1      34.808  12.437  16.154  0.00  0.00     0.010 A 
HETATM   28  C   UNK N   1      35.148  12.529  17.507  0.00  0.00     0.037 A 
HETATM   29  C   UNK N   1      35.276  11.372  18.282  0.00  0.00     0.068 A 
HETATM   30  C   UNK N   1      35.022  10.117  17.695  0.00  0.00     0.037 A 
HETATM   31  C   UNK N   1      34.672  10.026  16.344  0.00  0.00     0.010 A 
BRANCH  29  32
HETATM   32  O   UNK N   1      35.675  11.487  19.571  0.00  0.00    -0.352 OA
BRANCH  32  33
HETATM   33  C   UNK N   1      35.587  10.454  20.479  0.00  0.00     0.171 C 
HETATM   34  C   UNK N   1      34.205  10.456  21.105  0.00  0.00     0.034 C 
ENDBRANCH  32  33
ENDBRANCH  29  32
ENDBRANCH  25  26
ENDBRANCH   1  25
TORSDOF 10
ENDMDL
