REMARK  5 active torsions:
REMARK  status: ('A' for Active; 'I' for Inactive)
REMARK    1  A    between atoms: C_5  and  O_7 
REMARK    2  A    between atoms: C_11  and  O_27 
REMARK    3  A    between atoms: C_12  and  O_26 
REMARK    4  A    between atoms: C_18  and  O_25 
REMARK    5  A    between atoms: C_19  and  C_22 
REMARK       I    between atoms: C_22  and  N_24 
ROOT
HETATM    1  C   UNK N   1      -4.637  -2.010  -0.305  0.00  0.00     0.003 A 
HETATM    2  C   UNK N   1      -3.359  -1.472  -0.440  0.00  0.00     0.008 A 
HETATM    3  C   UNK N   1      -2.233  -2.287  -0.301  0.00  0.00    -0.041 A 
HETATM    4  C   UNK N   1      -2.381  -3.669  -0.023  0.00  0.00     0.054 A 
HETATM    5  C   UNK N   1      -3.684  -4.204   0.100  0.00  0.00     0.080 A 
HETATM    6  C   UNK N   1      -4.799  -3.369  -0.040  0.00  0.00     0.037 A 
HETATM    7  C   UNK N   1      -1.154  -4.519   0.099  0.00  0.00     0.194 C 
HETATM    8  O   UNK N   1      -1.243  -5.737   0.150  0.00  0.00    -0.287 OA
HETATM    9  C   UNK N   1       0.180  -3.845   0.095  0.00  0.00     0.030 C 
HETATM   10  C   UNK N   1       1.343  -4.512  -0.154  0.00  0.00     0.096 C 
HETATM   11  C   UNK N   1       2.668  -3.758  -0.258  0.00  0.00     0.175 C 
HETATM   12  C   UNK N   1       2.659  -2.498   0.609  0.00  0.00     0.042 C 
HETATM   13  C   UNK N   1       1.486  -1.626   0.210  0.00  0.00     0.018 C 
HETATM   14  C   UNK N   1       0.158  -2.351   0.371  0.00  0.00     0.030 C 
HETATM   15  C   UNK N   1      -0.879  -1.675  -0.506  0.00  0.00     0.049 C 
HETATM   16  C   UNK N   1       3.935  -1.675   0.390  0.00  0.00     0.074 C 
HETATM   17  C   UNK N   1       5.215  -2.473   0.267  0.00  0.00     0.063 C 
HETATM   18  C   UNK N   1       5.218  -3.832   0.165  0.00  0.00     0.110 C 
HETATM   19  C   UNK N   1       3.902  -4.548   0.129  0.00  0.00     0.208 C 
HETATM   20  O   UNK N   1       3.836  -5.743   0.371  0.00  0.00    -0.288 OA
ENDROOT
BRANCH  18  21
HETATM   21  C   UNK N   1       6.502  -4.608   0.079  0.00  0.00     0.255 C 
HETATM   22  O   UNK N   1       7.581  -4.033   0.099  0.00  0.00    -0.268 OA
HETATM   23  N   UNK N   1       6.486  -5.948  -0.061  0.00  0.00    -0.366 N 
HETATM   24  H   UNK N   1       5.632  -6.427  -0.164  0.00  0.00     0.159 HD
HETATM   25  H   UNK N   1       7.332  -6.450  -0.061  0.00  0.00     0.159 HD
ENDBRANCH  18  21
BRANCH  17  26
HETATM   26  O   UNK N   1       6.373  -1.781   0.271  0.00  0.00    -0.364 OA
HETATM   27  H   UNK N   1       7.191  -2.237   0.273  0.00  0.00     0.217 HD
ENDBRANCH  17  26
BRANCH  11  28
HETATM   28  O   UNK N   1       2.817  -3.384  -1.599  0.00  0.00    -0.374 OA
HETATM   29  H   UNK N   1       3.094  -3.344  -2.528  0.00  0.00     0.211 HD
ENDBRANCH  11  28
BRANCH  10  30
HETATM   30  O   UNK N   1       1.315  -5.835  -0.422  0.00  0.00    -0.361 OA
HETATM   31  H   UNK N   1       0.510  -6.278  -0.607  0.00  0.00     0.217 HD
ENDBRANCH  10  30
BRANCH   5  32
HETATM   32  O   UNK N   1      -3.878  -5.509   0.354  0.00  0.00    -0.360 OA
HETATM   33  H   UNK N   1      -4.734  -5.847   0.531  0.00  0.00     0.217 HD
ENDBRANCH   5  32
TORSDOF 5
