REMARK  18 active torsions:
REMARK  status: ('A' for Active; 'I' for Inactive)
REMARK    1  A    between atoms: C_6  and  C_75 
REMARK    2  A    between atoms: C_10  and  C_68 
REMARK    3  A    between atoms: C_14  and  C_60 
REMARK    4  A    between atoms: C_18  and  C_50 
REMARK    5  A    between atoms: C_22  and  C_47 
REMARK    6  A    between atoms: C_27  and  N_31 
REMARK       I    between atoms: N_31  and  C_32 
REMARK    7  A    between atoms: C_32  and  C_34 
REMARK    8  A    between atoms: C_34  and  C_35 
REMARK    9  A    between atoms: C_34  and  N_43 
REMARK   10  A    between atoms: C_35  and  C_36 
REMARK   11  A    between atoms: C_36  and  C_37 
REMARK   12  A    between atoms: C_37  and  N_38 
REMARK       I    between atoms: N_38  and  C_39 
REMARK       I    between atoms: C_39  and  N_42 
REMARK       I    between atoms: N_43  and  C_44 
REMARK       I    between atoms: C_47  and  N_49 
REMARK   13  A    between atoms: C_50  and  C_51 
REMARK   14  A    between atoms: C_60  and  C_61 
REMARK   15  A    between atoms: C_61  and  C_62 
REMARK   16  A    between atoms: C_62  and  N_63 
REMARK       I    between atoms: N_63  and  C_64 
REMARK       I    between atoms: C_64  and  N_67 
REMARK   17  A    between atoms: C_68  and  C_69 
REMARK   18  A    between atoms: C_75  and  C_76 
ROOT
HETATM    1  C   UNK N   1       2.608   0.187   2.064  0.00  0.00     0.042 C 
HETATM    2  C   UNK N   1       2.956  -0.465   0.739  0.00  0.00     0.172 C 
HETATM    3  C   UNK N   1       2.657   0.467  -0.395  0.00  0.00     0.240 C 
HETATM    4  O   UNK N   1       1.494   0.751  -0.644  0.00  0.00    -0.271 OA
HETATM    5  N   UNK N   1       3.630   0.975  -1.183  0.00  0.00    -0.346 N 
HETATM    6  C   UNK N   1       5.049   0.968  -0.896  0.00  0.00     0.182 C 
HETATM    7  C   UNK N   1       5.782  -0.337  -0.872  0.00  0.00     0.241 C 
HETATM    8  O   UNK N   1       5.827  -0.996   0.152  0.00  0.00    -0.271 OA
HETATM    9  N   UNK N   1       6.623  -0.570  -1.908  0.00  0.00    -0.346 N 
HETATM   10  C   UNK N   1       7.861  -1.342  -1.975  0.00  0.00     0.180 C 
HETATM   11  C   UNK N   1       8.313  -2.112  -0.739  0.00  0.00     0.241 C 
HETATM   12  O   UNK N   1       7.537  -2.866  -0.183  0.00  0.00    -0.271 OA
HETATM   13  N   UNK N   1       9.608  -2.016  -0.305  0.00  0.00    -0.346 N 
HETATM   14  C   UNK N   1      10.129  -2.767   0.817  0.00  0.00     0.176 C 
HETATM   15  C   UNK N   1      11.391  -3.553   0.568  0.00  0.00     0.241 C 
HETATM   16  O   UNK N   1      12.437  -3.212   1.095  0.00  0.00    -0.271 OA
HETATM   17  N   UNK N   1      11.396  -4.643  -0.231  0.00  0.00    -0.346 N 
HETATM   18  C   UNK N   1      10.240  -5.172  -0.927  0.00  0.00     0.181 C 
HETATM   19  C   UNK N   1       9.211  -5.759  -0.009  0.00  0.00     0.241 C 
HETATM   20  O   UNK N   1       9.527  -6.583   0.836  0.00  0.00    -0.271 OA
HETATM   21  N   UNK N   1       7.909  -5.450  -0.229  0.00  0.00    -0.345 N 
HETATM   22  C   UNK N   1       6.782  -6.101   0.406  0.00  0.00     0.186 C 
HETATM   23  C   UNK N   1       6.633  -5.870   1.923  0.00  0.00     0.120 C 
HETATM   24  S   UNK N   1       7.320  -4.271   2.486  0.00  0.00    -0.095 SA
HETATM   25  S   UNK N   1       5.590  -2.993   2.696  0.00  0.00    -0.095 SA
HETATM   26  C   UNK N   1       4.366  -3.948   1.765  0.00  0.00     0.120 C 
HETATM   27  C   UNK N   1       3.956  -3.288   0.451  0.00  0.00     0.186 C 
HETATM   28  C   UNK N   1       2.499  -2.869   0.353  0.00  0.00     0.241 C 
HETATM   29  O   UNK N   1       1.653  -3.685   0.043  0.00  0.00    -0.271 OA
HETATM   30  N   UNK N   1       2.097  -1.596   0.534  0.00  0.00    -0.346 N 
HETATM   31  H   UNK N   1       3.348   1.387  -2.031  0.00  0.00     0.163 HD
HETATM   32  H   UNK N   1       6.356  -0.148  -2.756  0.00  0.00     0.163 HD
HETATM   33  H   UNK N   1      10.216  -1.405  -0.781  0.00  0.00     0.163 HD
HETATM   34  H   UNK N   1      12.252  -5.114  -0.349  0.00  0.00     0.163 HD
HETATM   35  H   UNK N   1       7.715  -4.728  -0.869  0.00  0.00     0.163 HD
HETATM   36  H   UNK N   1       1.127  -1.426   0.525  0.00  0.00     0.163 HD
ENDROOT
BRANCH  27  37
HETATM   37  N   UNK N   1       4.368  -4.079  -0.693  0.00  0.00    -0.345 N 
HETATM   38  C   UNK N   1       4.002  -5.354  -1.049  0.00  0.00     0.241 C 
HETATM   39  O   UNK N   1       4.427  -5.780  -2.111  0.00  0.00    -0.271 OA
HETATM   40  H   UNK N   1       5.001  -3.638  -1.304  0.00  0.00     0.163 HD
BRANCH  38  41
HETATM   41  C   UNK N   1       3.072  -6.289  -0.248  0.00  0.00     0.176 C 
BRANCH  41  42
HETATM   42  C   UNK N   1       2.606  -5.968   1.172  0.00  0.00     0.036 C 
BRANCH  42  43
HETATM   43  C   UNK N   1       1.101  -6.015   1.344  0.00  0.00     0.023 C 
BRANCH  43  44
HETATM   44  C   UNK N   1       0.532  -7.418   1.327  0.00  0.00     0.138 C 
BRANCH  44  45
HETATM   45  N   UNK N   1      -0.270  -7.644   0.145  0.00  0.00    -0.227 N 
HETATM   46  C   UNK N   1      -1.347  -6.799  -0.247  0.00  0.00     0.665 C 
HETATM   47  N   UNK N   1      -2.118  -7.164  -1.202  0.00  0.00    -0.235 N 
HETATM   48  N   UNK N   1      -1.550  -5.541   0.367  0.00  0.00    -0.235 N 
HETATM   49  H   UNK N   1      -2.657  -6.791  -1.936  0.00  0.00     0.174 HD
ATOM     50  HN  UNK N   1      -2.202  -8.180  -1.202  1.00  0.00     0.174 HD
HETATM   51  H   UNK N   1      -0.862  -4.982   0.795  0.00  0.00     0.174 HD
HETATM   52  H   UNK N   1      -2.470  -5.191   0.367  0.00  0.00     0.174 HD
HETATM   53  H   UNK N   1      -0.060  -8.423  -0.418  0.00  0.00     0.177 HD
ENDBRANCH  44  45
ENDBRANCH  43  44
ENDBRANCH  42  43
ENDBRANCH  41  42
BRANCH  41  54
HETATM   54  N   UNK N   1       3.408  -7.695  -0.429  0.00  0.00    -0.348 N 
HETATM   55  C   UNK N   1       3.887  -8.525   0.541  0.00  0.00     0.214 C 
HETATM   56  O   UNK N   1       4.100  -8.123   1.676  0.00  0.00    -0.274 OA
HETATM   57  C   UNK N   1       4.186  -9.943   0.208  0.00  0.00     0.117 C 
HETATM   58  H   UNK N   1       3.279  -8.078  -1.326  0.00  0.00     0.163 HD
ENDBRANCH  41  54
ENDBRANCH  38  41
ENDBRANCH  27  37
BRANCH  22  59
HETATM   59  C   UNK N   1       6.759  -7.545  -0.008  0.00  0.00     0.239 C 
HETATM   60  O   UNK N   1       6.439  -7.838  -1.149  0.00  0.00    -0.271 OA
HETATM   61  N   UNK N   1       7.207  -8.506   0.825  0.00  0.00    -0.368 N 
HETATM   62  H   UNK N   1       6.763  -9.140   1.433  0.00  0.00     0.159 HD
HETATM   63  H   UNK N   1       8.188  -8.592   0.825  0.00  0.00     0.159 HD
ENDBRANCH  22  59
BRANCH   6  64
HETATM   64  C   UNK N   1       5.401   1.828   0.313  0.00  0.00     0.093 C 
BRANCH  64  65
HETATM   65  C   UNK N   1       4.777   3.173   0.201  0.00  0.00     0.028 A 
HETATM   66  C   UNK N   1       3.877   3.707   1.084  0.00  0.00     0.114 A 
HETATM   67  N   UNK N   1       3.516   4.915   0.616  0.00  0.00    -0.360 N 
HETATM   68  C   UNK N   1       4.198   5.085  -0.537  0.00  0.00     0.180 A 
ATOM     69  HN  UNK N   1       2.861   5.569   1.044  1.00  0.00     0.166 HD
HETATM   70  N   UNK N   1       4.981   4.025  -0.815  0.00  0.00    -0.354 N 
HETATM   71  H   UNK N   1       5.573   3.902  -1.592  0.00  0.00     0.166 HD
ENDBRANCH  64  65
ENDBRANCH   6  64
BRANCH  18  72
HETATM   72  C   UNK N   1      10.652  -6.205  -1.984  0.00  0.00     0.075 C 
BRANCH  72  73
HETATM   73  C   UNK N   1      11.910  -6.937  -1.644  0.00  0.00    -0.028 A 
HETATM   74  C   UNK N   1      13.192  -6.522  -1.990  0.00  0.00     0.096 A 
HETATM   75  N   UNK N   1      14.101  -7.395  -1.497  0.00  0.00    -0.365 N 
HETATM   76  C   UNK N   1      13.395  -8.346  -0.848  0.00  0.00     0.042 A 
HETATM   77  H   UNK N   1      15.079  -7.346  -1.592  0.00  0.00     0.165 HD
HETATM   78  C   UNK N   1      12.055  -8.092  -0.925  0.00  0.00    -0.002 A 
HETATM   79  C   UNK N   1      13.905  -9.445  -0.174  0.00  0.00     0.030 A 
HETATM   80  C   UNK N   1      11.117  -8.935  -0.325  0.00  0.00     0.014 A 
HETATM   81  C   UNK N   1      11.599 -10.062   0.366  0.00  0.00     0.001 A 
HETATM   82  C   UNK N   1      12.987 -10.316   0.443  0.00  0.00     0.002 A 
ENDBRANCH  72  73
ENDBRANCH  18  72
BRANCH  10  83
HETATM   83  C   UNK N   1       8.940  -0.307  -2.333  0.00  0.00     0.073 C 
BRANCH  83  84
HETATM   84  C   UNK N   1       8.832   0.899  -1.421  0.00  0.00    -0.056 A 
HETATM   85  C   UNK N   1       8.574   2.160  -1.964  0.00  0.00     0.007 A 
HETATM   86  C   UNK N   1       8.404   3.264  -1.121  0.00  0.00     0.001 A 
HETATM   87  C   UNK N   1       8.479   3.109   0.268  0.00  0.00     0.000 A 
HETATM   88  C   UNK N   1       8.718   1.850   0.816  0.00  0.00     0.001 A 
HETATM   89  C   UNK N   1       8.888   0.752  -0.025  0.00  0.00     0.007 A 
ENDBRANCH  83  84
ENDBRANCH  10  83
BRANCH  14  90
HETATM   90  C   UNK N   1       9.806  -2.250   2.223  0.00  0.00     0.036 C 
BRANCH  90  91
HETATM   91  C   UNK N   1      10.623  -1.102   2.834  0.00  0.00     0.023 C 
BRANCH  91  92
HETATM   92  C   UNK N   1      11.898  -0.690   2.118  0.00  0.00     0.138 C 
BRANCH  92  93
HETATM   93  N   UNK N   1      11.660   0.507   1.357  0.00  0.00    -0.227 N 
HETATM   94  C   UNK N   1      12.062   0.620   0.003  0.00  0.00     0.665 C 
HETATM   95  N   UNK N   1      11.828   1.702  -0.639  0.00  0.00    -0.235 N 
HETATM   96  N   UNK N   1      12.753  -0.436  -0.633  0.00  0.00    -0.235 N 
HETATM   97  H   UNK N   1      12.459   2.275  -1.133  0.00  0.00     0.174 HD
ATOM     98  HN  UNK N   1      10.857   2.014  -0.639  1.00  0.00     0.174 HD
HETATM   99  H   UNK N   1      12.357  -1.221  -1.076  0.00  0.00     0.174 HD
HETATM  100  H   UNK N   1      13.736  -0.380  -0.633  0.00  0.00     0.174 HD
HETATM  101  H   UNK N   1      11.205   1.266   1.787  0.00  0.00     0.177 HD
ENDBRANCH  92  93
ENDBRANCH  91  92
ENDBRANCH  90  91
ENDBRANCH  14  90
TORSDOF 18
