MODEL 1
REMARK VINA RESULT:      -7.2      0.000      0.000
REMARK  8 active torsions:
REMARK  status: ('A' for Active; 'I' for Inactive)
REMARK    1  A    between atoms: C_5  and  C_4 
REMARK    2  A    between atoms: O_27  and  C_4 
REMARK    3  A    between atoms: O_29  and  C_5 
REMARK    4  A    between atoms: C_17  and  C_10 
REMARK    5  A    between atoms: N_23  and  C_12 
REMARK    6  A    between atoms: N_23  and  C_15 
REMARK    7  A    between atoms: O_28  and  C_17 
REMARK    8  A    between atoms: N_24  and  O_29 
ROOT
HETATM    1  C   UNK N   1      28.238  17.930   9.432  0.00  0.00     0.157 C 
HETATM    2  C   UNK N   1      31.103  17.709   8.254  0.00  0.00     0.050 A 
HETATM    3  C   UNK N   1      27.833  17.223   7.064  0.00  0.00     0.183 A 
HETATM    4  C   UNK N   1      32.300  17.564   7.510  0.00  0.00     0.049 A 
HETATM    5  C   UNK N   1      29.895  17.482   7.605  0.00  0.00     0.066 A 
HETATM    6  C   UNK N   1      30.964  16.943   5.527  0.00  0.00     0.172 A 
HETATM    7  C   UNK N   1      32.236  17.202   6.120  0.00  0.00     0.088 A 
HETATM    8  C   UNK N   1      29.832  17.108   6.308  0.00  0.00     0.101 A 
HETATM    9  F   UNK N   1      30.822  16.506   4.254  0.00  0.00    -0.201 F 
HETATM   10  N   UNK N   1      28.546  16.933   5.944  0.00  0.00    -0.348 N 
ATOM     11  HN  UNK N   1      28.189  16.646   5.033  1.00  0.00     0.167 HD
HETATM   12  N   UNK N   1      28.650  17.562   8.090  0.00  0.00    -0.345 N 
ENDROOT
BRANCH   4  13
HETATM   13  C   UNK N   1      33.604  17.767   8.205  0.00  0.00     0.172 C 
HETATM   14  N   UNK N   1      33.796  17.262   9.382  0.00  0.00    -0.244 N 
ATOM     15  HN  UNK N   1      33.021  16.776   9.832  1.00  0.00     0.196 HD
BRANCH  14  16
HETATM   16  O   UNK N   1      34.950  17.344  10.032  0.00  0.00    -0.276 OA
BRANCH  16  17
HETATM   17  C   UNK N   1      35.350  16.408  10.965  0.00  0.00     0.227 C 
BRANCH  17  18
HETATM   18  C   UNK N   1      34.723  15.065  10.644  0.00  0.00     0.192 C 
BRANCH  18  19
HETATM   19  O   UNK N   1      33.498  14.953  11.304  0.00  0.00    -0.399 OA
HETATM   20  H   UNK N   1      33.271  15.463  12.096  0.00  0.00     0.209 HD
ENDBRANCH  18  19
ENDBRANCH  17  18
ENDBRANCH  16  17
ENDBRANCH  14  16
BRANCH  13  21
HETATM   21  O   UNK N   1      34.586  18.468   7.602  0.00  0.00    -0.344 OA
HETATM   22  H   UNK N   1      34.472  19.381   7.427  0.00  0.00     0.219 HD
ENDBRANCH  13  21
ENDBRANCH   4  13
BRANCH   7  23
HETATM   23  N   UNK N   1      33.451  17.048   5.384  0.00  0.00    -0.352 N 
HETATM   24  H   UNK N   1      34.066  17.817   5.400  0.00  0.00     0.166 HD
BRANCH  23  25
HETATM   25  C   UNK N   1      33.883  15.920   4.630  0.00  0.00     0.054 A 
HETATM   26  C   UNK N   1      33.528  15.759   3.282  0.00  0.00     0.032 A 
HETATM   27  C   UNK N   1      33.943  14.635   2.567  0.00  0.00     0.021 A 
HETATM   28  C   UNK N   1      34.736  13.670   3.186  0.00  0.00     0.012 A 
HETATM   29  C   UNK N   1      35.133  13.839   4.514  0.00  0.00     0.045 A 
HETATM   30 Br   UNK N   1      35.262  12.114   2.223  0.00  0.00    -0.051 Br
HETATM   31  C   UNK N   1      34.717  14.963   5.236  0.00  0.00     0.062 A 
HETATM   32 Cl   UNK N   1      35.237  15.148   6.902  0.00  0.00    -0.082 Cl
ENDBRANCH  23  25
ENDBRANCH   7  23
TORSDOF 8
ENDMDL
MODEL 2
REMARK VINA RESULT:      -6.8      5.568      9.299
REMARK  8 active torsions:
REMARK  status: ('A' for Active; 'I' for Inactive)
REMARK    1  A    between atoms: C_5  and  C_4 
REMARK    2  A    between atoms: O_27  and  C_4 
REMARK    3  A    between atoms: O_29  and  C_5 
REMARK    4  A    between atoms: C_17  and  C_10 
REMARK    5  A    between atoms: N_23  and  C_12 
REMARK    6  A    between atoms: N_23  and  C_15 
REMARK    7  A    between atoms: O_28  and  C_17 
REMARK    8  A    between atoms: N_24  and  O_29 
ROOT
HETATM    1  C   UNK N   1      38.252  13.724   6.728  0.00  0.00     0.157 C 
HETATM    2  C   UNK N   1      36.383  14.327   9.133  0.00  0.00     0.050 A 
HETATM    3  C   UNK N   1      39.299  12.439   8.605  0.00  0.00     0.183 A 
HETATM    4  C   UNK N   1      35.689  14.479  10.359  0.00  0.00     0.049 A 
HETATM    5  C   UNK N   1      37.531  13.543   9.121  0.00  0.00     0.066 A 
HETATM    6  C   UNK N   1      37.348  13.011  11.453  0.00  0.00     0.172 A 
HETATM    7  C   UNK N   1      36.188  13.835  11.545  0.00  0.00     0.088 A 
HETATM    8  C   UNK N   1      37.983  12.909  10.226  0.00  0.00     0.101 A 
HETATM    9  F   UNK N   1      37.826  12.296  12.498  0.00  0.00    -0.201 F 
HETATM   10  N   UNK N   1      39.091  12.203   9.927  0.00  0.00    -0.348 N 
ATOM     11  HN  UNK N   1      39.648  11.621  10.552  1.00  0.00     0.167 HD
HETATM   12  N   UNK N   1      38.348  13.261   8.099  0.00  0.00    -0.345 N 
ENDROOT
BRANCH   4  13
HETATM   13  C   UNK N   1      34.435  15.286  10.376  0.00  0.00     0.172 C 
HETATM   14  N   UNK N   1      34.324  16.327   9.614  0.00  0.00    -0.244 N 
ATOM     15  HN  UNK N   1      35.129  16.602   9.051  1.00  0.00     0.196 HD
BRANCH  14  16
HETATM   16  O   UNK N   1      33.217  17.053   9.527  0.00  0.00    -0.276 OA
BRANCH  16  17
HETATM   17  C   UNK N   1      32.944  17.873   8.450  0.00  0.00     0.227 C 
BRANCH  17  18
HETATM   18  C   UNK N   1      34.221  18.152   7.682  0.00  0.00     0.192 C 
BRANCH  18  19
HETATM   19  O   UNK N   1      34.996  19.076   8.384  0.00  0.00    -0.399 OA
HETATM   20  H   UNK N   1      34.878  19.262   9.328  0.00  0.00     0.209 HD
ENDBRANCH  18  19
ENDBRANCH  17  18
ENDBRANCH  16  17
ENDBRANCH  14  16
BRANCH  13  21
HETATM   21  O   UNK N   1      33.413  14.925  11.180  0.00  0.00    -0.344 OA
HETATM   22  H   UNK N   1      33.430  15.147  12.090  0.00  0.00     0.219 HD
ENDBRANCH  13  21
ENDBRANCH   4  13
BRANCH   7  23
HETATM   23  N   UNK N   1      35.471  13.988  12.772  0.00  0.00    -0.352 N 
HETATM   24  H   UNK N   1      35.033  14.858  12.911  0.00  0.00     0.166 HD
BRANCH  23  25
HETATM   25  C   UNK N   1      35.314  13.036  13.819  0.00  0.00     0.054 A 
HETATM   26  C   UNK N   1      34.533  11.882  13.651  0.00  0.00     0.032 A 
HETATM   27  C   UNK N   1      34.374  10.972  14.697  0.00  0.00     0.021 A 
HETATM   28  C   UNK N   1      35.011  11.196  15.917  0.00  0.00     0.012 A 
HETATM   29  C   UNK N   1      35.827  12.318  16.083  0.00  0.00     0.045 A 
HETATM   30 Br   UNK N   1      34.756   9.979  17.358  0.00  0.00    -0.051 Br
HETATM   31  C   UNK N   1      35.988  13.233  15.038  0.00  0.00     0.062 A 
HETATM   32 Cl   UNK N   1      37.024  14.630  15.278  0.00  0.00    -0.082 Cl
ENDBRANCH  23  25
ENDBRANCH   7  23
TORSDOF 8
ENDMDL
MODEL 3
REMARK VINA RESULT:      -6.6     11.773     13.226
REMARK  8 active torsions:
REMARK  status: ('A' for Active; 'I' for Inactive)
REMARK    1  A    between atoms: C_5  and  C_4 
REMARK    2  A    between atoms: O_27  and  C_4 
REMARK    3  A    between atoms: O_29  and  C_5 
REMARK    4  A    between atoms: C_17  and  C_10 
REMARK    5  A    between atoms: N_23  and  C_12 
REMARK    6  A    between atoms: N_23  and  C_15 
REMARK    7  A    between atoms: O_28  and  C_17 
REMARK    8  A    between atoms: N_24  and  O_29 
ROOT
HETATM    1  C   UNK N   1      20.406  12.039  11.770  0.00  0.00     0.157 C 
HETATM    2  C   UNK N   1      20.035  14.323   9.698  0.00  0.00     0.050 A 
HETATM    3  C   UNK N   1      22.535  11.972  10.453  0.00  0.00     0.183 A 
HETATM    4  C   UNK N   1      20.073  15.289   8.663  0.00  0.00     0.049 A 
HETATM    5  C   UNK N   1      21.121  13.467   9.838  0.00  0.00     0.066 A 
HETATM    6  C   UNK N   1      22.312  14.471   8.014  0.00  0.00     0.172 A 
HETATM    7  C   UNK N   1      21.213  15.353   7.789  0.00  0.00     0.088 A 
HETATM    8  C   UNK N   1      22.209  13.546   9.040  0.00  0.00     0.101 A 
HETATM    9  F   UNK N   1      23.460  14.530   7.299  0.00  0.00    -0.201 F 
HETATM   10  N   UNK N   1      23.116  12.620   9.409  0.00  0.00    -0.348 N 
ATOM     11  HN  UNK N   1      24.033  12.446   8.999  1.00  0.00     0.167 HD
HETATM   12  N   UNK N   1      21.310  12.482  10.725  0.00  0.00    -0.345 N 
ENDROOT
BRANCH   4  13
HETATM   13  C   UNK N   1      18.931  16.238   8.528  0.00  0.00     0.172 C 
HETATM   14  N   UNK N   1      18.511  16.898   9.560  0.00  0.00    -0.244 N 
ATOM     15  HN  UNK N   1      18.945  16.710  10.463  1.00  0.00     0.196 HD
BRANCH  14  16
HETATM   16  O   UNK N   1      17.546  17.807   9.502  0.00  0.00    -0.276 OA
BRANCH  16  17
HETATM   17  C   UNK N   1      16.996  18.385  10.629  0.00  0.00     0.227 C 
BRANCH  17  18
HETATM   18  C   UNK N   1      18.080  19.076  11.432  0.00  0.00     0.192 C 
BRANCH  18  19
HETATM   19  O   UNK N   1      18.930  19.770  10.568  0.00  0.00    -0.399 OA
HETATM   20  H   UNK N   1      18.614  20.287   9.811  0.00  0.00     0.209 HD
ENDBRANCH  18  19
ENDBRANCH  17  18
ENDBRANCH  16  17
ENDBRANCH  14  16
BRANCH  13  21
HETATM   21  O   UNK N   1      18.342  16.416   7.327  0.00  0.00    -0.344 OA
HETATM   22  H   UNK N   1      17.841  17.190   7.159  0.00  0.00     0.219 HD
ENDBRANCH  13  21
ENDBRANCH   4  13
BRANCH   7  23
HETATM   23  N   UNK N   1      21.243  16.340   6.756  0.00  0.00    -0.352 N 
HETATM   24  H   UNK N   1      21.507  17.247   7.033  0.00  0.00     0.166 HD
BRANCH  23  25
HETATM   25  C   UNK N   1      20.938  16.173   5.375  0.00  0.00     0.054 A 
HETATM   26  C   UNK N   1      20.591  14.921   4.846  0.00  0.00     0.032 A 
HETATM   27  C   UNK N   1      20.316  14.775   3.486  0.00  0.00     0.021 A 
HETATM   28  C   UNK N   1      20.365  15.884   2.643  0.00  0.00     0.012 A 
HETATM   29  C   UNK N   1      20.666  17.145   3.165  0.00  0.00     0.045 A 
HETATM   30 Br   UNK N   1      20.037  15.675   0.779  0.00  0.00    -0.051 Br
HETATM   31  C   UNK N   1      20.944  17.295   4.527  0.00  0.00     0.062 A 
HETATM   32 Cl   UNK N   1      21.314  18.894   5.151  0.00  0.00    -0.082 Cl
ENDBRANCH  23  25
ENDBRANCH   7  23
TORSDOF 8
ENDMDL
MODEL 4
REMARK VINA RESULT:      -6.5     14.773     16.222
REMARK  8 active torsions:
REMARK  status: ('A' for Active; 'I' for Inactive)
REMARK    1  A    between atoms: C_5  and  C_4 
REMARK    2  A    between atoms: O_27  and  C_4 
REMARK    3  A    between atoms: O_29  and  C_5 
REMARK    4  A    between atoms: C_17  and  C_10 
REMARK    5  A    between atoms: N_23  and  C_12 
REMARK    6  A    between atoms: N_23  and  C_15 
REMARK    7  A    between atoms: O_28  and  C_17 
REMARK    8  A    between atoms: N_24  and  O_29 
ROOT
HETATM    1  C   UNK N   1      28.628  29.653  -1.907  0.00  0.00     0.157 C 
HETATM    2  C   UNK N   1      27.604  26.992  -3.139  0.00  0.00     0.050 A 
HETATM    3  C   UNK N   1      26.691  30.380  -3.318  0.00  0.00     0.183 A 
HETATM    4  C   UNK N   1      26.988  25.917  -3.824  0.00  0.00     0.049 A 
HETATM    5  C   UNK N   1      27.106  28.273  -3.344  0.00  0.00     0.066 A 
HETATM    6  C   UNK N   1      25.396  27.509  -4.841  0.00  0.00     0.172 A 
HETATM    7  C   UNK N   1      25.883  26.175  -4.709  0.00  0.00     0.088 A 
HETATM    8  C   UNK N   1      26.047  28.515  -4.148  0.00  0.00     0.101 A 
HETATM    9  F   UNK N   1      24.304  27.822  -5.577  0.00  0.00    -0.201 F 
HETATM   10  N   UNK N   1      25.762  29.833  -4.145  0.00  0.00    -0.348 N 
ATOM     11  HN  UNK N   1      25.015  30.311  -4.648  1.00  0.00     0.167 HD
HETATM   12  N   UNK N   1      27.522  29.433  -2.821  0.00  0.00    -0.345 N 
ENDROOT
BRANCH   4  13
HETATM   13  C   UNK N   1      27.488  24.533  -3.583  0.00  0.00     0.172 C 
HETATM   14  N   UNK N   1      28.644  24.172  -4.043  0.00  0.00    -0.244 N 
ATOM     15  HN  UNK N   1      29.166  24.838  -4.612  1.00  0.00     0.196 HD
BRANCH  14  16
HETATM   16  O   UNK N   1      29.183  22.982  -3.813  0.00  0.00    -0.276 OA
BRANCH  16  17
HETATM   17  C   UNK N   1      30.522  22.715  -4.022  0.00  0.00     0.227 C 
BRANCH  17  18
HETATM   18  C   UNK N   1      31.196  22.407  -2.699  0.00  0.00     0.192 C 
BRANCH  18  19
HETATM   19  O   UNK N   1      30.487  23.015  -1.662  0.00  0.00    -0.399 OA
HETATM   20  H   UNK N   1      30.391  22.623  -0.780  0.00  0.00     0.209 HD
ENDBRANCH  18  19
ENDBRANCH  17  18
ENDBRANCH  16  17
ENDBRANCH  14  16
BRANCH  13  21
HETATM   21  O   UNK N   1      26.741  23.660  -2.876  0.00  0.00    -0.344 OA
HETATM   22  H   UNK N   1      27.144  23.105  -2.238  0.00  0.00     0.219 HD
ENDBRANCH  13  21
ENDBRANCH   4  13
BRANCH   7  23
HETATM   23  N   UNK N   1      25.262  25.079  -5.384  0.00  0.00    -0.352 N 
HETATM   24  H   UNK N   1      24.348  24.855  -5.095  0.00  0.00     0.166 HD
BRANCH  23  25
HETATM   25  C   UNK N   1      25.804  24.269  -6.423  0.00  0.00     0.054 A 
HETATM   26  C   UNK N   1      25.894  22.875  -6.296  0.00  0.00     0.032 A 
HETATM   27  C   UNK N   1      26.448  22.102  -7.316  0.00  0.00     0.021 A 
HETATM   28  C   UNK N   1      26.899  22.712  -8.486  0.00  0.00     0.012 A 
HETATM   29  C   UNK N   1      26.775  24.095  -8.643  0.00  0.00     0.045 A 
HETATM   30 Br   UNK N   1      27.698  21.662  -9.858  0.00  0.00    -0.051 Br
HETATM   31  C   UNK N   1      26.223  24.874  -7.622  0.00  0.00     0.062 A 
HETATM   32 Cl   UNK N   1      26.077  26.608  -7.854  0.00  0.00    -0.082 Cl
ENDBRANCH  23  25
ENDBRANCH   7  23
TORSDOF 8
ENDMDL
MODEL 5
REMARK VINA RESULT:      -6.5      6.077      9.743
REMARK  8 active torsions:
REMARK  status: ('A' for Active; 'I' for Inactive)
REMARK    1  A    between atoms: C_5  and  C_4 
REMARK    2  A    between atoms: O_27  and  C_4 
REMARK    3  A    between atoms: O_29  and  C_5 
REMARK    4  A    between atoms: C_17  and  C_10 
REMARK    5  A    between atoms: N_23  and  C_12 
REMARK    6  A    between atoms: N_23  and  C_15 
REMARK    7  A    between atoms: O_28  and  C_17 
REMARK    8  A    between atoms: N_24  and  O_29 
ROOT
HETATM    1  C   UNK N   1      40.699  12.276   7.670  0.00  0.00     0.157 C 
HETATM    2  C   UNK N   1      38.264  13.323   9.288  0.00  0.00     0.050 A 
HETATM    3  C   UNK N   1      39.982  10.273   8.990  0.00  0.00     0.183 A 
HETATM    4  C   UNK N   1      37.156  13.587  10.130  0.00  0.00     0.049 A 
HETATM    5  C   UNK N   1      38.821  12.050   9.313  0.00  0.00     0.066 A 
HETATM    6  C   UNK N   1      37.240  11.251  10.931  0.00  0.00     0.172 A 
HETATM    7  C   UNK N   1      36.648  12.548  10.985  0.00  0.00     0.088 A 
HETATM    8  C   UNK N   1      38.324  11.062  10.090  0.00  0.00     0.101 A 
HETATM    9  F   UNK N   1      36.763  10.195  11.630  0.00  0.00    -0.201 F 
HETATM   10  N   UNK N   1      39.034   9.931   9.901  0.00  0.00    -0.348 N 
ATOM     11  HN  UNK N   1      38.890   9.023  10.342  1.00  0.00     0.167 HD
HETATM   12  N   UNK N   1      39.862  11.571   8.622  0.00  0.00    -0.345 N 
ENDROOT
BRANCH   4  13
HETATM   13  C   UNK N   1      36.526  14.938  10.084  0.00  0.00     0.172 C 
HETATM   14  N   UNK N   1      35.578  15.182   9.235  0.00  0.00    -0.244 N 
ATOM     15  HN  UNK N   1      35.319  14.448   8.576  1.00  0.00     0.196 HD
BRANCH  14  16
HETATM   16  O   UNK N   1      34.927  16.337   9.181  0.00  0.00    -0.276 OA
BRANCH  16  17
HETATM   17  C   UNK N   1      33.548  16.416   9.150  0.00  0.00     0.227 C 
BRANCH  17  18
HETATM   18  C   UNK N   1      32.949  15.132   9.690  0.00  0.00     0.192 C 
BRANCH  18  19
HETATM   19  O   UNK N   1      33.224  15.026  11.054  0.00  0.00    -0.399 OA
HETATM   20  H   UNK N   1      32.686  15.451  11.740  0.00  0.00     0.209 HD
ENDBRANCH  18  19
ENDBRANCH  17  18
ENDBRANCH  16  17
ENDBRANCH  14  16
BRANCH  13  21
HETATM   21  O   UNK N   1      36.938  15.902  10.933  0.00  0.00    -0.344 OA
HETATM   22  H   UNK N   1      36.847  16.805  10.697  0.00  0.00     0.219 HD
ENDBRANCH  13  21
ENDBRANCH   4  13
BRANCH   7  23
HETATM   23  N   UNK N   1      35.522  12.824  11.821  0.00  0.00    -0.352 N 
HETATM   24  H   UNK N   1      34.697  13.097  11.358  0.00  0.00     0.166 HD
BRANCH  23  25
HETATM   25  C   UNK N   1      35.446  12.754  13.241  0.00  0.00     0.054 A 
HETATM   26  C   UNK N   1      36.056  13.719  14.057  0.00  0.00     0.032 A 
HETATM   27  C   UNK N   1      35.989  13.621  15.447  0.00  0.00     0.021 A 
HETATM   28  C   UNK N   1      35.293  12.566  16.037  0.00  0.00     0.012 A 
HETATM   29  C   UNK N   1      34.644  11.623  15.236  0.00  0.00     0.045 A 
HETATM   30 Br   UNK N   1      35.242  12.406  17.934  0.00  0.00    -0.051 Br
HETATM   31  C   UNK N   1      34.711  11.717  13.843  0.00  0.00     0.062 A 
HETATM   32 Cl   UNK N   1      33.881  10.517  12.866  0.00  0.00    -0.082 Cl
ENDBRANCH  23  25
ENDBRANCH   7  23
TORSDOF 8
ENDMDL
MODEL 6
REMARK VINA RESULT:      -6.4     15.498     16.937
REMARK  8 active torsions:
REMARK  status: ('A' for Active; 'I' for Inactive)
REMARK    1  A    between atoms: C_5  and  C_4 
REMARK    2  A    between atoms: O_27  and  C_4 
REMARK    3  A    between atoms: O_29  and  C_5 
REMARK    4  A    between atoms: C_17  and  C_10 
REMARK    5  A    between atoms: N_23  and  C_12 
REMARK    6  A    between atoms: N_23  and  C_15 
REMARK    7  A    between atoms: O_28  and  C_17 
REMARK    8  A    between atoms: N_24  and  O_29 
ROOT
HETATM    1  C   UNK N   1      29.029  29.304  -2.546  0.00  0.00     0.157 C 
HETATM    2  C   UNK N   1      28.194  26.828  -4.224  0.00  0.00     0.050 A 
HETATM    3  C   UNK N   1      26.683  29.843  -3.238  0.00  0.00     0.183 A 
HETATM    4  C   UNK N   1      27.613  25.820  -5.032  0.00  0.00     0.049 A 
HETATM    5  C   UNK N   1      27.441  27.962  -3.946  0.00  0.00     0.066 A 
HETATM    6  C   UNK N   1      25.549  27.168  -5.188  0.00  0.00     0.172 A 
HETATM    7  C   UNK N   1      26.281  25.998  -5.546  0.00  0.00     0.088 A 
HETATM    8  C   UNK N   1      26.176  28.117  -4.399  0.00  0.00     0.101 A 
HETATM    9  F   UNK N   1      24.259  27.367  -5.549  0.00  0.00    -0.201 F 
HETATM   10  N   UNK N   1      25.675  29.290  -3.962  0.00  0.00    -0.348 N 
ATOM     11  HN  UNK N   1      24.747  29.675  -4.136  1.00  0.00     0.167 HD
HETATM   12  N   UNK N   1      27.772  29.037  -3.221  0.00  0.00    -0.345 N 
ENDROOT
BRANCH   4  13
HETATM   13  C   UNK N   1      28.397  24.581  -5.306  0.00  0.00     0.172 C 
HETATM   14  N   UNK N   1      28.673  23.763  -4.340  0.00  0.00    -0.244 N 
ATOM     15  HN  UNK N   1      28.387  24.017  -3.395  1.00  0.00     0.196 HD
BRANCH  14  16
HETATM   16  O   UNK N   1      29.307  22.610  -4.519  0.00  0.00    -0.276 OA
BRANCH  16  17
HETATM   17  C   UNK N   1      30.183  22.088  -3.588  0.00  0.00     0.227 C 
BRANCH  17  18
HETATM   18  C   UNK N   1      30.767  23.208  -2.749  0.00  0.00     0.192 C 
BRANCH  18  19
HETATM   19  O   UNK N   1      30.495  22.972  -1.401  0.00  0.00    -0.399 OA
HETATM   20  H   UNK N   1      31.180  22.948  -0.716  0.00  0.00     0.209 HD
ENDBRANCH  18  19
ENDBRANCH  17  18
ENDBRANCH  16  17
ENDBRANCH  14  16
BRANCH  13  21
HETATM   21  O   UNK N   1      28.809  24.308  -6.561  0.00  0.00    -0.344 OA
HETATM   22  H   UNK N   1      29.560  24.744  -6.914  0.00  0.00     0.219 HD
ENDBRANCH  13  21
ENDBRANCH   4  13
BRANCH   7  23
HETATM   23  N   UNK N   1      25.703  24.968  -6.351  0.00  0.00    -0.352 N 
HETATM   24  H   UNK N   1      25.228  24.255  -5.865  0.00  0.00     0.166 HD
BRANCH  23  25
HETATM   25  C   UNK N   1      25.731  24.844  -7.769  0.00  0.00     0.054 A 
HETATM   26  C   UNK N   1      25.681  25.969  -8.606  0.00  0.00     0.032 A 
HETATM   27  C   UNK N   1      25.688  25.825  -9.993  0.00  0.00     0.021 A 
HETATM   28  C   UNK N   1      25.766  24.554 -10.561  0.00  0.00     0.012 A 
HETATM   29  C   UNK N   1      25.861  23.428  -9.739  0.00  0.00     0.045 A 
HETATM   30 Br   UNK N   1      25.727  24.356 -12.454  0.00  0.00    -0.051 Br
HETATM   31  C   UNK N   1      25.853  23.568  -8.348  0.00  0.00     0.062 A 
HETATM   32 Cl   UNK N   1      25.978  22.132  -7.345  0.00  0.00    -0.082 Cl
ENDBRANCH  23  25
ENDBRANCH   7  23
TORSDOF 8
ENDMDL
MODEL 7
REMARK VINA RESULT:      -6.3      7.550     10.092
REMARK  8 active torsions:
REMARK  status: ('A' for Active; 'I' for Inactive)
REMARK    1  A    between atoms: C_5  and  C_4 
REMARK    2  A    between atoms: O_27  and  C_4 
REMARK    3  A    between atoms: O_29  and  C_5 
REMARK    4  A    between atoms: C_17  and  C_10 
REMARK    5  A    between atoms: N_23  and  C_12 
REMARK    6  A    between atoms: N_23  and  C_15 
REMARK    7  A    between atoms: O_28  and  C_17 
REMARK    8  A    between atoms: N_24  and  O_29 
ROOT
HETATM    1  C   UNK N   1      18.990  18.955   2.585  0.00  0.00     0.157 C 
HETATM    2  C   UNK N   1      21.371  17.866   4.254  0.00  0.00     0.050 A 
HETATM    3  C   UNK N   1      20.875  20.483   1.963  0.00  0.00     0.183 A 
HETATM    4  C   UNK N   1      22.577  17.556   4.930  0.00  0.00     0.049 A 
HETATM    5  C   UNK N   1      21.365  18.951   3.387  0.00  0.00     0.066 A 
HETATM    6  C   UNK N   1      23.680  19.441   3.777  0.00  0.00     0.172 A 
HETATM    7  C   UNK N   1      23.745  18.367   4.713  0.00  0.00     0.088 A 
HETATM    8  C   UNK N   1      22.469  19.695   3.154  0.00  0.00     0.101 A 
HETATM    9  F   UNK N   1      24.756  20.191   3.443  0.00  0.00    -0.201 F 
HETATM   10  N   UNK N   1      22.190  20.661   2.257  0.00  0.00    -0.348 N 
ATOM     11  HN  UNK N   1      22.822  21.367   1.882  1.00  0.00     0.167 HD
HETATM   12  N   UNK N   1      20.358  19.436   2.650  0.00  0.00    -0.345 N 
ENDROOT
BRANCH   4  13
HETATM   13  C   UNK N   1      22.607  16.370   5.834  0.00  0.00     0.172 C 
HETATM   14  N   UNK N   1      21.856  16.340   6.889  0.00  0.00    -0.244 N 
ATOM     15  HN  UNK N   1      21.293  17.163   7.105  1.00  0.00     0.196 HD
BRANCH  14  16
HETATM   16  O   UNK N   1      21.780  15.294   7.702  0.00  0.00    -0.276 OA
BRANCH  16  17
HETATM   17  C   UNK N   1      20.911  15.243   8.774  0.00  0.00     0.227 C 
BRANCH  17  18
HETATM   18  C   UNK N   1      19.929  16.395   8.693  0.00  0.00     0.192 C 
BRANCH  18  19
HETATM   19  O   UNK N   1      18.955  16.111   7.735  0.00  0.00    -0.399 OA
HETATM   20  H   UNK N   1      19.147  15.663   6.897  0.00  0.00     0.209 HD
ENDBRANCH  18  19
ENDBRANCH  17  18
ENDBRANCH  16  17
ENDBRANCH  14  16
BRANCH  13  21
HETATM   21  O   UNK N   1      23.410  15.325   5.547  0.00  0.00    -0.344 OA
HETATM   22  H   UNK N   1      24.114  15.426   4.937  0.00  0.00     0.219 HD
ENDBRANCH  13  21
ENDBRANCH   4  13
BRANCH   7  23
HETATM   23  N   UNK N   1      24.958  18.036   5.392  0.00  0.00    -0.352 N 
HETATM   24  H   UNK N   1      24.926  18.071   6.376  0.00  0.00     0.166 HD
BRANCH  23  25
HETATM   25  C   UNK N   1      26.208  17.663   4.822  0.00  0.00     0.054 A 
HETATM   26  C   UNK N   1      26.305  16.631   3.877  0.00  0.00     0.032 A 
HETATM   27  C   UNK N   1      27.543  16.266   3.346  0.00  0.00     0.021 A 
HETATM   28  C   UNK N   1      28.696  16.943   3.740  0.00  0.00     0.012 A 
HETATM   29  C   UNK N   1      28.608  18.002   4.648  0.00  0.00     0.045 A 
HETATM   30 Br   UNK N   1      30.390  16.414   3.052  0.00  0.00    -0.051 Br
HETATM   31  C   UNK N   1      27.370  18.369   5.183  0.00  0.00     0.062 A 
HETATM   32 Cl   UNK N   1      27.293  19.707   6.318  0.00  0.00    -0.082 Cl
ENDBRANCH  23  25
ENDBRANCH   7  23
TORSDOF 8
ENDMDL
MODEL 8
REMARK VINA RESULT:      -6.3      4.307      7.253
REMARK  8 active torsions:
REMARK  status: ('A' for Active; 'I' for Inactive)
REMARK    1  A    between atoms: C_5  and  C_4 
REMARK    2  A    between atoms: O_27  and  C_4 
REMARK    3  A    between atoms: O_29  and  C_5 
REMARK    4  A    between atoms: C_17  and  C_10 
REMARK    5  A    between atoms: N_23  and  C_12 
REMARK    6  A    between atoms: N_23  and  C_15 
REMARK    7  A    between atoms: O_28  and  C_17 
REMARK    8  A    between atoms: N_24  and  O_29 
ROOT
HETATM    1  C   UNK N   1      38.700  10.142   9.356  0.00  0.00     0.157 C 
HETATM    2  C   UNK N   1      37.000  12.569  10.288  0.00  0.00     0.050 A 
HETATM    3  C   UNK N   1      38.307  11.417   7.237  0.00  0.00     0.183 A 
HETATM    4  C   UNK N   1      36.212  13.729  10.482  0.00  0.00     0.049 A 
HETATM    5  C   UNK N   1      37.421  12.268   8.999  0.00  0.00     0.066 A 
HETATM    6  C   UNK N   1      36.361  14.205   8.063  0.00  0.00     0.172 A 
HETATM    7  C   UNK N   1      35.862  14.550   9.354  0.00  0.00     0.088 A 
HETATM    8  C   UNK N   1      37.122  13.055   7.941  0.00  0.00     0.101 A 
HETATM    9  F   UNK N   1      36.159  14.975   6.968  0.00  0.00    -0.201 F 
HETATM   10  N   UNK N   1      37.673  12.545   6.821  0.00  0.00    -0.348 N 
ATOM     11  HN  UNK N   1      37.626  12.922   5.875  1.00  0.00     0.167 HD
HETATM   12  N   UNK N   1      38.158  11.236   8.571  0.00  0.00    -0.345 N 
ENDROOT
BRANCH   4  13
HETATM   13  C   UNK N   1      35.787  14.084  11.867  0.00  0.00     0.172 C 
HETATM   14  N   UNK N   1      36.678  14.293  12.784  0.00  0.00    -0.244 N 
ATOM     15  HN  UNK N   1      37.659  14.156  12.545  1.00  0.00     0.196 HD
BRANCH  14  16
HETATM   16  O   UNK N   1      36.378  14.676  14.019  0.00  0.00    -0.276 OA
BRANCH  16  17
HETATM   17  C   UNK N   1      36.837  14.012  15.139  0.00  0.00     0.227 C 
BRANCH  17  18
HETATM   18  C   UNK N   1      35.684  13.306  15.826  0.00  0.00     0.192 C 
BRANCH  18  19
HETATM   19  O   UNK N   1      34.630  13.150  14.925  0.00  0.00    -0.399 OA
HETATM   20  H   UNK N   1      34.696  13.370  13.983  0.00  0.00     0.209 HD
ENDBRANCH  18  19
ENDBRANCH  17  18
ENDBRANCH  16  17
ENDBRANCH  14  16
BRANCH  13  21
HETATM   21  O   UNK N   1      34.475  14.196  12.162  0.00  0.00    -0.344 OA
HETATM   22  H   UNK N   1      33.872  14.494  11.510  0.00  0.00     0.219 HD
ENDBRANCH  13  21
ENDBRANCH   4  13
BRANCH   7  23
HETATM   23  N   UNK N   1      35.075  15.724   9.565  0.00  0.00    -0.352 N 
HETATM   24  H   UNK N   1      35.449  16.389  10.188  0.00  0.00     0.166 HD
BRANCH  23  25
HETATM   25  C   UNK N   1      33.816  16.051   8.987  0.00  0.00     0.054 A 
HETATM   26  C   UNK N   1      32.747  15.143   8.994  0.00  0.00     0.032 A 
HETATM   27  C   UNK N   1      31.527  15.474   8.404  0.00  0.00     0.021 A 
HETATM   28  C   UNK N   1      31.356  16.727   7.816  0.00  0.00     0.012 A 
HETATM   29  C   UNK N   1      32.398  17.658   7.841  0.00  0.00     0.045 A 
HETATM   30 Br   UNK N   1      29.708  17.161   6.969  0.00  0.00    -0.051 Br
HETATM   31  C   UNK N   1      33.623  17.328   8.431  0.00  0.00     0.062 A 
HETATM   32 Cl   UNK N   1      34.910  18.522   8.448  0.00  0.00    -0.082 Cl
ENDBRANCH  23  25
ENDBRANCH   7  23
TORSDOF 8
ENDMDL
MODEL 9
REMARK VINA RESULT:      -6.1      3.608      6.474
REMARK  8 active torsions:
REMARK  status: ('A' for Active; 'I' for Inactive)
REMARK    1  A    between atoms: C_5  and  C_4 
REMARK    2  A    between atoms: O_27  and  C_4 
REMARK    3  A    between atoms: O_29  and  C_5 
REMARK    4  A    between atoms: C_17  and  C_10 
REMARK    5  A    between atoms: N_23  and  C_12 
REMARK    6  A    between atoms: N_23  and  C_15 
REMARK    7  A    between atoms: O_28  and  C_17 
REMARK    8  A    between atoms: N_24  and  O_29 
ROOT
HETATM    1  C   UNK N   1      36.616  13.929  10.572  0.00  0.00     0.157 C 
HETATM    2  C   UNK N   1      35.104  14.682   7.966  0.00  0.00     0.050 A 
HETATM    3  C   UNK N   1      35.725  16.216  11.065  0.00  0.00     0.183 A 
HETATM    4  C   UNK N   1      34.382  15.236   6.881  0.00  0.00     0.049 A 
HETATM    5  C   UNK N   1      35.255  15.448   9.116  0.00  0.00     0.066 A 
HETATM    6  C   UNK N   1      33.995  17.279   8.216  0.00  0.00     0.172 A 
HETATM    7  C   UNK N   1      33.839  16.564   6.991  0.00  0.00     0.088 A 
HETATM    8  C   UNK N   1      34.716  16.682   9.235  0.00  0.00     0.101 A 
HETATM    9  F   UNK N   1      33.434  18.491   8.434  0.00  0.00    -0.201 F 
HETATM   10  N   UNK N   1      34.992  17.185  10.455  0.00  0.00    -0.348 N 
ATOM     11  HN  UNK N   1      34.714  18.089  10.835  1.00  0.00     0.167 HD
HETATM   12  N   UNK N   1      35.893  15.146  10.253  0.00  0.00    -0.345 N 
ENDROOT
BRANCH   4  13
HETATM   13  C   UNK N   1      34.181  14.409   5.657  0.00  0.00     0.172 C 
HETATM   14  N   UNK N   1      35.205  13.974   4.993  0.00  0.00    -0.244 N 
ATOM     15  HN  UNK N   1      36.136  14.257   5.301  1.00  0.00     0.196 HD
BRANCH  14  16
HETATM   16  O   UNK N   1      35.105  13.180   3.935  0.00  0.00    -0.276 OA
BRANCH  16  17
HETATM   17  C   UNK N   1      35.721  13.459   2.730  0.00  0.00     0.227 C 
BRANCH  17  18
HETATM   18  C   UNK N   1      34.673  13.654   1.652  0.00  0.00     0.192 C 
BRANCH  18  19
HETATM   19  O   UNK N   1      33.572  14.325   2.187  0.00  0.00    -0.399 OA
HETATM   20  H   UNK N   1      32.972  14.871   1.656  0.00  0.00     0.209 HD
ENDBRANCH  18  19
ENDBRANCH  17  18
ENDBRANCH  16  17
ENDBRANCH  14  16
BRANCH  13  21
HETATM   21  O   UNK N   1      32.932  14.106   5.246  0.00  0.00    -0.344 OA
HETATM   22  H   UNK N   1      32.387  14.770   4.871  0.00  0.00     0.219 HD
ENDBRANCH  13  21
ENDBRANCH   4  13
BRANCH   7  23
HETATM   23  N   UNK N   1      33.103  17.107   5.893  0.00  0.00    -0.352 N 
HETATM   24  H   UNK N   1      33.638  17.502   5.167  0.00  0.00     0.166 HD
BRANCH  23  25
HETATM   25  C   UNK N   1      31.690  17.148   5.720  0.00  0.00     0.054 A 
HETATM   26  C   UNK N   1      30.816  17.171   6.818  0.00  0.00     0.032 A 
HETATM   27  C   UNK N   1      29.434  17.190   6.627  0.00  0.00     0.021 A 
HETATM   28  C   UNK N   1      28.910  17.206   5.335  0.00  0.00     0.012 A 
HETATM   29  C   UNK N   1      29.770  17.228   4.234  0.00  0.00     0.045 A 
HETATM   30 Br   UNK N   1      27.025  17.183   5.075  0.00  0.00    -0.051 Br
HETATM   31  C   UNK N   1      31.155  17.207   4.421  0.00  0.00     0.062 A 
HETATM   32 Cl   UNK N   1      32.207  17.240   3.015  0.00  0.00    -0.082 Cl
ENDBRANCH  23  25
ENDBRANCH   7  23
TORSDOF 8
ENDMDL
