MODEL 1
REMARK VINA RESULT:      -6.2      0.000      0.000
REMARK  22 active torsions:
REMARK  status: ('A' for Active; 'I' for Inactive)
REMARK    1  A    between atoms: C_4  and  C_7 
REMARK    2  A    between atoms: C_7  and  C_8 
REMARK    3  A    between atoms: C_8  and  C_9 
REMARK    4  A    between atoms: C_9  and  C_10 
REMARK    5  A    between atoms: C_9  and  O_36 
REMARK    6  A    between atoms: C_10  and  C_11 
REMARK    7  A    between atoms: C_12  and  C_11 
REMARK    8  A    between atoms: C_13  and  O_35 
REMARK    9  A    between atoms: C_15  and  O_34 
REMARK   10  A    between atoms: C_16  and  C_17 
REMARK   11  A    between atoms: C_17  and  C_18 
REMARK   12  A    between atoms: C_19  and  C_20 
REMARK   13  A    between atoms: C_20  and  C_21 
REMARK   14  A    between atoms: C_21  and  C_22 
REMARK   15  A    between atoms: C_22  and  C_23 
REMARK   16  A    between atoms: C_23  and  O_25 
REMARK   17  A    between atoms: O_25  and  C_26 
REMARK   18  A    between atoms: C_26  and  C_27 
REMARK   19  A    between atoms: C_27  and  C_28 
REMARK   20  A    between atoms: C_28  and  C_29 
REMARK   21  A    between atoms: C_29  and  O_30 
REMARK   22  A    between atoms: O_30  and  N_31 
ROOT
HETATM    1  C   UNK N   1      22.159  12.232   9.976  0.00  0.00     0.021 C 
HETATM    2  C   UNK N   1      21.821  12.493  11.424  0.00  0.00     0.125 C 
HETATM    3  C   UNK N   1      23.071  12.041  12.179  0.00  0.00     0.064 C 
HETATM    4  C   UNK N   1      24.155  11.920  11.111  0.00  0.00     0.125 C 
HETATM    5  C   UNK N   1      23.594  12.688   9.938  0.00  0.00     0.024 C 
ENDROOT
BRANCH   5   6
HETATM    6  C   UNK N   1      24.296  12.374   8.633  0.00  0.00     0.034 C 
BRANCH   6   7
HETATM    7  C   UNK N   1      24.869  13.639   8.067  0.00  0.00    -0.030 C 
HETATM    8  C   UNK N   1      24.479  14.137   6.891  0.00  0.00    -0.031 C 
BRANCH   8   9
HETATM    9  C   UNK N   1      23.405  13.488   6.078  0.00  0.00     0.027 C 
BRANCH   9  10
HETATM   10  C   UNK N   1      23.903  13.233   4.670  0.00  0.00     0.013 C 
BRANCH  10  11
HETATM   11  C   UNK N   1      22.787  13.506   3.674  0.00  0.00     0.111 C 
BRANCH  11  12
HETATM   12  C   UNK N   1      23.043  14.770   2.917  0.00  0.00     0.258 C 
HETATM   13  O   UNK N   1      22.607  14.904   1.785  0.00  0.00    -0.265 OA
BRANCH  12  14
HETATM   14  O   UNK N   1      23.750  15.764   3.504  0.00  0.00    -0.321 OA
BRANCH  14  15
HETATM   15  C   UNK N   1      25.020  16.103   3.095  0.00  0.00     0.178 C 
BRANCH  15  16
HETATM   16  C   UNK N   1      25.845  16.575   4.274  0.00  0.00     0.029 C 
BRANCH  16  17
HETATM   17  C   UNK N   1      25.247  17.847   4.851  0.00  0.00     0.031 C 
BRANCH  17  18
HETATM   18  C   UNK N   1      25.390  18.977   3.848  0.00  0.00     0.208 C 
BRANCH  18  19
HETATM   19  O   UNK N   1      24.242  19.738   3.831  0.00  0.00    -0.221 OA
BRANCH  19  20
HETATM   20  N   UNK N   1      24.021  20.640   2.892  0.00  0.00     0.004 N 
HETATM   21  O   UNK N   1      24.884  20.902   2.110  0.00  0.00    -0.511 OA
HETATM   22  O   UNK N   1      22.881  21.300   2.846  0.00  0.00    -0.511 OA
ENDBRANCH  19  20
ENDBRANCH  18  19
ENDBRANCH  17  18
ENDBRANCH  16  17
ENDBRANCH  15  16
ENDBRANCH  14  15
ENDBRANCH  12  14
ENDBRANCH  11  12
ENDBRANCH  10  11
ENDBRANCH   9  10
ENDBRANCH   8   9
ENDBRANCH   6   7
ENDBRANCH   5   6
BRANCH   4  23
HETATM   23  O   UNK N   1      25.359  12.475  11.547  0.00  0.00    -0.395 OA
HETATM   24  H   UNK N   1      25.598  13.306  11.986  0.00  0.00     0.210 HD
ENDBRANCH   4  23
BRANCH   1  25
HETATM   25  C   UNK N   1      21.251  12.935   8.981  0.00  0.00     0.010 C 
BRANCH  25  26
HETATM   26  C   UNK N   1      21.051  14.366   9.464  0.00  0.00     0.032 C 
BRANCH  26  27
HETATM   27  C   UNK N   1      19.977  15.115   8.688  0.00  0.00     0.118 C 
BRANCH  27  28
HETATM   28  C   UNK N   1      20.485  16.464   8.216  0.00  0.00     0.036 C 
BRANCH  28  29
HETATM   29  C   UNK N   1      21.603  16.300   7.202  0.00  0.00     0.041 C 
BRANCH  29  30
HETATM   30  C   UNK N   1      21.117  16.649   5.841  0.00  0.00    -0.058 A 
HETATM   31  C   UNK N   1      20.225  15.792   5.188  0.00  0.00     0.007 A 
HETATM   32  C   UNK N   1      19.765  16.105   3.906  0.00  0.00     0.001 A 
HETATM   33  C   UNK N   1      20.194  17.277   3.276  0.00  0.00     0.000 A 
HETATM   34  C   UNK N   1      21.082  18.137   3.928  0.00  0.00     0.001 A 
HETATM   35  C   UNK N   1      21.544  17.826   5.210  0.00  0.00     0.007 A 
ENDBRANCH  29  30
ENDBRANCH  28  29
ENDBRANCH  27  28
BRANCH  27  36
HETATM   36  O   UNK N   1      18.888  15.320   9.533  0.00  0.00    -0.396 OA
HETATM   37  H   UNK N   1      18.462  14.737  10.182  0.00  0.00     0.210 HD
ENDBRANCH  27  36
ENDBRANCH  26  27
ENDBRANCH  25  26
ENDBRANCH   1  25
BRANCH   2  38
HETATM   38  O   UNK N   1      20.706  11.755  11.816  0.00  0.00    -0.395 OA
HETATM   39  H   UNK N   1      19.754  11.940  11.854  0.00  0.00     0.210 HD
ENDBRANCH   2  38
TORSDOF 22
ENDMDL
MODEL 2
REMARK VINA RESULT:      -6.1      4.232      8.121
REMARK  22 active torsions:
REMARK  status: ('A' for Active; 'I' for Inactive)
REMARK    1  A    between atoms: C_4  and  C_7 
REMARK    2  A    between atoms: C_7  and  C_8 
REMARK    3  A    between atoms: C_8  and  C_9 
REMARK    4  A    between atoms: C_9  and  C_10 
REMARK    5  A    between atoms: C_9  and  O_36 
REMARK    6  A    between atoms: C_10  and  C_11 
REMARK    7  A    between atoms: C_12  and  C_11 
REMARK    8  A    between atoms: C_13  and  O_35 
REMARK    9  A    between atoms: C_15  and  O_34 
REMARK   10  A    between atoms: C_16  and  C_17 
REMARK   11  A    between atoms: C_17  and  C_18 
REMARK   12  A    between atoms: C_19  and  C_20 
REMARK   13  A    between atoms: C_20  and  C_21 
REMARK   14  A    between atoms: C_21  and  C_22 
REMARK   15  A    between atoms: C_22  and  C_23 
REMARK   16  A    between atoms: C_23  and  O_25 
REMARK   17  A    between atoms: O_25  and  C_26 
REMARK   18  A    between atoms: C_26  and  C_27 
REMARK   19  A    between atoms: C_27  and  C_28 
REMARK   20  A    between atoms: C_28  and  C_29 
REMARK   21  A    between atoms: C_29  and  O_30 
REMARK   22  A    between atoms: O_30  and  N_31 
ROOT
HETATM    1  C   UNK N   1      30.205  17.488   7.213  0.00  0.00     0.021 C 
HETATM    2  C   UNK N   1      30.739  17.414   8.624  0.00  0.00     0.125 C 
HETATM    3  C   UNK N   1      29.789  18.308   9.422  0.00  0.00     0.064 C 
HETATM    4  C   UNK N   1      28.581  18.513   8.511  0.00  0.00     0.125 C 
HETATM    5  C   UNK N   1      28.722  17.425   7.473  0.00  0.00     0.024 C 
ENDROOT
BRANCH   5   6
HETATM    6  C   UNK N   1      27.880  17.671   6.238  0.00  0.00     0.034 C 
BRANCH   6   7
HETATM    7  C   UNK N   1      28.498  18.776   5.434  0.00  0.00    -0.030 C 
HETATM    8  C   UNK N   1      27.765  19.674   4.771  0.00  0.00    -0.031 C 
BRANCH   8   9
HETATM    9  C   UNK N   1      26.271  19.666   4.826  0.00  0.00     0.027 C 
BRANCH   9  10
HETATM   10  C   UNK N   1      25.706  19.273   3.476  0.00  0.00     0.013 C 
BRANCH  10  11
HETATM   11  C   UNK N   1      24.981  20.459   2.859  0.00  0.00     0.111 C 
BRANCH  11  12
HETATM   12  C   UNK N   1      23.512  20.387   3.128  0.00  0.00     0.258 C 
HETATM   13  O   UNK N   1      22.764  21.238   2.672  0.00  0.00    -0.265 OA
BRANCH  12  14
HETATM   14  O   UNK N   1      23.021  19.367   3.870  0.00  0.00    -0.321 OA
BRANCH  14  15
HETATM   15  C   UNK N   1      21.880  18.683   3.516  0.00  0.00     0.178 C 
BRANCH  15  16
HETATM   16  C   UNK N   1      22.003  17.222   3.895  0.00  0.00     0.029 C 
BRANCH  16  17
HETATM   17  C   UNK N   1      20.627  16.581   3.950  0.00  0.00     0.031 C 
BRANCH  17  18
HETATM   18  C   UNK N   1      20.329  16.138   5.370  0.00  0.00     0.208 C 
BRANCH  18  19
HETATM   19  O   UNK N   1      21.277  16.648   6.230  0.00  0.00    -0.221 OA
BRANCH  19  20
HETATM   20  N   UNK N   1      20.951  17.463   7.217  0.00  0.00     0.004 N 
HETATM   21  O   UNK N   1      20.623  17.011   8.272  0.00  0.00    -0.511 OA
HETATM   22  O   UNK N   1      20.922  18.767   7.032  0.00  0.00    -0.511 OA
ENDBRANCH  19  20
ENDBRANCH  18  19
ENDBRANCH  17  18
ENDBRANCH  16  17
ENDBRANCH  15  16
ENDBRANCH  14  15
ENDBRANCH  12  14
ENDBRANCH  11  12
ENDBRANCH  10  11
ENDBRANCH   9  10
ENDBRANCH   8   9
ENDBRANCH   6   7
ENDBRANCH   5   6
BRANCH   4  23
HETATM   23  O   UNK N   1      27.386  18.383   9.218  0.00  0.00    -0.395 OA
HETATM   24  H   UNK N   1      26.888  18.965   9.812  0.00  0.00     0.210 HD
ENDBRANCH   4  23
BRANCH   1  25
HETATM   25  C   UNK N   1      30.726  16.402   6.287  0.00  0.00     0.010 C 
BRANCH  25  26
HETATM   26  C   UNK N   1      31.600  17.069   5.232  0.00  0.00     0.032 C 
BRANCH  26  27
HETATM   27  C   UNK N   1      31.622  16.315   3.910  0.00  0.00     0.118 C 
BRANCH  27  28
HETATM   28  C   UNK N   1      30.298  16.451   3.182  0.00  0.00     0.036 C 
BRANCH  28  29
HETATM   29  C   UNK N   1      29.656  15.093   2.962  0.00  0.00     0.041 C 
BRANCH  29  30
HETATM   30  C   UNK N   1      28.306  15.056   3.585  0.00  0.00    -0.058 A 
HETATM   31  C   UNK N   1      27.272  15.818   3.031  0.00  0.00     0.007 A 
HETATM   32  C   UNK N   1      25.999  15.797   3.609  0.00  0.00     0.001 A 
HETATM   33  C   UNK N   1      25.759  15.013   4.742  0.00  0.00     0.000 A 
HETATM   34  C   UNK N   1      26.791  14.248   5.295  0.00  0.00     0.001 A 
HETATM   35  C   UNK N   1      28.063  14.268   4.718  0.00  0.00     0.007 A 
ENDBRANCH  29  30
ENDBRANCH  28  29
ENDBRANCH  27  28
BRANCH  27  36
HETATM   36  O   UNK N   1      31.845  14.966   4.178  0.00  0.00    -0.396 OA
HETATM   37  H   UNK N   1      32.209  14.256   3.626  0.00  0.00     0.210 HD
ENDBRANCH  27  36
ENDBRANCH  26  27
ENDBRANCH  25  26
ENDBRANCH   1  25
BRANCH   2  38
HETATM   38  O   UNK N   1      32.046  17.892   8.688  0.00  0.00    -0.395 OA
HETATM   39  H   UNK N   1      32.577  18.479   8.126  0.00  0.00     0.210 HD
ENDBRANCH   2  38
TORSDOF 22
ENDMDL
MODEL 3
REMARK VINA RESULT:      -6.1      1.984      4.307
REMARK  22 active torsions:
REMARK  status: ('A' for Active; 'I' for Inactive)
REMARK    1  A    between atoms: C_4  and  C_7 
REMARK    2  A    between atoms: C_7  and  C_8 
REMARK    3  A    between atoms: C_8  and  C_9 
REMARK    4  A    between atoms: C_9  and  C_10 
REMARK    5  A    between atoms: C_9  and  O_36 
REMARK    6  A    between atoms: C_10  and  C_11 
REMARK    7  A    between atoms: C_12  and  C_11 
REMARK    8  A    between atoms: C_13  and  O_35 
REMARK    9  A    between atoms: C_15  and  O_34 
REMARK   10  A    between atoms: C_16  and  C_17 
REMARK   11  A    between atoms: C_17  and  C_18 
REMARK   12  A    between atoms: C_19  and  C_20 
REMARK   13  A    between atoms: C_20  and  C_21 
REMARK   14  A    between atoms: C_21  and  C_22 
REMARK   15  A    between atoms: C_22  and  C_23 
REMARK   16  A    between atoms: C_23  and  O_25 
REMARK   17  A    between atoms: O_25  and  C_26 
REMARK   18  A    between atoms: C_26  and  C_27 
REMARK   19  A    between atoms: C_27  and  C_28 
REMARK   20  A    between atoms: C_28  and  C_29 
REMARK   21  A    between atoms: C_29  and  O_30 
REMARK   22  A    between atoms: O_30  and  N_31 
ROOT
HETATM    1  C   UNK N   1      23.643  12.702   9.827  0.00  0.00     0.021 C 
HETATM    2  C   UNK N   1      24.337  12.050  10.999  0.00  0.00     0.125 C 
HETATM    3  C   UNK N   1      23.301  12.114  12.120  0.00  0.00     0.064 C 
HETATM    4  C   UNK N   1      21.982  12.438  11.422  0.00  0.00     0.125 C 
HETATM    5  C   UNK N   1      22.257  12.128   9.970  0.00  0.00     0.024 C 
ENDROOT
BRANCH   5   6
HETATM    6  C   UNK N   1      21.245  12.748   9.030  0.00  0.00     0.034 C 
BRANCH   6   7
HETATM    7  C   UNK N   1      20.763  14.044   9.613  0.00  0.00    -0.030 C 
HETATM    8  C   UNK N   1      20.550  15.129   8.864  0.00  0.00    -0.031 C 
BRANCH   8   9
HETATM    9  C   UNK N   1      20.732  15.110   7.381  0.00  0.00     0.027 C 
BRANCH   9  10
HETATM   10  C   UNK N   1      21.965  15.905   7.000  0.00  0.00     0.013 C 
BRANCH  10  11
HETATM   11  C   UNK N   1      21.949  16.194   5.507  0.00  0.00     0.111 C 
BRANCH  11  12
HETATM   12  C   UNK N   1      21.243  17.480   5.219  0.00  0.00     0.258 C 
HETATM   13  O   UNK N   1      21.471  18.469   5.899  0.00  0.00    -0.265 OA
BRANCH  12  14
HETATM   14  O   UNK N   1      20.361  17.539   4.194  0.00  0.00    -0.321 OA
BRANCH  14  15
HETATM   15  C   UNK N   1      20.654  18.172   3.007  0.00  0.00     0.178 C 
BRANCH  15  16
HETATM   16  C   UNK N   1      19.802  19.414   2.848  0.00  0.00     0.029 C 
BRANCH  16  17
HETATM   17  C   UNK N   1      20.663  20.658   2.985  0.00  0.00     0.031 C 
BRANCH  17  18
HETATM   18  C   UNK N   1      22.009  20.418   2.328  0.00  0.00     0.208 C 
BRANCH  18  19
HETATM   19  O   UNK N   1      22.995  21.089   3.019  0.00  0.00    -0.221 OA
BRANCH  19  20
HETATM   20  N   UNK N   1      24.259  20.708   2.969  0.00  0.00     0.004 N 
HETATM   21  O   UNK N   1      24.815  20.377   3.971  0.00  0.00    -0.511 OA
HETATM   22  O   UNK N   1      24.931  20.750   1.836  0.00  0.00    -0.511 OA
ENDBRANCH  19  20
ENDBRANCH  18  19
ENDBRANCH  17  18
ENDBRANCH  16  17
ENDBRANCH  15  16
ENDBRANCH  14  15
ENDBRANCH  12  14
ENDBRANCH  11  12
ENDBRANCH  10  11
ENDBRANCH   9  10
ENDBRANCH   8   9
ENDBRANCH   6   7
ENDBRANCH   5   6
BRANCH   4  23
HETATM   23  O   UNK N   1      20.942  11.652  11.917  0.00  0.00    -0.395 OA
HETATM   24  H   UNK N   1      20.384  11.693  12.709  0.00  0.00     0.210 HD
ENDBRANCH   4  23
BRANCH   1  25
HETATM   25  C   UNK N   1      24.296  12.436   8.482  0.00  0.00     0.010 C 
BRANCH  25  26
HETATM   26  C   UNK N   1      24.734  13.775   7.903  0.00  0.00     0.032 C 
BRANCH  26  27
HETATM   27  C   UNK N   1      24.978  13.727   6.401  0.00  0.00     0.118 C 
BRANCH  27  28
HETATM   28  C   UNK N   1      24.467  12.429   5.807  0.00  0.00     0.036 C 
BRANCH  28  29
HETATM   29  C   UNK N   1      23.825  12.667   4.451  0.00  0.00     0.041 C 
BRANCH  29  30
HETATM   30  C   UNK N   1      22.343  12.606   4.567  0.00  0.00    -0.058 A 
HETATM   31  C   UNK N   1      21.764  11.880   5.612  0.00  0.00     0.007 A 
HETATM   32  C   UNK N   1      20.373  11.811   5.730  0.00  0.00     0.001 A 
HETATM   33  C   UNK N   1      19.559  12.470   4.802  0.00  0.00     0.000 A 
HETATM   34  C   UNK N   1      20.137  13.199   3.759  0.00  0.00     0.001 A 
HETATM   35  C   UNK N   1      21.527  13.269   3.640  0.00  0.00     0.007 A 
ENDBRANCH  29  30
ENDBRANCH  28  29
ENDBRANCH  27  28
BRANCH  27  36
HETATM   36  O   UNK N   1      26.351  13.809   6.177  0.00  0.00    -0.396 OA
HETATM   37  H   UNK N   1      26.879  14.441   5.664  0.00  0.00     0.210 HD
ENDBRANCH  27  36
ENDBRANCH  26  27
ENDBRANCH  25  26
ENDBRANCH   1  25
BRANCH   2  38
HETATM   38  O   UNK N   1      25.493  12.748  11.345  0.00  0.00    -0.395 OA
HETATM   39  H   UNK N   1      26.306  12.513  11.820  0.00  0.00     0.210 HD
ENDBRANCH   2  38
TORSDOF 22
ENDMDL
MODEL 4
REMARK VINA RESULT:      -6.0     13.627     16.718
REMARK  22 active torsions:
REMARK  status: ('A' for Active; 'I' for Inactive)
REMARK    1  A    between atoms: C_4  and  C_7 
REMARK    2  A    between atoms: C_7  and  C_8 
REMARK    3  A    between atoms: C_8  and  C_9 
REMARK    4  A    between atoms: C_9  and  C_10 
REMARK    5  A    between atoms: C_9  and  O_36 
REMARK    6  A    between atoms: C_10  and  C_11 
REMARK    7  A    between atoms: C_12  and  C_11 
REMARK    8  A    between atoms: C_13  and  O_35 
REMARK    9  A    between atoms: C_15  and  O_34 
REMARK   10  A    between atoms: C_16  and  C_17 
REMARK   11  A    between atoms: C_17  and  C_18 
REMARK   12  A    between atoms: C_19  and  C_20 
REMARK   13  A    between atoms: C_20  and  C_21 
REMARK   14  A    between atoms: C_21  and  C_22 
REMARK   15  A    between atoms: C_22  and  C_23 
REMARK   16  A    between atoms: C_23  and  O_25 
REMARK   17  A    between atoms: O_25  and  C_26 
REMARK   18  A    between atoms: C_26  and  C_27 
REMARK   19  A    between atoms: C_27  and  C_28 
REMARK   20  A    between atoms: C_28  and  C_29 
REMARK   21  A    between atoms: C_29  and  O_30 
REMARK   22  A    between atoms: O_30  and  N_31 
ROOT
HETATM    1  C   UNK N   1      29.880  23.522  -3.484  0.00  0.00     0.021 C 
HETATM    2  C   UNK N   1      29.463  22.802  -2.223  0.00  0.00     0.125 C 
HETATM    3  C   UNK N   1      28.113  23.429  -1.875  0.00  0.00     0.064 C 
HETATM    4  C   UNK N   1      27.681  24.167  -3.139  0.00  0.00     0.125 C 
HETATM    5  C   UNK N   1      28.565  23.586  -4.217  0.00  0.00     0.024 C 
ENDROOT
BRANCH   5   6
HETATM    6  C   UNK N   1      28.610  24.436  -5.469  0.00  0.00     0.034 C 
BRANCH   6   7
HETATM    7  C   UNK N   1      29.353  25.706  -5.174  0.00  0.00    -0.030 C 
HETATM    8  C   UNK N   1      29.396  26.725  -6.036  0.00  0.00    -0.031 C 
BRANCH   8   9
HETATM    9  C   UNK N   1      28.664  26.687  -7.338  0.00  0.00     0.027 C 
BRANCH   9  10
HETATM   10  C   UNK N   1      27.374  27.474  -7.231  0.00  0.00     0.013 C 
BRANCH  10  11
HETATM   11  C   UNK N   1      26.187  26.524  -7.282  0.00  0.00     0.111 C 
BRANCH  11  12
HETATM   12  C   UNK N   1      25.505  26.449  -5.954  0.00  0.00     0.258 C 
HETATM   13  O   UNK N   1      25.022  25.393  -5.573  0.00  0.00    -0.265 OA
BRANCH  12  14
HETATM   14  O   UNK N   1      25.440  27.554  -5.176  0.00  0.00    -0.321 OA
BRANCH  14  15
HETATM   15  C   UNK N   1      25.613  27.505  -3.811  0.00  0.00     0.178 C 
BRANCH  15  16
HETATM   16  C   UNK N   1      27.019  27.932  -3.443  0.00  0.00     0.029 C 
BRANCH  16  17
HETATM   17  C   UNK N   1      27.225  29.396  -3.789  0.00  0.00     0.031 C 
BRANCH  17  18
HETATM   18  C   UNK N   1      27.811  30.124  -2.594  0.00  0.00     0.208 C 
BRANCH  18  19
HETATM   19  O   UNK N   1      27.620  29.379  -1.451  0.00  0.00    -0.221 OA
BRANCH  19  20
HETATM   20  N   UNK N   1      28.287  29.631  -0.339  0.00  0.00     0.004 N 
HETATM   21  O   UNK N   1      29.464  29.826  -0.388  0.00  0.00    -0.511 OA
HETATM   22  O   UNK N   1      27.680  29.608   0.831  0.00  0.00    -0.511 OA
ENDBRANCH  19  20
ENDBRANCH  18  19
ENDBRANCH  17  18
ENDBRANCH  16  17
ENDBRANCH  15  16
ENDBRANCH  14  15
ENDBRANCH  12  14
ENDBRANCH  11  12
ENDBRANCH  10  11
ENDBRANCH   9  10
ENDBRANCH   8   9
ENDBRANCH   6   7
ENDBRANCH   5   6
BRANCH   4  23
HETATM   23  O   UNK N   1      26.333  23.945  -3.419  0.00  0.00    -0.395 OA
HETATM   24  H   UNK N   1      25.855  23.294  -3.956  0.00  0.00     0.210 HD
ENDBRANCH   4  23
BRANCH   1  25
HETATM   25  C   UNK N   1      30.996  22.840  -4.257  0.00  0.00     0.010 C 
BRANCH  25  26
HETATM   26  C   UNK N   1      30.958  21.355  -3.917  0.00  0.00     0.032 C 
BRANCH  26  27
HETATM   27  C   UNK N   1      31.928  20.527  -4.748  0.00  0.00     0.118 C 
BRANCH  27  28
HETATM   28  C   UNK N   1      31.601  20.624  -6.227  0.00  0.00     0.036 C 
BRANCH  28  29
HETATM   29  C   UNK N   1      30.134  20.324  -6.480  0.00  0.00     0.041 C 
BRANCH  29  30
HETATM   30  C   UNK N   1      29.540  21.369  -7.357  0.00  0.00    -0.058 A 
HETATM   31  C   UNK N   1      30.375  22.313  -7.965  0.00  0.00     0.007 A 
HETATM   32  C   UNK N   1      29.829  23.303  -8.787  0.00  0.00     0.001 A 
HETATM   33  C   UNK N   1      28.449  23.350  -9.003  0.00  0.00     0.000 A 
HETATM   34  C   UNK N   1      27.614  22.405  -8.399  0.00  0.00     0.001 A 
HETATM   35  C   UNK N   1      28.157  21.415  -7.577  0.00  0.00     0.007 A 
ENDBRANCH  29  30
ENDBRANCH  28  29
ENDBRANCH  27  28
BRANCH  27  36
HETATM   36  O   UNK N   1      31.815  19.195  -4.355  0.00  0.00    -0.396 OA
HETATM   37  H   UNK N   1      31.042  18.615  -4.275  0.00  0.00     0.210 HD
ENDBRANCH  27  36
ENDBRANCH  26  27
ENDBRANCH  25  26
ENDBRANCH   1  25
BRANCH   2  38
HETATM   38  O   UNK N   1      30.388  23.009  -1.202  0.00  0.00    -0.395 OA
HETATM   39  H   UNK N   1      30.329  23.035  -0.234  0.00  0.00     0.210 HD
ENDBRANCH   2  38
TORSDOF 22
ENDMDL
MODEL 5
REMARK VINA RESULT:      -5.9      2.648      3.431
REMARK  22 active torsions:
REMARK  status: ('A' for Active; 'I' for Inactive)
REMARK    1  A    between atoms: C_4  and  C_7 
REMARK    2  A    between atoms: C_7  and  C_8 
REMARK    3  A    between atoms: C_8  and  C_9 
REMARK    4  A    between atoms: C_9  and  C_10 
REMARK    5  A    between atoms: C_9  and  O_36 
REMARK    6  A    between atoms: C_10  and  C_11 
REMARK    7  A    between atoms: C_12  and  C_11 
REMARK    8  A    between atoms: C_13  and  O_35 
REMARK    9  A    between atoms: C_15  and  O_34 
REMARK   10  A    between atoms: C_16  and  C_17 
REMARK   11  A    between atoms: C_17  and  C_18 
REMARK   12  A    between atoms: C_19  and  C_20 
REMARK   13  A    between atoms: C_20  and  C_21 
REMARK   14  A    between atoms: C_21  and  C_22 
REMARK   15  A    between atoms: C_22  and  C_23 
REMARK   16  A    between atoms: C_23  and  O_25 
REMARK   17  A    between atoms: O_25  and  C_26 
REMARK   18  A    between atoms: C_26  and  C_27 
REMARK   19  A    between atoms: C_27  and  C_28 
REMARK   20  A    between atoms: C_28  and  C_29 
REMARK   21  A    between atoms: C_29  and  O_30 
REMARK   22  A    between atoms: O_30  and  N_31 
ROOT
HETATM    1  C   UNK N   1      22.110  12.315   9.926  0.00  0.00     0.021 C 
HETATM    2  C   UNK N   1      21.794  12.519  11.388  0.00  0.00     0.125 C 
HETATM    3  C   UNK N   1      23.039  12.000  12.107  0.00  0.00     0.064 C 
HETATM    4  C   UNK N   1      24.109  11.900  11.023  0.00  0.00     0.125 C 
HETATM    5  C   UNK N   1      23.557  12.735   9.892  0.00  0.00     0.024 C 
ENDROOT
BRANCH   5   6
HETATM    6  C   UNK N   1      24.237  12.462   8.567  0.00  0.00     0.034 C 
BRANCH   6   7
HETATM    7  C   UNK N   1      25.091  13.640   8.202  0.00  0.00    -0.030 C 
HETATM    8  C   UNK N   1      24.812  14.429   7.161  0.00  0.00    -0.031 C 
BRANCH   8   9
HETATM    9  C   UNK N   1      23.598  14.219   6.315  0.00  0.00     0.027 C 
BRANCH   9  10
HETATM   10  C   UNK N   1      23.693  15.054   5.055  0.00  0.00     0.013 C 
BRANCH  10  11
HETATM   11  C   UNK N   1      23.915  16.513   5.422  0.00  0.00     0.111 C 
BRANCH  11  12
HETATM   12  C   UNK N   1      24.903  17.153   4.500  0.00  0.00     0.258 C 
HETATM   13  O   UNK N   1      24.977  16.790   3.336  0.00  0.00    -0.265 OA
BRANCH  12  14
HETATM   14  O   UNK N   1      25.700  18.143   4.963  0.00  0.00    -0.321 OA
BRANCH  14  15
HETATM   15  C   UNK N   1      25.495  19.465   4.639  0.00  0.00     0.178 C 
BRANCH  15  16
HETATM   16  C   UNK N   1      26.263  20.365   5.585  0.00  0.00     0.029 C 
BRANCH  16  17
HETATM   17  C   UNK N   1      27.615  19.751   5.905  0.00  0.00     0.031 C 
BRANCH  17  18
HETATM   18  C   UNK N   1      27.805  19.695   7.409  0.00  0.00     0.208 C 
BRANCH  18  19
HETATM   19  O   UNK N   1      28.151  18.418   7.791  0.00  0.00    -0.221 OA
BRANCH  19  20
HETATM   20  N   UNK N   1      28.311  18.093   9.062  0.00  0.00     0.004 N 
HETATM   21  O   UNK N   1      29.172  18.616   9.701  0.00  0.00    -0.511 OA
HETATM   22  O   UNK N   1      27.572  17.152   9.615  0.00  0.00    -0.511 OA
ENDBRANCH  19  20
ENDBRANCH  18  19
ENDBRANCH  17  18
ENDBRANCH  16  17
ENDBRANCH  15  16
ENDBRANCH  14  15
ENDBRANCH  12  14
ENDBRANCH  11  12
ENDBRANCH  10  11
ENDBRANCH   9  10
ENDBRANCH   8   9
ENDBRANCH   6   7
ENDBRANCH   5   6
BRANCH   4  23
HETATM   23  O   UNK N   1      25.331  12.402  11.470  0.00  0.00    -0.395 OA
HETATM   24  H   UNK N   1      26.139  11.996  11.821  0.00  0.00     0.210 HD
ENDBRANCH   4  23
BRANCH   1  25
HETATM   25  C   UNK N   1      21.211  13.087   8.975  0.00  0.00     0.010 C 
BRANCH  25  26
HETATM   26  C   UNK N   1      21.152  14.530   9.457  0.00  0.00     0.032 C 
BRANCH  26  27
HETATM   27  C   UNK N   1      20.258  15.412   8.598  0.00  0.00     0.118 C 
BRANCH  27  28
HETATM   28  C   UNK N   1      20.364  15.033   7.132  0.00  0.00     0.036 C 
BRANCH  28  29
HETATM   29  C   UNK N   1      19.479  15.921   6.275  0.00  0.00     0.041 C 
BRANCH  29  30
HETATM   30  C   UNK N   1      20.042  16.036   4.903  0.00  0.00    -0.058 A 
HETATM   31  C   UNK N   1      20.535  17.269   4.463  0.00  0.00     0.007 A 
HETATM   32  C   UNK N   1      21.063  17.392   3.174  0.00  0.00     0.001 A 
HETATM   33  C   UNK N   1      21.098  16.282   2.325  0.00  0.00     0.000 A 
HETATM   34  C   UNK N   1      20.609  15.048   2.764  0.00  0.00     0.001 A 
HETATM   35  C   UNK N   1      20.081  14.923   4.052  0.00  0.00     0.007 A 
ENDBRANCH  29  30
ENDBRANCH  28  29
ENDBRANCH  27  28
BRANCH  27  36
HETATM   36  O   UNK N   1      20.672  16.734   8.746  0.00  0.00    -0.396 OA
HETATM   37  H   UNK N   1      21.305  17.267   8.238  0.00  0.00     0.210 HD
ENDBRANCH  27  36
ENDBRANCH  26  27
ENDBRANCH  25  26
ENDBRANCH   1  25
BRANCH   2  38
HETATM   38  O   UNK N   1      20.664  11.793  11.759  0.00  0.00    -0.395 OA
HETATM   39  H   UNK N   1      20.517  11.012  12.317  0.00  0.00     0.210 HD
ENDBRANCH   2  38
TORSDOF 22
ENDMDL
MODEL 6
REMARK VINA RESULT:      -5.8      2.366      3.024
REMARK  22 active torsions:
REMARK  status: ('A' for Active; 'I' for Inactive)
REMARK    1  A    between atoms: C_4  and  C_7 
REMARK    2  A    between atoms: C_7  and  C_8 
REMARK    3  A    between atoms: C_8  and  C_9 
REMARK    4  A    between atoms: C_9  and  C_10 
REMARK    5  A    between atoms: C_9  and  O_36 
REMARK    6  A    between atoms: C_10  and  C_11 
REMARK    7  A    between atoms: C_12  and  C_11 
REMARK    8  A    between atoms: C_13  and  O_35 
REMARK    9  A    between atoms: C_15  and  O_34 
REMARK   10  A    between atoms: C_16  and  C_17 
REMARK   11  A    between atoms: C_17  and  C_18 
REMARK   12  A    between atoms: C_19  and  C_20 
REMARK   13  A    between atoms: C_20  and  C_21 
REMARK   14  A    between atoms: C_21  and  C_22 
REMARK   15  A    between atoms: C_22  and  C_23 
REMARK   16  A    between atoms: C_23  and  O_25 
REMARK   17  A    between atoms: O_25  and  C_26 
REMARK   18  A    between atoms: C_26  and  C_27 
REMARK   19  A    between atoms: C_27  and  C_28 
REMARK   20  A    between atoms: C_28  and  C_29 
REMARK   21  A    between atoms: C_29  and  O_30 
REMARK   22  A    between atoms: O_30  and  N_31 
ROOT
HETATM    1  C   UNK N   1      22.204  12.254  10.023  0.00  0.00     0.021 C 
HETATM    2  C   UNK N   1      21.861  12.409  11.486  0.00  0.00     0.125 C 
HETATM    3  C   UNK N   1      23.134  11.971  12.208  0.00  0.00     0.064 C 
HETATM    4  C   UNK N   1      24.218  11.967  11.133  0.00  0.00     0.125 C 
HETATM    5  C   UNK N   1      23.616  12.779  10.010  0.00  0.00     0.024 C 
ENDROOT
BRANCH   5   6
HETATM    6  C   UNK N   1      24.325  12.578   8.688  0.00  0.00     0.034 C 
BRANCH   6   7
HETATM    7  C   UNK N   1      24.968  13.870   8.275  0.00  0.00    -0.030 C 
HETATM    8  C   UNK N   1      25.600  14.012   7.107  0.00  0.00    -0.031 C 
BRANCH   8   9
HETATM    9  C   UNK N   1      25.669  12.902   6.108  0.00  0.00     0.027 C 
BRANCH   9  10
HETATM   10  C   UNK N   1      26.483  13.336   4.906  0.00  0.00     0.013 C 
BRANCH  10  11
HETATM   11  C   UNK N   1      27.005  14.748   5.123  0.00  0.00     0.111 C 
BRANCH  11  12
HETATM   12  C   UNK N   1      28.462  14.835   4.799  0.00  0.00     0.258 C 
HETATM   13  O   UNK N   1      29.176  13.853   4.924  0.00  0.00    -0.265 OA
BRANCH  12  14
HETATM   14  O   UNK N   1      28.975  16.006   4.355  0.00  0.00    -0.321 OA
BRANCH  14  15
HETATM   15  C   UNK N   1      28.273  16.849   3.524  0.00  0.00     0.178 C 
BRANCH  15  16
HETATM   16  C   UNK N   1      28.022  18.176   4.210  0.00  0.00     0.029 C 
BRANCH  16  17
HETATM   17  C   UNK N   1      26.608  18.652   3.921  0.00  0.00     0.031 C 
BRANCH  17  18
HETATM   18  C   UNK N   1      25.956  19.119   5.209  0.00  0.00     0.208 C 
BRANCH  18  19
HETATM   19  O   UNK N   1      26.022  20.492   5.298  0.00  0.00    -0.221 OA
BRANCH  19  20
HETATM   20  N   UNK N   1      26.664  21.093   6.284  0.00  0.00     0.004 N 
HETATM   21  O   UNK N   1      27.837  21.289   6.191  0.00  0.00    -0.511 OA
HETATM   22  O   UNK N   1      26.036  21.421   7.395  0.00  0.00    -0.511 OA
ENDBRANCH  19  20
ENDBRANCH  18  19
ENDBRANCH  17  18
ENDBRANCH  16  17
ENDBRANCH  15  16
ENDBRANCH  14  15
ENDBRANCH  12  14
ENDBRANCH  11  12
ENDBRANCH  10  11
ENDBRANCH   9  10
ENDBRANCH   8   9
ENDBRANCH   6   7
ENDBRANCH   5   6
BRANCH   4  23
HETATM   23  O   UNK N   1      25.396  12.550  11.600  0.00  0.00    -0.395 OA
HETATM   24  H   UNK N   1      25.745  13.455  11.605  0.00  0.00     0.210 HD
ENDBRANCH   4  23
BRANCH   1  25
HETATM   25  C   UNK N   1      21.259  12.974   9.076  0.00  0.00     0.010 C 
BRANCH  25  26
HETATM   26  C   UNK N   1      21.158  14.424   9.531  0.00  0.00     0.032 C 
BRANCH  26  27
HETATM   27  C   UNK N   1      20.395  15.306   8.553  0.00  0.00     0.118 C 
BRANCH  27  28
HETATM   28  C   UNK N   1      20.856  15.066   7.128  0.00  0.00     0.036 C 
BRANCH  28  29
HETATM   29  C   UNK N   1      22.153  15.802   6.844  0.00  0.00     0.041 C 
BRANCH  29  30
HETATM   30  C   UNK N   1      22.676  15.424   5.504  0.00  0.00    -0.058 A 
HETATM   31  C   UNK N   1      22.407  14.149   4.995  0.00  0.00     0.007 A 
HETATM   32  C   UNK N   1      22.896  13.779   3.739  0.00  0.00     0.001 A 
HETATM   33  C   UNK N   1      23.653  14.684   2.989  0.00  0.00     0.000 A 
HETATM   34  C   UNK N   1      23.920  15.960   3.494  0.00  0.00     0.001 A 
HETATM   35  C   UNK N   1      23.431  16.332   4.750  0.00  0.00     0.007 A 
ENDBRANCH  29  30
ENDBRANCH  28  29
ENDBRANCH  27  28
BRANCH  27  36
HETATM   36  O   UNK N   1      20.640  16.638   8.881  0.00  0.00    -0.396 OA
HETATM   37  H   UNK N   1      20.985  17.045   9.692  0.00  0.00     0.210 HD
ENDBRANCH  27  36
ENDBRANCH  26  27
ENDBRANCH  25  26
ENDBRANCH   1  25
BRANCH   2  38
HETATM   38  O   UNK N   1      20.784  11.597  11.834  0.00  0.00    -0.395 OA
HETATM   39  H   UNK N   1      20.459  10.738  11.521  0.00  0.00     0.210 HD
ENDBRANCH   2  38
TORSDOF 22
ENDMDL
MODEL 7
REMARK VINA RESULT:      -5.8     14.604     16.518
REMARK  22 active torsions:
REMARK  status: ('A' for Active; 'I' for Inactive)
REMARK    1  A    between atoms: C_4  and  C_7 
REMARK    2  A    between atoms: C_7  and  C_8 
REMARK    3  A    between atoms: C_8  and  C_9 
REMARK    4  A    between atoms: C_9  and  C_10 
REMARK    5  A    between atoms: C_9  and  O_36 
REMARK    6  A    between atoms: C_10  and  C_11 
REMARK    7  A    between atoms: C_12  and  C_11 
REMARK    8  A    between atoms: C_13  and  O_35 
REMARK    9  A    between atoms: C_15  and  O_34 
REMARK   10  A    between atoms: C_16  and  C_17 
REMARK   11  A    between atoms: C_17  and  C_18 
REMARK   12  A    between atoms: C_19  and  C_20 
REMARK   13  A    between atoms: C_20  and  C_21 
REMARK   14  A    between atoms: C_21  and  C_22 
REMARK   15  A    between atoms: C_22  and  C_23 
REMARK   16  A    between atoms: C_23  and  O_25 
REMARK   17  A    between atoms: O_25  and  C_26 
REMARK   18  A    between atoms: C_26  and  C_27 
REMARK   19  A    between atoms: C_27  and  C_28 
REMARK   20  A    between atoms: C_28  and  C_29 
REMARK   21  A    between atoms: C_29  and  O_30 
REMARK   22  A    between atoms: O_30  and  N_31 
ROOT
HETATM    1  C   UNK N   1      31.898  21.476  -4.485  0.00  0.00     0.021 C 
HETATM    2  C   UNK N   1      32.953  21.390  -3.407  0.00  0.00     0.125 C 
HETATM    3  C   UNK N   1      33.789  20.176  -3.809  0.00  0.00     0.064 C 
HETATM    4  C   UNK N   1      33.403  19.892  -5.259  0.00  0.00     0.125 C 
HETATM    5  C   UNK N   1      32.722  21.164  -5.707  0.00  0.00     0.024 C 
ENDROOT
BRANCH   5   6
HETATM    6  C   UNK N   1      31.897  20.983  -6.964  0.00  0.00     0.034 C 
BRANCH   6   7
HETATM    7  C   UNK N   1      30.868  19.918  -6.727  0.00  0.00    -0.030 C 
HETATM    8  C   UNK N   1      29.579  20.089  -7.033  0.00  0.00    -0.031 C 
BRANCH   8   9
HETATM    9  C   UNK N   1      29.083  21.342  -7.680  0.00  0.00     0.027 C 
BRANCH   9  10
HETATM   10  C   UNK N   1      27.572  21.303  -7.792  0.00  0.00     0.013 C 
BRANCH  10  11
HETATM   11  C   UNK N   1      26.981  22.569  -7.191  0.00  0.00     0.111 C 
BRANCH  11  12
HETATM   12  C   UNK N   1      25.503  22.627  -7.412  0.00  0.00     0.258 C 
HETATM   13  O   UNK N   1      24.765  21.860  -6.814  0.00  0.00    -0.265 OA
BRANCH  12  14
HETATM   14  O   UNK N   1      24.995  23.542  -8.270  0.00  0.00    -0.321 OA
BRANCH  14  15
HETATM   15  C   UNK N   1      25.764  24.154  -9.234  0.00  0.00     0.178 C 
BRANCH  15  16
HETATM   16  C   UNK N   1      25.795  25.652  -9.010  0.00  0.00     0.029 C 
BRANCH  16  17
HETATM   17  C   UNK N   1      26.912  26.277  -9.828  0.00  0.00     0.031 C 
BRANCH  17  18
HETATM   18  C   UNK N   1      28.118  26.519  -8.940  0.00  0.00     0.208 C 
BRANCH  18  19
HETATM   19  O   UNK N   1      28.070  27.794  -8.420  0.00  0.00    -0.221 OA
BRANCH  19  20
HETATM   20  N   UNK N   1      28.128  28.015  -7.119  0.00  0.00     0.004 N 
HETATM   21  O   UNK N   1      28.399  27.119  -6.379  0.00  0.00    -0.511 OA
HETATM   22  O   UNK N   1      27.827  29.199  -6.623  0.00  0.00    -0.511 OA
ENDBRANCH  19  20
ENDBRANCH  18  19
ENDBRANCH  17  18
ENDBRANCH  16  17
ENDBRANCH  15  16
ENDBRANCH  14  15
ENDBRANCH  12  14
ENDBRANCH  11  12
ENDBRANCH  10  11
ENDBRANCH   9  10
ENDBRANCH   8   9
ENDBRANCH   6   7
ENDBRANCH   5   6
BRANCH   4  23
HETATM   23  O   UNK N   1      34.527  19.621  -6.038  0.00  0.00    -0.395 OA
HETATM   24  H   UNK N   1      35.054  18.825  -6.208  0.00  0.00     0.210 HD
ENDBRANCH   4  23
BRANCH   1  25
HETATM   25  C   UNK N   1      31.166  22.806  -4.544  0.00  0.00     0.010 C 
BRANCH  25  26
HETATM   26  C   UNK N   1      29.703  22.548  -4.212  0.00  0.00     0.032 C 
BRANCH  26  27
HETATM   27  C   UNK N   1      29.244  23.255  -2.944  0.00  0.00     0.118 C 
BRANCH  27  28
HETATM   28  C   UNK N   1      28.481  24.525  -3.273  0.00  0.00     0.036 C 
BRANCH  28  29
HETATM   29  C   UNK N   1      27.059  24.210  -3.703  0.00  0.00     0.041 C 
BRANCH  29  30
HETATM   30  C   UNK N   1      26.361  25.455  -4.119  0.00  0.00    -0.058 A 
HETATM   31  C   UNK N   1      26.506  26.615  -3.351  0.00  0.00     0.007 A 
HETATM   32  C   UNK N   1      25.851  27.791  -3.729  0.00  0.00     0.001 A 
HETATM   33  C   UNK N   1      25.051  27.808  -4.875  0.00  0.00     0.000 A 
HETATM   34  C   UNK N   1      24.907  26.651  -5.646  0.00  0.00     0.001 A 
HETATM   35  C   UNK N   1      25.562  25.475  -5.270  0.00  0.00     0.007 A 
ENDBRANCH  29  30
ENDBRANCH  28  29
ENDBRANCH  27  28
BRANCH  27  36
HETATM   36  O   UNK N   1      30.371  23.594  -2.199  0.00  0.00    -0.396 OA
HETATM   37  H   UNK N   1      30.502  24.259  -1.503  0.00  0.00     0.210 HD
ENDBRANCH  27  36
ENDBRANCH  26  27
ENDBRANCH  25  26
ENDBRANCH   1  25
BRANCH   2  38
HETATM   38  O   UNK N   1      32.372  21.205  -2.155  0.00  0.00    -0.395 OA
HETATM   39  H   UNK N   1      32.173  20.424  -1.613  0.00  0.00     0.210 HD
ENDBRANCH   2  38
TORSDOF 22
ENDMDL
MODEL 8
REMARK VINA RESULT:      -5.8      6.262      9.377
REMARK  22 active torsions:
REMARK  status: ('A' for Active; 'I' for Inactive)
REMARK    1  A    between atoms: C_4  and  C_7 
REMARK    2  A    between atoms: C_7  and  C_8 
REMARK    3  A    between atoms: C_8  and  C_9 
REMARK    4  A    between atoms: C_9  and  C_10 
REMARK    5  A    between atoms: C_9  and  O_36 
REMARK    6  A    between atoms: C_10  and  C_11 
REMARK    7  A    between atoms: C_12  and  C_11 
REMARK    8  A    between atoms: C_13  and  O_35 
REMARK    9  A    between atoms: C_15  and  O_34 
REMARK   10  A    between atoms: C_16  and  C_17 
REMARK   11  A    between atoms: C_17  and  C_18 
REMARK   12  A    between atoms: C_19  and  C_20 
REMARK   13  A    between atoms: C_20  and  C_21 
REMARK   14  A    between atoms: C_21  and  C_22 
REMARK   15  A    between atoms: C_22  and  C_23 
REMARK   16  A    between atoms: C_23  and  O_25 
REMARK   17  A    between atoms: O_25  and  C_26 
REMARK   18  A    between atoms: C_26  and  C_27 
REMARK   19  A    between atoms: C_27  and  C_28 
REMARK   20  A    between atoms: C_28  and  C_29 
REMARK   21  A    between atoms: C_29  and  O_30 
REMARK   22  A    between atoms: O_30  and  N_31 
ROOT
HETATM    1  C   UNK N   1      27.483  16.348   5.844  0.00  0.00     0.021 C 
HETATM    2  C   UNK N   1      26.578  15.271   6.395  0.00  0.00     0.125 C 
HETATM    3  C   UNK N   1      25.538  15.069   5.294  0.00  0.00     0.064 C 
HETATM    4  C   UNK N   1      26.130  15.747   4.061  0.00  0.00     0.125 C 
HETATM    5  C   UNK N   1      27.591  15.912   4.405  0.00  0.00     0.024 C 
ENDROOT
BRANCH   5   6
HETATM    6  C   UNK N   1      28.300  16.915   3.520  0.00  0.00     0.034 C 
BRANCH   6   7
HETATM    7  C   UNK N   1      29.359  16.208   2.727  0.00  0.00    -0.030 C 
HETATM    8  C   UNK N   1      30.662  16.440   2.908  0.00  0.00    -0.031 C 
BRANCH   8   9
HETATM    9  C   UNK N   1      31.155  17.391   3.951  0.00  0.00     0.027 C 
BRANCH   9  10
HETATM   10  C   UNK N   1      32.054  16.664   4.931  0.00  0.00     0.013 C 
BRANCH  10  11
HETATM   11  C   UNK N   1      33.511  16.926   4.581  0.00  0.00     0.111 C 
BRANCH  11  12
HETATM   12  C   UNK N   1      34.372  16.871   5.802  0.00  0.00     0.258 C 
HETATM   13  O   UNK N   1      35.126  15.926   5.977  0.00  0.00    -0.265 OA
BRANCH  12  14
HETATM   14  O   UNK N   1      34.316  17.880   6.702  0.00  0.00    -0.321 OA
BRANCH  14  15
HETATM   15  C   UNK N   1      34.193  17.655   8.054  0.00  0.00     0.178 C 
BRANCH  15  16
HETATM   16  C   UNK N   1      32.752  17.820   8.487  0.00  0.00     0.029 C 
BRANCH  16  17
HETATM   17  C   UNK N   1      32.093  16.460   8.634  0.00  0.00     0.031 C 
BRANCH  17  18
HETATM   18  C   UNK N   1      33.157  15.399   8.847  0.00  0.00     0.208 C 
BRANCH  18  19
HETATM   19  O   UNK N   1      33.225  15.064  10.181  0.00  0.00    -0.221 OA
BRANCH  19  20
HETATM   20  N   UNK N   1      34.307  14.514  10.704  0.00  0.00     0.004 N 
HETATM   21  O   UNK N   1      35.144  14.058   9.985  0.00  0.00    -0.511 OA
HETATM   22  O   UNK N   1      34.443  14.405  12.010  0.00  0.00    -0.511 OA
ENDBRANCH  19  20
ENDBRANCH  18  19
ENDBRANCH  17  18
ENDBRANCH  16  17
ENDBRANCH  15  16
ENDBRANCH  14  15
ENDBRANCH  12  14
ENDBRANCH  11  12
ENDBRANCH  10  11
ENDBRANCH   9  10
ENDBRANCH   8   9
ENDBRANCH   6   7
ENDBRANCH   5   6
BRANCH   4  23
HETATM   23  O   UNK N   1      25.967  14.958   2.922  0.00  0.00    -0.395 OA
HETATM   24  H   UNK N   1      25.370  14.992   2.158  0.00  0.00     0.210 HD
ENDBRANCH   4  23
BRANCH   1  25
HETATM   25  C   UNK N   1      28.816  16.476   6.562  0.00  0.00     0.010 C 
BRANCH  25  26
HETATM   26  C   UNK N   1      29.027  17.948   6.892  0.00  0.00     0.032 C 
BRANCH  26  27
HETATM   27  C   UNK N   1      27.753  18.648   7.345  0.00  0.00     0.118 C 
BRANCH  27  28
HETATM   28  C   UNK N   1      27.640  20.029   6.726  0.00  0.00     0.036 C 
BRANCH  28  29
HETATM   29  C   UNK N   1      27.895  19.977   5.229  0.00  0.00     0.041 C 
BRANCH  29  30
HETATM   30  C   UNK N   1      26.605  19.948   4.489  0.00  0.00    -0.058 A 
HETATM   31  C   UNK N   1      25.506  19.286   5.047  0.00  0.00     0.007 A 
HETATM   32  C   UNK N   1      24.290  19.248   4.360  0.00  0.00     0.001 A 
HETATM   33  C   UNK N   1      24.170  19.872   3.114  0.00  0.00     0.000 A 
HETATM   34  C   UNK N   1      25.266  20.537   2.557  0.00  0.00     0.001 A 
HETATM   35  C   UNK N   1      26.483  20.577   3.243  0.00  0.00     0.007 A 
ENDBRANCH  29  30
ENDBRANCH  28  29
ENDBRANCH  27  28
BRANCH  27  36
HETATM   36  O   UNK N   1      27.796  18.785   8.730  0.00  0.00    -0.396 OA
HETATM   37  H   UNK N   1      27.368  18.276   9.437  0.00  0.00     0.210 HD
ENDBRANCH  27  36
ENDBRANCH  26  27
ENDBRANCH  25  26
ENDBRANCH   1  25
BRANCH   2  38
HETATM   38  O   UNK N   1      25.977  15.685   7.581  0.00  0.00    -0.395 OA
HETATM   39  H   UNK N   1      25.920  16.535   8.047  0.00  0.00     0.210 HD
ENDBRANCH   2  38
TORSDOF 22
ENDMDL
MODEL 9
REMARK VINA RESULT:      -5.7      2.274      4.935
REMARK  22 active torsions:
REMARK  status: ('A' for Active; 'I' for Inactive)
REMARK    1  A    between atoms: C_4  and  C_7 
REMARK    2  A    between atoms: C_7  and  C_8 
REMARK    3  A    between atoms: C_8  and  C_9 
REMARK    4  A    between atoms: C_9  and  C_10 
REMARK    5  A    between atoms: C_9  and  O_36 
REMARK    6  A    between atoms: C_10  and  C_11 
REMARK    7  A    between atoms: C_12  and  C_11 
REMARK    8  A    between atoms: C_13  and  O_35 
REMARK    9  A    between atoms: C_15  and  O_34 
REMARK   10  A    between atoms: C_16  and  C_17 
REMARK   11  A    between atoms: C_17  and  C_18 
REMARK   12  A    between atoms: C_19  and  C_20 
REMARK   13  A    between atoms: C_20  and  C_21 
REMARK   14  A    between atoms: C_21  and  C_22 
REMARK   15  A    between atoms: C_22  and  C_23 
REMARK   16  A    between atoms: C_23  and  O_25 
REMARK   17  A    between atoms: O_25  and  C_26 
REMARK   18  A    between atoms: C_26  and  C_27 
REMARK   19  A    between atoms: C_27  and  C_28 
REMARK   20  A    between atoms: C_28  and  C_29 
REMARK   21  A    between atoms: C_29  and  O_30 
REMARK   22  A    between atoms: O_30  and  N_31 
ROOT
HETATM    1  C   UNK N   1      23.641  12.717   9.928  0.00  0.00     0.021 C 
HETATM    2  C   UNK N   1      24.241  11.957  11.087  0.00  0.00     0.125 C 
HETATM    3  C   UNK N   1      23.147  11.995  12.154  0.00  0.00     0.064 C 
HETATM    4  C   UNK N   1      21.885  12.426  11.411  0.00  0.00     0.125 C 
HETATM    5  C   UNK N   1      22.226  12.201   9.957  0.00  0.00     0.024 C 
ENDROOT
BRANCH   5   6
HETATM    6  C   UNK N   1      21.296  12.928   9.010  0.00  0.00     0.034 C 
BRANCH   6   7
HETATM    7  C   UNK N   1      20.746  14.143   9.698  0.00  0.00    -0.030 C 
HETATM    8  C   UNK N   1      20.414  15.252   9.033  0.00  0.00    -0.031 C 
BRANCH   8   9
HETATM    9  C   UNK N   1      20.524  15.341   7.546  0.00  0.00     0.027 C 
BRANCH   9  10
HETATM   10  C   UNK N   1      21.432  16.492   7.161  0.00  0.00     0.013 C 
BRANCH  10  11
HETATM   11  C   UNK N   1      21.004  17.055   5.814  0.00  0.00     0.111 C 
BRANCH  11  12
HETATM   12  C   UNK N   1      22.145  17.744   5.136  0.00  0.00     0.258 C 
HETATM   13  O   UNK N   1      23.287  17.566   5.528  0.00  0.00    -0.265 OA
BRANCH  12  14
HETATM   14  O   UNK N   1      21.899  18.553   4.080  0.00  0.00    -0.321 OA
BRANCH  14  15
HETATM   15  C   UNK N   1      20.638  18.705   3.548  0.00  0.00     0.178 C 
BRANCH  15  16
HETATM   16  C   UNK N   1      20.656  18.417   2.061  0.00  0.00     0.029 C 
BRANCH  16  17
HETATM   17  C   UNK N   1      19.515  17.482   1.699  0.00  0.00     0.031 C 
BRANCH  17  18
HETATM   18  C   UNK N   1      19.864  16.720   0.433  0.00  0.00     0.208 C 
BRANCH  18  19
HETATM   19  O   UNK N   1      21.024  16.001   0.623  0.00  0.00    -0.221 OA
BRANCH  19  20
HETATM   20  N   UNK N   1      21.001  14.712   0.911  0.00  0.00     0.004 N 
HETATM   21  O   UNK N   1      19.967  14.117   0.875  0.00  0.00    -0.511 OA
HETATM   22  O   UNK N   1      22.095  14.089   1.300  0.00  0.00    -0.511 OA
ENDBRANCH  19  20
ENDBRANCH  18  19
ENDBRANCH  17  18
ENDBRANCH  16  17
ENDBRANCH  15  16
ENDBRANCH  14  15
ENDBRANCH  12  14
ENDBRANCH  11  12
ENDBRANCH  10  11
ENDBRANCH   9  10
ENDBRANCH   8   9
ENDBRANCH   6   7
ENDBRANCH   5   6
BRANCH   4  23
HETATM   23  O   UNK N   1      20.785  11.659  11.795  0.00  0.00    -0.395 OA
HETATM   24  H   UNK N   1      20.681  10.769  12.168  0.00  0.00     0.210 HD
ENDBRANCH   4  23
BRANCH   1  25
HETATM   25  C   UNK N   1      24.357  12.510   8.604  0.00  0.00     0.010 C 
BRANCH  25  26
HETATM   26  C   UNK N   1      25.042  13.820   8.235  0.00  0.00     0.032 C 
BRANCH  26  27
HETATM   27  C   UNK N   1      24.379  14.534   7.065  0.00  0.00     0.118 C 
BRANCH  27  28
HETATM   28  C   UNK N   1      24.289  13.627   5.853  0.00  0.00     0.036 C 
BRANCH  28  29
HETATM   29  C   UNK N   1      23.150  14.048   4.942  0.00  0.00     0.041 C 
BRANCH  29  30
HETATM   30  C   UNK N   1      22.014  13.096   5.067  0.00  0.00    -0.058 A 
HETATM   31  C   UNK N   1      22.217  11.861   5.691  0.00  0.00     0.007 A 
HETATM   32  C   UNK N   1      21.158  10.955   5.811  0.00  0.00     0.001 A 
HETATM   33  C   UNK N   1      19.896  11.285   5.309  0.00  0.00     0.000 A 
HETATM   34  C   UNK N   1      19.690  12.520   4.689  0.00  0.00     0.001 A 
HETATM   35  C   UNK N   1      20.747  13.427   4.567  0.00  0.00     0.007 A 
ENDBRANCH  29  30
ENDBRANCH  28  29
ENDBRANCH  27  28
BRANCH  27  36
HETATM   36  O   UNK N   1      25.152  15.644   6.734  0.00  0.00    -0.396 OA
HETATM   37  H   UNK N   1      25.696  15.835   5.953  0.00  0.00     0.210 HD
ENDBRANCH  27  36
ENDBRANCH  26  27
ENDBRANCH  25  26
ENDBRANCH   1  25
BRANCH   2  38
HETATM   38  O   UNK N   1      25.404  12.576  11.541  0.00  0.00    -0.395 OA
HETATM   39  H   UNK N   1      26.077  12.344  12.201  0.00  0.00     0.210 HD
ENDBRANCH   2  38
TORSDOF 22
ENDMDL
