REMARK  8 active torsions:
REMARK  status: ('A' for Active; 'I' for Inactive)
REMARK    1  A    between atoms: C_14  and  C_11 
REMARK    2  A    between atoms: O_32  and  C_11 
REMARK    3  A    between atoms: C_15  and  N_28 
REMARK    4  A    between atoms: C_18  and  N_27 
REMARK    5  A    between atoms: C_19  and  O_29 
REMARK    6  A    between atoms: N_27  and  C_20 
REMARK    7  A    between atoms: S_33  and  N_22 
REMARK    8  A    between atoms: S_33  and  O_32 
ROOT
HETATM    1  C   UNK N   1       1.435   2.810  -1.241  0.00  0.00     0.036 A 
HETATM    2  C   UNK N   1       0.343   1.939  -1.318  0.00  0.00     0.094 A 
HETATM    3  C   UNK N   1       3.983   0.224   0.620  0.00  0.00     0.183 A 
HETATM    4  C   UNK N   1       2.432   2.085  -0.622  0.00  0.00     0.053 A 
HETATM    5  C   UNK N   1       3.728   2.418  -0.260  0.00  0.00     0.116 A 
HETATM    6  C   UNK N   1       1.942   0.854  -0.346  0.00  0.00     0.122 A 
HETATM    7  N   UNK N   1       4.489   1.473   0.367  0.00  0.00    -0.338 N 
ATOM      8  HN  UNK N   1       5.443   1.698   0.649  1.00  0.00     0.168 HD
HETATM    9  N   UNK N   1       2.698  -0.087   0.270  0.00  0.00    -0.338 N 
ATOM     10  HN  UNK N   1       2.316  -1.011   0.468  1.00  0.00     0.168 HD
HETATM   11  N   UNK N   1       0.664   0.741  -0.763  0.00  0.00    -0.338 N 
ENDROOT
BRANCH  11  12
HETATM   12  C   UNK N   1      -0.281  -0.385  -0.644  0.00  0.00     0.094 C 
HETATM   13  C   UNK N   1      -0.609  -0.648   0.825  0.00  0.00     0.035 C 
HETATM   14  C   UNK N   1      -0.306  -2.113   1.100  0.00  0.00     0.042 C 
HETATM   15  C   UNK N   1       0.678  -2.508  -0.000  0.00  0.00     0.126 C 
HETATM   16  C   UNK N   1       0.248  -1.703  -1.217  0.00  0.00     0.057 C 
BRANCH  14  17
HETATM   17  C   UNK N   1      -1.588  -2.963   1.156  0.00  0.00     0.199 C 
BRANCH  17  18
HETATM   18  O   UNK N   1      -2.028  -3.367  -0.106  0.00  0.00    -0.259 OA
BRANCH  18  19
HETATM   19  S   UNK N   1      -3.658  -2.848  -0.225  0.00  0.00     0.355 S 
HETATM   20  O   UNK N   1      -3.730  -1.318  -0.331  0.00  0.00    -0.176 OA
HETATM   21  O   UNK N   1      -4.234  -3.358  -1.553  0.00  0.00    -0.176 OA
BRANCH  19  22
HETATM   22  N   UNK N   1      -4.724  -3.406   1.069  0.00  0.00    -0.306 N 
HETATM   23  H   UNK N   1      -5.310  -3.034   1.816  0.00  0.00     0.171 HD
HETATM   24  H   UNK N   1      -4.766  -4.425   1.069  0.00  0.00     0.171 HD
ENDBRANCH  19  22
ENDBRANCH  18  19
ENDBRANCH  17  18
ENDBRANCH  14  17
BRANCH  15  25
HETATM   25  O   UNK N   1       0.701  -3.881  -0.250  0.00  0.00    -0.395 OA
HETATM   26  H   UNK N   1      -0.118  -4.372  -0.424  0.00  0.00     0.210 HD
ENDBRANCH  15  25
ENDBRANCH  11  12
BRANCH   5  27
HETATM   27  N   UNK N   1       4.242   3.702  -0.547  0.00  0.00    -0.367 N 
HETATM   28  H   UNK N   1       4.032   4.105  -1.420  0.00  0.00     0.161 HD
BRANCH  27  29
HETATM   29  C   UNK N   1       5.059   4.451   0.375  0.00  0.00     0.117 A 
HETATM   30  C   UNK N   1       6.494   4.612  -0.168  0.00  0.00     0.034 A 
HETATM   31  C   UNK N   1       6.738   6.106  -0.467  0.00  0.00     0.041 A 
HETATM   32  C   UNK N   1       5.460   6.734  -0.089  0.00  0.00    -0.050 A 
HETATM   33  C   UNK N   1       5.144   8.088  -0.213  0.00  0.00     0.007 A 
HETATM   34  C   UNK N   1       4.550   5.837   0.388  0.00  0.00    -0.029 A 
HETATM   35  C   UNK N   1       3.862   8.519   0.163  0.00  0.00     0.001 A 
HETATM   36  C   UNK N   1       2.924   7.596   0.656  0.00  0.00     0.001 A 
HETATM   37  C   UNK N   1       3.266   6.240   0.770  0.00  0.00     0.010 A 
ENDBRANCH  27  29
ENDBRANCH   5  27
TORSDOF 8
