REMARK  6 active torsions:
REMARK  status: ('A' for Active; 'I' for Inactive)
REMARK    1  A    between atoms: C_2  and  C_3 
REMARK    2  A    between atoms: C_9  and  C_10 
REMARK    3  A    between atoms: C_9  and  C_14 
REMARK    4  A    between atoms: C_10  and  C_11 
REMARK    5  A    between atoms: C_11  and  O_13 
REMARK    6  A    between atoms: C_14  and  N_15 
ROOT
HETATM    1  C   UNK N   1       2.959   1.709   0.283  0.00  0.00    -0.083 A 
HETATM    2  C   UNK N   1       2.303   0.760  -0.351  0.00  0.00    -0.018 A 
HETATM    3  C   UNK N   1       0.972   1.229  -0.860  0.00  0.00     0.023 A 
HETATM    4  C   UNK N   1       0.877   2.660  -0.297  0.00  0.00    -0.001 A 
HETATM    5  C   UNK N   1       2.213   2.984   0.376  0.00  0.00     0.039 A 
HETATM    6  C   UNK N   1      -0.142   2.181   0.731  0.00  0.00     0.018 C 
HETATM    7  C   UNK N   1      -0.234   0.845   0.008  0.00  0.00    -0.008 C 
ENDROOT
BRANCH   7   8
HETATM    8  C   UNK N   1      -1.486   0.769  -0.882  0.00  0.00     0.121 C 
BRANCH   8   9
HETATM    9  C   UNK N   1      -2.773   1.017  -0.154  0.00  0.00     0.140 C 
HETATM   10  O   UNK N   1      -3.598   0.124  -0.051  0.00  0.00    -0.650 OA
BRANCH   9  11
HETATM   11  O   UNK N   1      -3.050   2.242   0.333  0.00  0.00    -0.776 OA
HETATM   12  H   UNK N   1      -2.408   2.834   0.672  0.00  0.00     0.167 HD
ENDBRANCH   9  11
ENDBRANCH   8   9
ENDBRANCH   7   8
BRANCH   7  13
HETATM   13  C   UNK N   1      -0.070  -0.367   0.931  0.00  0.00     0.121 C 
BRANCH  13  14
HETATM   14  N   UNK N   1       0.091  -1.588   0.156  0.00  0.00    -0.429 N 
HETATM   15  H   UNK N   1      -0.593  -2.114  -0.387  0.00  0.00     0.149 HD
HETATM   16  H   UNK N   1       1.034  -1.977   0.156  0.00  0.00     0.149 HD
ENDBRANCH  13  14
ENDBRANCH   7  13
BRANCH   1  17
HETATM   17  C   UNK N   1       4.324   1.509   0.851  0.00  0.00     0.029 C 
HETATM   18  C   UNK N   1       5.309   2.452   0.184  0.00  0.00     0.010 C 
ENDBRANCH   1  17
TORSDOF 6
