REMARK  5 active torsions:
REMARK  status: ('A' for Active; 'I' for Inactive)
REMARK    1  A    between atoms: C_3  and  C_28 
REMARK    2  A    between atoms: C_6  and  C_7 
REMARK       I    between atoms: C_12  and  N_15 
REMARK    3  A    between atoms: N_15  and  C_16 
REMARK    4  A    between atoms: C_19  and  N_22 
REMARK       I    between atoms: C_28  and  N_30 
REMARK    5  A    between atoms: N_30  and  C_31 
ROOT
HETATM    1  C   UNK N   1       0.329 -13.150  -0.087  0.00  0.00     0.247 C 
HETATM    2  C   UNK N   1       1.786 -12.970  -0.023  0.00  0.00     0.078 C 
HETATM    3  N   UNK N   1       2.923 -12.754   0.037  0.00  0.00    -0.196 NA
ENDROOT
BRANCH   1   4
HETATM    4  N   UNK N   1      -0.211 -11.828  -0.047  0.00  0.00    -0.345 N 
HETATM    5  C   UNK N   1      -1.508 -11.430  -0.084  0.00  0.00     0.252 C 
HETATM    6  O   UNK N   1      -2.424 -12.233  -0.168  0.00  0.00    -0.268 OA
HETATM    7  H   UNK N   1       0.452 -11.103   0.015  0.00  0.00     0.163 HD
BRANCH   5   8
HETATM    8  C   UNK N   1      -1.734  -9.981  -0.014  0.00  0.00     0.032 A 
HETATM    9  C   UNK N   1      -0.575  -9.226   0.046  0.00  0.00     0.018 A 
HETATM   10  C   UNK N   1      -0.618  -7.878   0.119  0.00  0.00     0.014 A 
HETATM   11  C   UNK N   1      -1.820  -7.191   0.145  0.00  0.00    -0.009 A 
HETATM   12  C   UNK N   1      -3.033  -7.911   0.087  0.00  0.00     0.014 A 
HETATM   13  C   UNK N   1      -2.989  -9.327   0.002  0.00  0.00     0.018 A 
BRANCH  11  14
HETATM   14  C   UNK N   1      -1.667  -5.741   0.221  0.00  0.00     0.060 A 
HETATM   15  C   UNK N   1      -2.720  -4.832   0.345  0.00  0.00     0.048 A 
HETATM   16  C   UNK N   1      -2.398  -3.470   0.408  0.00  0.00     0.108 A 
HETATM   17  N   UNK N   1      -1.097  -3.071   0.327  0.00  0.00    -0.202 N 
HETATM   18  C   UNK N   1      -0.093  -3.986   0.191  0.00  0.00     0.683 A 
ATOM     19  HN  UNK N   1      -0.871  -2.077   0.369  1.00  0.00     0.183 HD
HETATM   20  N   UNK N   1      -0.393  -5.282   0.157  0.00  0.00    -0.191 N 
HETATM   21  N   UNK N   1       1.267  -3.596   0.094  0.00  0.00    -0.192 N 
ATOM     22  HN  UNK N   1       0.367  -5.958   0.079  1.00  0.00     0.184 HD
HETATM   23  H   UNK N   1       1.982  -4.255   0.249  0.00  0.00     0.184 HD
BRANCH  21  24
HETATM   24  C   UNK N   1       1.590  -2.271  -0.224  0.00  0.00     0.049 A 
HETATM   25  C   UNK N   1       0.777  -1.575  -1.118  0.00  0.00     0.032 A 
HETATM   26  C   UNK N   1       0.869  -0.206  -1.217  0.00  0.00     0.031 A 
HETATM   27  C   UNK N   1       1.774   0.497  -0.417  0.00  0.00     0.030 A 
HETATM   28  C   UNK N   1       2.667  -0.213   0.409  0.00  0.00     0.031 A 
HETATM   29  C   UNK N   1       2.571  -1.603   0.508  0.00  0.00     0.032 A 
BRANCH  27  30
HETATM   30  N   UNK N   1       1.729   1.917  -0.408  0.00  0.00    -0.377 N 
HETATM   31  C   UNK N   1       0.656   2.606  -1.106  0.00  0.00     0.149 C 
HETATM   32  C   UNK N   1       0.077   3.680  -0.193  0.00  0.00     0.187 C 
HETATM   33  O   UNK N   1       1.125   4.533   0.187  0.00  0.00    -0.388 OA
HETATM   34  C   UNK N   1       1.881   3.808   1.125  0.00  0.00     0.187 C 
HETATM   35  C   UNK N   1       2.647   2.688   0.412  0.00  0.00     0.149 C 
ENDBRANCH  27  30
ENDBRANCH  21  24
ENDBRANCH  11  14
ENDBRANCH   5   8
ENDBRANCH   1   4
TORSDOF 5
