REMARK  3 active torsions:
REMARK  status: ('A' for Active; 'I' for Inactive)
REMARK    1  A    between atoms: C_13  and  O_21 
REMARK    2  A    between atoms: C_17  and  C_15 
REMARK    3  A    between atoms: O_21  and  C_17 
ROOT
HETATM    1  C   UNK N   1       1.182   2.920   0.635  0.00  0.00     0.296 C 
HETATM    2  O   UNK N   1       0.209   2.880   1.364  0.00  0.00    -0.259 OA
ENDROOT
BRANCH   1   3
HETATM    3  C   UNK N   1       1.849   1.668   0.272  0.00  0.00     0.067 A 
HETATM    4  C   UNK N   1       3.143   1.482  -0.198  0.00  0.00     0.107 A 
HETATM    5  N   UNK N   1       3.329   0.167  -0.495  0.00  0.00    -0.364 N 
HETATM    6  C   UNK N   1       2.155  -0.441  -0.246  0.00  0.00     0.043 A 
HETATM    7  H   UNK N   1       4.155  -0.254  -0.827  0.00  0.00     0.165 HD
HETATM    8  C   UNK N   1       1.832  -1.778  -0.472  0.00  0.00     0.030 A 
HETATM    9  C   UNK N   1       1.234   0.443   0.227  0.00  0.00     0.008 A 
HETATM   10  C   UNK N   1       0.510  -2.188  -0.207  0.00  0.00     0.002 A 
HETATM   11  C   UNK N   1      -0.445  -1.264   0.274  0.00  0.00     0.001 A 
HETATM   12  C   UNK N   1      -0.082   0.074   0.497  0.00  0.00     0.015 A 
ENDBRANCH   1   3
BRANCH   1  13
HETATM   13  O   UNK N   1       1.529   4.072   0.006  0.00  0.00    -0.312 OA
BRANCH  13  14
HETATM   14  C   UNK N   1       0.599   5.032  -0.378  0.00  0.00     0.136 C 
HETATM   15  C   UNK N   1      -0.046   5.769   0.823  0.00  0.00     0.068 C 
HETATM   16  C   UNK N   1      -1.590   5.753   0.860  0.00  0.00     0.225 C 
HETATM   17  C   UNK N   1      -2.079   4.403   1.366  0.00  0.00     0.038 C 
HETATM   18  N   UNK N   1      -2.114   5.889  -0.501  0.00  0.00     0.093 N 
HETATM   19  C   UNK N   1      -2.214   3.570   0.102  0.00  0.00     0.038 C 
HETATM   20  C   UNK N   1      -1.879   4.543  -1.025  0.00  0.00     0.225 C 
HETATM   21  C   UNK N   1      -0.396   4.434  -1.408  0.00  0.00     0.068 C 
HETATM   22  C   UNK N   1      -3.554   6.161  -0.459  0.00  0.00     0.310 C 
ENDBRANCH  13  14
ENDBRANCH   1  13
TORSDOF 3
