MODEL 1
REMARK VINA RESULT:      -7.0      0.000      0.000
REMARK WARNING: 32 MAX_TORS EXCEEDED!!!
REMARK  46 active torsions:
REMARK  status: ('A' for Active; 'I' for Inactive)
REMARK    1  A    between atoms: C_12  and  C_11 
REMARK    2  A    between atoms: C_19  and  C_11 
REMARK    3  A    between atoms: C_21  and  C_12 
REMARK    4  A    between atoms: C_43  and  C_19 
REMARK    5  A    between atoms: C_22  and  C_20 
REMARK    6  A    between atoms: C_41  and  C_20 
REMARK    7  A    between atoms: N_63  and  C_21 
REMARK    8  A    between atoms: N_81  and  C_22 
REMARK    9  A    between atoms: C_24  and  C_23 
REMARK   10  A    between atoms: N_81  and  C_23 
REMARK   11  A    between atoms: N_82  and  C_24 
REMARK   12  A    between atoms: C_37  and  C_25 
REMARK   13  A    between atoms: C_44  and  C_25 
REMARK   14  A    between atoms: C_38  and  C_26 
REMARK   15  A    between atoms: C_45  and  C_26 
REMARK   16  A    between atoms: C_39  and  C_27 
REMARK   17  A    between atoms: C_46  and  C_27 
REMARK   18  A    between atoms: C_50  and  C_29 
REMARK   19  A    between atoms: N_82  and  C_29 
REMARK   20  A    between atoms: C_51  and  C_30 
REMARK   21  A    between atoms: N_81  and  C_30 
REMARK   22  A    between atoms: C_52  and  C_31 
REMARK   23  A    between atoms: N_82  and  C_31 
REMARK   24  A    between atoms: C_47  and  C_32 
REMARK   25  A    between atoms: O_83  and  C_32 
REMARK   26  A    between atoms: C_47  and  C_35 
REMARK   27  A    between atoms: O_84  and  C_35 
REMARK   28  A    between atoms: C_53  and  C_36 
REMARK   29  A    between atoms: O_85  and  C_36 
REMARK   30  A    between atoms: C_61  and  C_41 
REMARK   31  A    between atoms: C_62  and  C_41 
REMARK   32  A    between atoms: C_55  and  C_44 
REMARK   33  A    between atoms: N_65  and  C_44 
REMARK   34  A    between atoms: N_73  and  C_47 
REMARK   35  A    between atoms: N_75  and  C_48 
REMARK   36  A    between atoms: C_59  and  C_49 
REMARK   37  A    between atoms: O_86  and  C_50 
REMARK   38  A    between atoms: O_92  and  C_54 
REMARK   39  A    between atoms: O_94  and  C_55 
REMARK   40  A    between atoms: O_95  and  C_56 
REMARK   41  A    between atoms: O_96  and  C_57 
REMARK   42  A    between atoms: O_97  and  C_58 
REMARK   43  A    between atoms: O_98  and  C_59 
REMARK   44  A    between atoms: O_101  and  C_61 
REMARK   45  A    between atoms: O_103  and  C_62 
REMARK   46  A    between atoms: In_106  and  In_106 
ROOT
HETATM    1  C   UNK N   1      30.179  13.712   2.214  0.00  0.00     0.119 C 
HETATM    2  C   UNK N   1      26.918  11.832   3.426  0.00  0.00     0.119 C 
HETATM    3  C   UNK N   1      21.380  14.049   5.202  0.00  0.00     0.158 C 
HETATM    4  C   UNK N   1      28.062  15.264   5.328  0.00  0.00     0.162 C 
HETATM    5  C   UNK N   1      24.842  13.749   6.670  0.00  0.00     0.162 C 
HETATM    6  C   UNK N   1      30.434  14.336   3.574  0.00  0.00     0.168 C 
HETATM    7  C   UNK N   1      25.542  12.026   2.784  0.00  0.00     0.168 C 
HETATM    8  C   UNK N   1      23.031  13.527   2.806  0.00  0.00     0.186 C 
HETATM    9  C   UNK N   1      21.424  14.924   3.975  0.00  0.00     0.135 C 
HETATM   10  C   UNK N   1      26.728  15.142   6.031  0.00  0.00     0.135 C 
HETATM   11  C   UNK N   1      23.610  14.376   6.084  0.00  0.00     0.135 C 
HETATM   12  C   UNK N   1      29.759  13.568   4.701  0.00  0.00     0.136 C 
HETATM   13  C   UNK N   1      24.339  14.058   2.251  0.00  0.00     0.138 C 
HETATM   14  N   UNK N   1      22.670  13.597   5.679  0.00  0.00    -0.361 N 
ATOM     15  HN  UNK N   1      22.845  12.593   5.695  1.00  0.00     0.162 HD
HETATM   16  N   UNK N   1      28.766  13.995   5.417  0.00  0.00    -0.360 N 
ATOM     17  HN  UNK N   1      28.435  13.357   6.140  1.00  0.00     0.162 HD
HETATM   18  N   UNK N   1      26.071  14.031   5.953  0.00  0.00    -0.360 N 
ATOM     19  HN  UNK N   1      26.444  13.302   5.345  1.00  0.00     0.162 HD
HETATM   20  N   UNK N   1      25.424  13.360   2.246  0.00  0.00    -0.360 N 
ATOM     21  HN  UNK N   1      26.256  13.780   1.832  1.00  0.00     0.162 HD
HETATM   22  N   UNK N   1      22.100  14.632   2.918  0.00  0.00    -0.358 N 
ATOM     23  HN  UNK N   1      21.971  15.223   2.097  1.00  0.00     0.162 HD
HETATM   24  O   UNK N   1      24.385  15.313   1.760  0.00  0.00    -0.348 OA
HETATM   25  S   UNK N   1      28.423  13.721   1.763  0.00  0.00    -0.095 SA
HETATM   26  S   UNK N   1      28.238  11.636   2.180  0.00  0.00    -0.095 SA
HETATM   27  H   UNK N   1      24.347  16.130   1.302  0.00  0.00     0.219 HD
ENDROOT
BRANCH   8  28
HETATM   28  C   UNK N   1      22.454  12.390   1.947  0.00  0.00     0.144 C 
HETATM   29  C   UNK N   1      21.256  12.815   1.112  0.00  0.00     0.042 C 
BRANCH  28  30
HETATM   30  O   UNK N   1      22.103  11.301   2.739  0.00  0.00    -0.393 OA
HETATM   31  H   UNK N   1      22.291  10.350   2.773  0.00  0.00     0.210 HD
ENDBRANCH  28  30
ENDBRANCH   8  28
BRANCH   7  32
HETATM   32  C   UNK N   1      25.158  10.892   1.836  0.00  0.00     0.136 C 
HETATM   33  N   UNK N   1      24.902   9.678   2.214  0.00  0.00    -0.364 N 
ATOM     34  HN  UNK N   1      24.717   8.986   1.488  1.00  0.00     0.162 HD
BRANCH  33  35
HETATM   35  C   UNK N   1      24.861   9.235   3.591  0.00  0.00     0.135 C 
BRANCH  35  36
HETATM   36  C   UNK N   1      26.105   8.431   3.945  0.00  0.00     0.191 C 
BRANCH  36  37
HETATM   37  O   UNK N   1      26.532   8.716   5.243  0.00  0.00    -0.399 OA
HETATM   38  H   UNK N   1      27.142   9.439   5.457  0.00  0.00     0.209 HD
ENDBRANCH  36  37
ENDBRANCH  35  36
BRANCH  35  39
HETATM   39  C   UNK N   1      23.616   8.404   3.854  0.00  0.00     0.138 C 
HETATM   40  C   UNK N   1      23.046   8.764   5.213  0.00  0.00     0.041 C 
BRANCH  39  41
HETATM   41  O   UNK N   1      22.655   8.636   2.874  0.00  0.00    -0.394 OA
HETATM   42  H   UNK N   1      22.178   8.173   2.169  0.00  0.00     0.210 HD
ENDBRANCH  39  41
ENDBRANCH  35  39
ENDBRANCH  33  35
BRANCH  32  43
HETATM   43  O   UNK N   1      25.086  11.181   0.523  0.00  0.00    -0.348 OA
HETATM   44  H   UNK N   1      25.183  11.639  -0.289  0.00  0.00     0.219 HD
ENDBRANCH  32  43
ENDBRANCH   7  32
BRANCH   9  45
HETATM   45  O   UNK N   1      20.677  16.042   3.974  0.00  0.00    -0.348 OA
ATOM     46  HO  UNK N   1      20.783  16.647   3.249  1.00  0.00     0.219 HD
ENDBRANCH   9  45
BRANCH   3  47
HETATM   47  C   UNK N   1      20.462  12.861   4.955  0.00  0.00     0.033 C 
BRANCH  47  48
HETATM   48  C   UNK N   1      20.714  11.713   5.930  0.00  0.00     0.004 C 
BRANCH  48  49
HETATM   49  C   UNK N   1      19.924  10.448   5.585  0.00  0.00     0.019 C 
BRANCH  49  50
HETATM   50  C   UNK N   1      19.171  10.557   4.264  0.00  0.00     0.111 C 
BRANCH  50  51
HETATM   51  N   UNK N   1      19.757   9.677   3.270  0.00  0.00    -0.430 N 
HETATM   52  H   UNK N   1      20.433   9.993   2.575  0.00  0.00     0.149 HD
HETATM   53  H   UNK N   1      19.479   8.696   3.266  0.00  0.00     0.149 HD
ENDBRANCH  50  51
ENDBRANCH  49  50
ENDBRANCH  48  49
ENDBRANCH  47  48
ENDBRANCH   3  47
BRANCH  11  54
HETATM   54  O   UNK N   1      23.464  15.718   6.057  0.00  0.00    -0.348 OA
HETATM   55  H   UNK N   1      23.180  16.578   6.299  0.00  0.00     0.219 HD
ENDBRANCH  11  54
BRANCH   5  56
HETATM   56  C   UNK N   1      25.021  13.831   8.201  0.00  0.00     0.074 C 
BRANCH  56  57
HETATM   57  C   UNK N   1      24.064  13.017   9.022  0.00  0.00    -0.028 A 
HETATM   58  C   UNK N   1      24.315  11.784   9.622  0.00  0.00     0.096 A 
HETATM   59  N   UNK N   1      23.208  11.370  10.289  0.00  0.00    -0.365 N 
HETATM   60  C   UNK N   1      22.284  12.334  10.113  0.00  0.00     0.042 A 
HETATM   61  H   UNK N   1      23.101  10.534  10.798  0.00  0.00     0.165 HD
HETATM   62  C   UNK N   1      20.987  12.354  10.617  0.00  0.00     0.030 A 
HETATM   63  C   UNK N   1      22.777  13.353   9.348  0.00  0.00    -0.002 A 
HETATM   64  C   UNK N   1      20.185  13.470  10.314  0.00  0.00     0.002 A 
HETATM   65  C   UNK N   1      20.696  14.526   9.524  0.00  0.00     0.001 A 
HETATM   66  C   UNK N   1      22.011  14.473   9.031  0.00  0.00     0.014 A 
ENDBRANCH  56  57
ENDBRANCH   5  56
BRANCH   6  67
HETATM   67  N   UNK N   1      30.213  15.757   3.551  0.00  0.00    -0.360 N 
HETATM   68  C   UNK N   1      31.173  16.618   3.654  0.00  0.00     0.135 C 
ATOM     69  HN  UNK N   1      29.259  16.101   3.450  1.00  0.00     0.162 HD
BRANCH  68  70
HETATM   70  C   UNK N   1      32.634  16.225   3.758  0.00  0.00     0.162 C 
BRANCH  70  71
HETATM   71  C   UNK N   1      33.479  17.283   4.468  0.00  0.00     0.072 C 
BRANCH  71  72
HETATM   72  C   UNK N   1      33.447  17.136   5.955  0.00  0.00    -0.056 A 
HETATM   73  C   UNK N   1      34.542  16.558   6.606  0.00  0.00     0.007 A 
HETATM   74  C   UNK N   1      34.539  16.416   7.997  0.00  0.00     0.001 A 
HETATM   75  C   UNK N   1      33.441  16.857   8.742  0.00  0.00     0.000 A 
HETATM   76  C   UNK N   1      32.347  17.443   8.096  0.00  0.00     0.001 A 
HETATM   77  C   UNK N   1      32.350  17.585   6.704  0.00  0.00     0.007 A 
ENDBRANCH  71  72
ENDBRANCH  70  71
BRANCH  70  78
HETATM   78  N   UNK N   1      32.843  14.910   4.339  0.00  0.00    -0.361 N 
HETATM   79  C   UNK N   1      33.668  14.051   3.838  0.00  0.00     0.141 C 
ATOM     80  HN  UNK N   1      32.317  14.655   5.175  1.00  0.00     0.162 HD
BRANCH  79  81
HETATM   81  C   UNK N   1      34.004  12.798   4.596  0.00  0.00     0.356 C 
BRANCH  81  82
HETATM   82  N   UNK N   1      34.495  12.919   5.977  0.00  0.00     0.107 N 
BRANCH  82  83
HETATM   83  C   UNK N   1      35.836  12.399   6.262  0.00  0.00     0.303 C 
BRANCH  83  84
HETATM   84  C   UNK N   1      35.811  11.604   7.582  0.00  0.00     0.303 C 
BRANCH  84  85
HETATM   85  N   UNK N   1      36.674  12.154   8.637  0.00  0.00     0.100 N 
BRANCH  85  86
HETATM   86  C   UNK N   1      35.870  13.084   9.429  0.00  0.00     0.274 C 
BRANCH  86  87
HETATM   87  C   UNK N   1      35.373  12.441  10.725  0.00  0.00     0.056 C 
BRANCH  87  88
HETATM   88  C   UNK N   1      35.298  13.404  11.928  0.00  0.00     0.182 C 
BRANCH  88  89
HETATM   89  C   UNK N   1      36.604  13.527  12.658  0.00  0.00     0.154 C 
HETATM   90  O   UNK N   1      37.537  12.783  12.398  0.00  0.00    -0.649 OA
BRANCH  89  91
HETATM   91  O   UNK N   1      36.756  14.484  13.594  0.00  0.00    -0.776 OA
HETATM   92  H   UNK N   1      37.139  14.365  14.441  0.00  0.00     0.167 HD
ENDBRANCH  89  91
ENDBRANCH  88  89
BRANCH  88  93
HETATM   93  C   UNK N   1      34.733  14.764  11.609  0.00  0.00     0.154 C 
HETATM   94  O   UNK N   1      35.445  15.756  11.603  0.00  0.00    -0.649 OA
BRANCH  93  95
HETATM   95  O   UNK N   1      33.424  14.886  11.315  0.00  0.00    -0.776 OA
HETATM   96  H   UNK N   1      33.137  15.270  10.511  0.00  0.00     0.167 HD
ENDBRANCH  93  95
ENDBRANCH  88  93
ENDBRANCH  87  88
ENDBRANCH  86  87
ENDBRANCH  85  86
BRANCH  85  97
HETATM   97  C   UNK N   1      37.735  12.961   8.043  0.00  0.00     0.385 C 
BRANCH  97  98
HETATM   98  C   UNK N   1      38.682  13.430   9.099  0.00  0.00     0.202 C 
HETATM   99  O   UNK N   1      39.447  12.645   9.632  0.00  0.00    -0.647 OA
HETATM  100  O   UNK N   1      38.679  14.721   9.476  0.00  0.00    -0.647 OA
ENDBRANCH  97  98
ENDBRANCH  85  97
ENDBRANCH  84  85
ENDBRANCH  83  84
ENDBRANCH  82  83
BRANCH  82 101
HETATM  101  C   UNK N   1      33.498  12.306   6.867  0.00  0.00     0.385 C 
BRANCH 101 102
HETATM  102  C   UNK N   1      32.597  13.291   7.581  0.00  0.00     0.202 C 
HETATM  103  O   UNK N   1      32.627  13.354   8.798  0.00  0.00    -0.647 OA
HETATM  104  O   UNK N   1      31.768  14.106   6.896  0.00  0.00    -0.647 OA
ENDBRANCH 101 102
ENDBRANCH  82 101
ENDBRANCH  81  82
ENDBRANCH  79  81
BRANCH  79 105
HETATM  105  O   UNK N   1      34.361  14.335   2.716  0.00  0.00    -0.348 OA
ATOM    106  HO  UNK N   1      35.285  14.542   2.790  1.00  0.00     0.219 HD
ENDBRANCH  79 105
ENDBRANCH  70  78
ENDBRANCH  68  70
BRANCH  68 107
HETATM  107  O   UNK N   1      30.870  17.928   3.688  0.00  0.00    -0.348 OA
HETATM  108  H   UNK N   1      30.402  18.701   3.938  0.00  0.00     0.219 HD
ENDBRANCH  68 107
ENDBRANCH   6  67
BRANCH  12 109
HETATM  109  O   UNK N   1      30.221  12.328   4.948  0.00  0.00    -0.348 OA
HETATM  110  H   UNK N   1      30.697  11.596   5.290  0.00  0.00     0.219 HD
ENDBRANCH  12 109
BRANCH  10 111
HETATM  111  O   UNK N   1      26.258  16.165   6.778  0.00  0.00    -0.348 OA
HETATM  112  H   UNK N   1      25.879  16.981   6.517  0.00  0.00     0.219 HD
ENDBRANCH  10 111
BRANCH   4 113
HETATM  113  C   UNK N   1      28.881  16.431   5.921  0.00  0.00     0.072 C 
BRANCH 113 114
HETATM  114  C   UNK N   1      28.304  17.799   5.687  0.00  0.00    -0.056 A 
HETATM  115  C   UNK N   1      28.243  18.719   6.738  0.00  0.00     0.007 A 
HETATM  116  C   UNK N   1      27.673  19.980   6.533  0.00  0.00     0.001 A 
HETATM  117  C   UNK N   1      27.155  20.321   5.280  0.00  0.00     0.000 A 
HETATM  118  C   UNK N   1      27.204  19.400   4.231  0.00  0.00     0.001 A 
HETATM  119  C   UNK N   1      27.773  18.141   4.436  0.00  0.00     0.007 A 
ENDBRANCH 113 114
ENDBRANCH   4 113
TORSDOF 46
ENDMDL
MODEL 2
REMARK VINA RESULT:      -7.0      1.965      3.357
REMARK WARNING: 32 MAX_TORS EXCEEDED!!!
REMARK  46 active torsions:
REMARK  status: ('A' for Active; 'I' for Inactive)
REMARK    1  A    between atoms: C_12  and  C_11 
REMARK    2  A    between atoms: C_19  and  C_11 
REMARK    3  A    between atoms: C_21  and  C_12 
REMARK    4  A    between atoms: C_43  and  C_19 
REMARK    5  A    between atoms: C_22  and  C_20 
REMARK    6  A    between atoms: C_41  and  C_20 
REMARK    7  A    between atoms: N_63  and  C_21 
REMARK    8  A    between atoms: N_81  and  C_22 
REMARK    9  A    between atoms: C_24  and  C_23 
REMARK   10  A    between atoms: N_81  and  C_23 
REMARK   11  A    between atoms: N_82  and  C_24 
REMARK   12  A    between atoms: C_37  and  C_25 
REMARK   13  A    between atoms: C_44  and  C_25 
REMARK   14  A    between atoms: C_38  and  C_26 
REMARK   15  A    between atoms: C_45  and  C_26 
REMARK   16  A    between atoms: C_39  and  C_27 
REMARK   17  A    between atoms: C_46  and  C_27 
REMARK   18  A    between atoms: C_50  and  C_29 
REMARK   19  A    between atoms: N_82  and  C_29 
REMARK   20  A    between atoms: C_51  and  C_30 
REMARK   21  A    between atoms: N_81  and  C_30 
REMARK   22  A    between atoms: C_52  and  C_31 
REMARK   23  A    between atoms: N_82  and  C_31 
REMARK   24  A    between atoms: C_47  and  C_32 
REMARK   25  A    between atoms: O_83  and  C_32 
REMARK   26  A    between atoms: C_47  and  C_35 
REMARK   27  A    between atoms: O_84  and  C_35 
REMARK   28  A    between atoms: C_53  and  C_36 
REMARK   29  A    between atoms: O_85  and  C_36 
REMARK   30  A    between atoms: C_61  and  C_41 
REMARK   31  A    between atoms: C_62  and  C_41 
REMARK   32  A    between atoms: C_55  and  C_44 
REMARK   33  A    between atoms: N_65  and  C_44 
REMARK   34  A    between atoms: N_73  and  C_47 
REMARK   35  A    between atoms: N_75  and  C_48 
REMARK   36  A    between atoms: C_59  and  C_49 
REMARK   37  A    between atoms: O_86  and  C_50 
REMARK   38  A    between atoms: O_92  and  C_54 
REMARK   39  A    between atoms: O_94  and  C_55 
REMARK   40  A    between atoms: O_95  and  C_56 
REMARK   41  A    between atoms: O_96  and  C_57 
REMARK   42  A    between atoms: O_97  and  C_58 
REMARK   43  A    between atoms: O_98  and  C_59 
REMARK   44  A    between atoms: O_101  and  C_61 
REMARK   45  A    between atoms: O_103  and  C_62 
REMARK   46  A    between atoms: In_106  and  In_106 
ROOT
HETATM    1  C   UNK N   1      29.218  12.563   2.654  0.00  0.00     0.119 C 
HETATM    2  C   UNK N   1      25.475  11.821   3.694  0.00  0.00     0.119 C 
HETATM    3  C   UNK N   1      20.264  15.069   2.682  0.00  0.00     0.158 C 
HETATM    4  C   UNK N   1      26.905  15.638   3.988  0.00  0.00     0.162 C 
HETATM    5  C   UNK N   1      23.251  15.272   4.977  0.00  0.00     0.162 C 
HETATM    6  C   UNK N   1      29.331  13.764   3.574  0.00  0.00     0.168 C 
HETATM    7  C   UNK N   1      24.315  11.774   2.697  0.00  0.00     0.168 C 
HETATM    8  C   UNK N   1      22.200  13.279   1.345  0.00  0.00     0.186 C 
HETATM    9  C   UNK N   1      20.715  15.199   1.249  0.00  0.00     0.135 C 
HETATM   10  C   UNK N   1      25.465  15.995   4.285  0.00  0.00     0.135 C 
HETATM   11  C   UNK N   1      22.305  15.616   3.862  0.00  0.00     0.135 C 
HETATM   12  C   UNK N   1      28.313  13.727   4.706  0.00  0.00     0.136 C 
HETATM   13  C   UNK N   1      23.670  13.349   0.975  0.00  0.00     0.138 C 
HETATM   14  N   UNK N   1      21.321  14.817   3.637  0.00  0.00    -0.361 N 
ATOM     15  HN  UNK N   1      21.284  13.948   4.168  1.00  0.00     0.162 HD
HETATM   16  N   UNK N   1      27.309  14.536   4.845  0.00  0.00    -0.360 N 
ATOM     17  HN  UNK N   1      26.725  14.378   5.666  1.00  0.00     0.162 HD
HETATM   18  N   UNK N   1      24.625  15.054   4.566  0.00  0.00    -0.360 N 
ATOM     19  HN  UNK N   1      24.951  14.090   4.495  1.00  0.00     0.162 HD
HETATM   20  N   UNK N   1      24.572  12.659   1.586  0.00  0.00    -0.360 N 
ATOM     21  HN  UNK N   1      25.535  12.745   1.261  1.00  0.00     0.162 HD
HETATM   22  N   UNK N   1      21.507  14.360   0.675  0.00  0.00    -0.358 N 
ATOM     23  HN  UNK N   1      21.658  14.465  -0.328  1.00  0.00     0.162 HD
HETATM   24  O   UNK N   1      24.059  14.178  -0.015  0.00  0.00    -0.348 OA
HETATM   25  S   UNK N   1      27.618  12.485   1.804  0.00  0.00    -0.095 SA
HETATM   26  S   UNK N   1      26.941  10.917   3.085  0.00  0.00    -0.095 SA
HETATM   27  H   UNK N   1      24.275  14.653  -0.794  0.00  0.00     0.219 HD
ENDROOT
BRANCH   8  28
HETATM   28  C   UNK N   1      21.580  11.915   1.003  0.00  0.00     0.144 C 
HETATM   29  C   UNK N   1      20.406  12.012   0.040  0.00  0.00     0.042 C 
BRANCH  28  30
HETATM   30  O   UNK N   1      21.176  11.250   2.157  0.00  0.00    -0.393 OA
HETATM   31  H   UNK N   1      21.593  10.764   2.886  0.00  0.00     0.210 HD
ENDBRANCH  28  30
ENDBRANCH   8  28
BRANCH   7  32
HETATM   32  C   UNK N   1      23.897  10.353   2.328  0.00  0.00     0.136 C 
HETATM   33  N   UNK N   1      23.472   9.472   3.180  0.00  0.00    -0.364 N 
ATOM     34  HN  UNK N   1      23.280   8.532   2.833  1.00  0.00     0.162 HD
BRANCH  33  35
HETATM   35  C   UNK N   1      23.251   9.725   4.588  0.00  0.00     0.135 C 
BRANCH  35  36
HETATM   36  C   UNK N   1      24.228   8.932   5.446  0.00  0.00     0.191 C 
BRANCH  36  37
HETATM   37  O   UNK N   1      23.896   7.577   5.458  0.00  0.00    -0.399 OA
HETATM   38  H   UNK N   1      23.266   7.176   4.839  0.00  0.00     0.209 HD
ENDBRANCH  36  37
ENDBRANCH  35  36
BRANCH  35  39
HETATM   39  C   UNK N   1      21.824   9.385   4.980  0.00  0.00     0.138 C 
HETATM   40  C   UNK N   1      21.222  10.546   5.749  0.00  0.00     0.041 C 
BRANCH  39  41
HETATM   41  O   UNK N   1      21.051   9.130   3.850  0.00  0.00    -0.394 OA
HETATM   42  H   UNK N   1      20.229   8.689   3.591  0.00  0.00     0.210 HD
ENDBRANCH  39  41
ENDBRANCH  35  39
ENDBRANCH  33  35
BRANCH  32  43
HETATM   43  O   UNK N   1      23.983   9.999   1.032  0.00  0.00    -0.348 OA
HETATM   44  H   UNK N   1      24.340   9.712   0.214  0.00  0.00     0.219 HD
ENDBRANCH  32  43
ENDBRANCH   7  32
BRANCH   9  45
HETATM   45  O   UNK N   1      20.223  16.221   0.526  0.00  0.00    -0.348 OA
ATOM     46  HO  UNK N   1      20.000  16.054  -0.383  1.00  0.00     0.219 HD
ENDBRANCH   9  45
BRANCH   3  47
HETATM   47  C   UNK N   1      19.189  13.997   2.788  0.00  0.00     0.033 C 
BRANCH  47  48
HETATM   48  C   UNK N   1      19.174  13.315   4.154  0.00  0.00     0.004 C 
BRANCH  48  49
HETATM   49  C   UNK N   1      18.330  12.039   4.179  0.00  0.00     0.019 C 
BRANCH  49  50
HETATM   50  C   UNK N   1      17.917  11.570   2.788  0.00  0.00     0.111 C 
BRANCH  50  51
HETATM   51  N   UNK N   1      18.400  10.225   2.540  0.00  0.00    -0.430 N 
HETATM   52  H   UNK N   1      18.405   9.797   1.614  0.00  0.00     0.149 HD
HETATM   53  H   UNK N   1      18.751   9.682   3.328  0.00  0.00     0.149 HD
ENDBRANCH  50  51
ENDBRANCH  49  50
ENDBRANCH  48  49
ENDBRANCH  47  48
ENDBRANCH   3  47
BRANCH  11  54
HETATM   54  O   UNK N   1      22.440  16.768   3.171  0.00  0.00    -0.348 OA
HETATM   55  H   UNK N   1      22.691  17.646   2.964  0.00  0.00     0.219 HD
ENDBRANCH  11  54
BRANCH   5  56
HETATM   56  C   UNK N   1      23.149  16.100   6.275  0.00  0.00     0.074 C 
BRANCH  56  57
HETATM   57  C   UNK N   1      21.971  15.803   7.156  0.00  0.00    -0.028 A 
HETATM   58  C   UNK N   1      20.745  16.465   7.165  0.00  0.00     0.096 A 
HETATM   59  N   UNK N   1      19.930  15.900   8.092  0.00  0.00    -0.365 N 
HETATM   60  C   UNK N   1      20.636  14.896   8.646  0.00  0.00     0.042 A 
HETATM   61  H   UNK N   1      19.010  16.170   8.315  0.00  0.00     0.165 HD
HETATM   62  C   UNK N   1      20.211  14.026   9.646  0.00  0.00     0.030 A 
HETATM   63  C   UNK N   1      21.882  14.809   8.094  0.00  0.00    -0.002 A 
HETATM   64  C   UNK N   1      21.115  13.036  10.079  0.00  0.00     0.002 A 
HETATM   65  C   UNK N   1      22.404  12.945   9.506  0.00  0.00     0.001 A 
HETATM   66  C   UNK N   1      22.800  13.841   8.497  0.00  0.00     0.014 A 
ENDBRANCH  56  57
ENDBRANCH   5  56
BRANCH   6  67
HETATM   67  N   UNK N   1      29.409  14.993   2.830  0.00  0.00    -0.360 N 
HETATM   68  C   UNK N   1      30.385  15.831   2.961  0.00  0.00     0.135 C 
ATOM     69  HN  UNK N   1      28.663  15.212   2.170  1.00  0.00     0.162 HD
BRANCH  68  70
HETATM   70  C   UNK N   1      31.573  15.588   3.872  0.00  0.00     0.162 C 
BRANCH  70  71
HETATM   71  C   UNK N   1      32.910  15.816   3.168  0.00  0.00     0.072 C 
BRANCH  71  72
HETATM   72  C   UNK N   1      33.560  14.537   2.746  0.00  0.00    -0.056 A 
HETATM   73  C   UNK N   1      33.038  13.323   3.206  0.00  0.00     0.007 A 
HETATM   74  C   UNK N   1      33.624  12.114   2.821  0.00  0.00     0.001 A 
HETATM   75  C   UNK N   1      34.733  12.115   1.970  0.00  0.00     0.000 A 
HETATM   76  C   UNK N   1      35.255  13.326   1.501  0.00  0.00     0.001 A 
HETATM   77  C   UNK N   1      34.668  14.536   1.887  0.00  0.00     0.007 A 
ENDBRANCH  71  72
ENDBRANCH  70  71
BRANCH  70  78
HETATM   78  N   UNK N   1      31.507  16.324   5.123  0.00  0.00    -0.361 N 
HETATM   79  C   UNK N   1      31.351  15.741   6.265  0.00  0.00     0.141 C 
ATOM     80  HN  UNK N   1      31.586  17.341   5.098  1.00  0.00     0.162 HD
BRANCH  79  81
HETATM   81  C   UNK N   1      31.505  16.524   7.538  0.00  0.00     0.356 C 
BRANCH  81  82
HETATM   82  N   UNK N   1      32.755  16.391   8.303  0.00  0.00     0.107 N 
BRANCH  82  83
HETATM   83  C   UNK N   1      32.739  15.502   9.468  0.00  0.00     0.303 C 
BRANCH  83  84
HETATM   84  C   UNK N   1      34.172  15.021   9.768  0.00  0.00     0.303 C 
BRANCH  84  85
HETATM   85  N   UNK N   1      34.588  13.839   9.000  0.00  0.00     0.100 N 
BRANCH  85  86
HETATM   86  C   UNK N   1      35.030  12.821   9.953  0.00  0.00     0.274 C 
BRANCH  86  87
HETATM   87  C   UNK N   1      35.034  13.352  11.387  0.00  0.00     0.056 C 
BRANCH  87  88
HETATM   88  C   UNK N   1      35.934  12.561  12.359  0.00  0.00     0.182 C 
BRANCH  88  89
HETATM   89  C   UNK N   1      37.323  12.350  11.827  0.00  0.00     0.154 C 
HETATM   90  O   UNK N   1      37.785  11.225  11.717  0.00  0.00    -0.649 OA
BRANCH  89  91
HETATM   91  O   UNK N   1      38.057  13.413  11.445  0.00  0.00    -0.776 OA
HETATM   92  H   UNK N   1      38.969  13.540  11.621  0.00  0.00     0.167 HD
ENDBRANCH  89  91
ENDBRANCH  88  89
BRANCH  88  93
HETATM   93  C   UNK N   1      35.976  13.108  13.762  0.00  0.00     0.154 C 
HETATM   94  O   UNK N   1      34.953  13.245  14.415  0.00  0.00    -0.649 OA
BRANCH  93  95
HETATM   95  O   UNK N   1      37.161  13.440  14.308  0.00  0.00    -0.776 OA
HETATM   96  H   UNK N   1      37.828  13.869  13.809  0.00  0.00     0.167 HD
ENDBRANCH  93  95
ENDBRANCH  88  93
ENDBRANCH  87  88
ENDBRANCH  86  87
ENDBRANCH  85  86
BRANCH  85  97
HETATM   97  C   UNK N   1      35.762  14.157   8.194  0.00  0.00     0.385 C 
BRANCH  97  98
HETATM   98  C   UNK N   1      35.364  14.412   6.776  0.00  0.00     0.202 C 
HETATM   99  O   UNK N   1      34.312  13.975   6.345  0.00  0.00    -0.647 OA
HETATM  100  O   UNK N   1      36.179  15.112   5.967  0.00  0.00    -0.647 OA
ENDBRANCH  97  98
ENDBRANCH  85  97
ENDBRANCH  84  85
ENDBRANCH  83  84
ENDBRANCH  82  83
BRANCH  82 101
HETATM  101  C   UNK N   1      33.199  17.741   8.681  0.00  0.00     0.385 C 
BRANCH 101 102
HETATM  102  C   UNK N   1      34.357  18.277   7.867  0.00  0.00     0.202 C 
HETATM  103  O   UNK N   1      35.163  19.024   8.395  0.00  0.00    -0.647 OA
HETATM  104  O   UNK N   1      34.519  17.938   6.571  0.00  0.00    -0.647 OA
ENDBRANCH 101 102
ENDBRANCH  82 101
ENDBRANCH  81  82
ENDBRANCH  79  81
BRANCH  79 105
HETATM  105  O   UNK N   1      31.212  14.402   6.341  0.00  0.00    -0.348 OA
ATOM    106  HO  UNK N   1      31.536  13.867   5.626  1.00  0.00     0.219 HD
ENDBRANCH  79 105
ENDBRANCH  70  78
ENDBRANCH  68  70
BRANCH  68 107
HETATM  107  O   UNK N   1      30.347  16.986   2.273  0.00  0.00    -0.348 OA
HETATM  108  H   UNK N   1      30.670  17.790   1.914  0.00  0.00     0.219 HD
ENDBRANCH  68 107
ENDBRANCH   6  67
BRANCH  12 109
HETATM  109  O   UNK N   1      28.460  12.748   5.618  0.00  0.00    -0.348 OA
HETATM  110  H   UNK N   1      28.819  12.114   6.207  0.00  0.00     0.219 HD
ENDBRANCH  12 109
BRANCH  10 111
HETATM  111  O   UNK N   1      25.078  17.289   4.309  0.00  0.00    -0.348 OA
HETATM  112  H   UNK N   1      25.212  17.949   4.961  0.00  0.00     0.219 HD
ENDBRANCH  10 111
BRANCH   4 113
HETATM  113  C   UNK N   1      27.814  16.875   4.157  0.00  0.00     0.072 C 
BRANCH 113 114
HETATM  114  C   UNK N   1      27.850  17.457   5.541  0.00  0.00    -0.056 A 
HETATM  115  C   UNK N   1      27.890  18.844   5.713  0.00  0.00     0.007 A 
HETATM  116  C   UNK N   1      27.960  19.388   7.001  0.00  0.00     0.001 A 
HETATM  117  C   UNK N   1      27.999  18.547   8.117  0.00  0.00     0.000 A 
HETATM  118  C   UNK N   1      27.971  17.162   7.948  0.00  0.00     0.001 A 
HETATM  119  C   UNK N   1      27.901  16.618   6.663  0.00  0.00     0.007 A 
ENDBRANCH 113 114
ENDBRANCH   4 113
TORSDOF 46
ENDMDL
MODEL 3
REMARK VINA RESULT:      -6.8      1.292      2.809
REMARK WARNING: 32 MAX_TORS EXCEEDED!!!
REMARK  46 active torsions:
REMARK  status: ('A' for Active; 'I' for Inactive)
REMARK    1  A    between atoms: C_12  and  C_11 
REMARK    2  A    between atoms: C_19  and  C_11 
REMARK    3  A    between atoms: C_21  and  C_12 
REMARK    4  A    between atoms: C_43  and  C_19 
REMARK    5  A    between atoms: C_22  and  C_20 
REMARK    6  A    between atoms: C_41  and  C_20 
REMARK    7  A    between atoms: N_63  and  C_21 
REMARK    8  A    between atoms: N_81  and  C_22 
REMARK    9  A    between atoms: C_24  and  C_23 
REMARK   10  A    between atoms: N_81  and  C_23 
REMARK   11  A    between atoms: N_82  and  C_24 
REMARK   12  A    between atoms: C_37  and  C_25 
REMARK   13  A    between atoms: C_44  and  C_25 
REMARK   14  A    between atoms: C_38  and  C_26 
REMARK   15  A    between atoms: C_45  and  C_26 
REMARK   16  A    between atoms: C_39  and  C_27 
REMARK   17  A    between atoms: C_46  and  C_27 
REMARK   18  A    between atoms: C_50  and  C_29 
REMARK   19  A    between atoms: N_82  and  C_29 
REMARK   20  A    between atoms: C_51  and  C_30 
REMARK   21  A    between atoms: N_81  and  C_30 
REMARK   22  A    between atoms: C_52  and  C_31 
REMARK   23  A    between atoms: N_82  and  C_31 
REMARK   24  A    between atoms: C_47  and  C_32 
REMARK   25  A    between atoms: O_83  and  C_32 
REMARK   26  A    between atoms: C_47  and  C_35 
REMARK   27  A    between atoms: O_84  and  C_35 
REMARK   28  A    between atoms: C_53  and  C_36 
REMARK   29  A    between atoms: O_85  and  C_36 
REMARK   30  A    between atoms: C_61  and  C_41 
REMARK   31  A    between atoms: C_62  and  C_41 
REMARK   32  A    between atoms: C_55  and  C_44 
REMARK   33  A    between atoms: N_65  and  C_44 
REMARK   34  A    between atoms: N_73  and  C_47 
REMARK   35  A    between atoms: N_75  and  C_48 
REMARK   36  A    between atoms: C_59  and  C_49 
REMARK   37  A    between atoms: O_86  and  C_50 
REMARK   38  A    between atoms: O_92  and  C_54 
REMARK   39  A    between atoms: O_94  and  C_55 
REMARK   40  A    between atoms: O_95  and  C_56 
REMARK   41  A    between atoms: O_96  and  C_57 
REMARK   42  A    between atoms: O_97  and  C_58 
REMARK   43  A    between atoms: O_98  and  C_59 
REMARK   44  A    between atoms: O_101  and  C_61 
REMARK   45  A    between atoms: O_103  and  C_62 
REMARK   46  A    between atoms: In_106  and  In_106 
ROOT
HETATM    1  C   UNK N   1      30.285  13.279   2.207  0.00  0.00     0.119 C 
HETATM    2  C   UNK N   1      26.870  11.667   3.381  0.00  0.00     0.119 C 
HETATM    3  C   UNK N   1      21.441  14.312   4.883  0.00  0.00     0.158 C 
HETATM    4  C   UNK N   1      28.181  15.091   5.185  0.00  0.00     0.162 C 
HETATM    5  C   UNK N   1      24.828  13.847   6.477  0.00  0.00     0.162 C 
HETATM    6  C   UNK N   1      30.539  13.939   3.549  0.00  0.00     0.168 C 
HETATM    7  C   UNK N   1      25.531  11.923   2.686  0.00  0.00     0.168 C 
HETATM    8  C   UNK N   1      23.126  13.585   2.565  0.00  0.00     0.186 C 
HETATM    9  C   UNK N   1      21.580  15.131   3.625  0.00  0.00     0.135 C 
HETATM   10  C   UNK N   1      26.821  15.086   5.848  0.00  0.00     0.135 C 
HETATM   11  C   UNK N   1      23.659  14.529   5.826  0.00  0.00     0.135 C 
HETATM   12  C   UNK N   1      29.780  13.264   4.682  0.00  0.00     0.136 C 
HETATM   13  C   UNK N   1      24.483  14.006   2.034  0.00  0.00     0.138 C 
HETATM   14  N   UNK N   1      22.682  13.797   5.420  0.00  0.00    -0.361 N 
ATOM     15  HN  UNK N   1      22.789  12.785   5.480  1.00  0.00     0.162 HD
HETATM   16  N   UNK N   1      28.796  13.785   5.347  0.00  0.00    -0.360 N 
ATOM     17  HN  UNK N   1      28.401  13.199   6.083  1.00  0.00     0.162 HD
HETATM   18  N   UNK N   1      26.095  14.018   5.791  0.00  0.00    -0.360 N 
ATOM     19  HN  UNK N   1      26.436  13.242   5.224  1.00  0.00     0.162 HD
HETATM   20  N   UNK N   1      25.518  13.239   2.092  0.00  0.00    -0.360 N 
ATOM     21  HN  UNK N   1      26.389  13.587   1.691  1.00  0.00     0.162 HD
HETATM   22  N   UNK N   1      22.268  14.752   2.604  0.00  0.00    -0.358 N 
ATOM     23  HN  UNK N   1      22.204  15.316   1.756  1.00  0.00     0.162 HD
HETATM   24  O   UNK N   1      24.627  15.234   1.497  0.00  0.00    -0.348 OA
HETATM   25  S   UNK N   1      28.548  13.384   1.697  0.00  0.00    -0.095 SA
HETATM   26  S   UNK N   1      28.212  11.334   2.188  0.00  0.00    -0.095 SA
HETATM   27  H   UNK N   1      24.658  16.033   1.007  0.00  0.00     0.219 HD
ENDROOT
BRANCH   8  28
HETATM   28  C   UNK N   1      22.501  12.454   1.733  0.00  0.00     0.144 C 
HETATM   29  C   UNK N   1      21.409  12.934   0.789  0.00  0.00     0.042 C 
BRANCH  28  30
HETATM   30  O   UNK N   1      21.994  11.454   2.557  0.00  0.00    -0.393 OA
HETATM   31  H   UNK N   1      21.782  11.340   3.497  0.00  0.00     0.210 HD
ENDBRANCH  28  30
ENDBRANCH   8  28
BRANCH   7  32
HETATM   32  C   UNK N   1      25.101  10.780   1.770  0.00  0.00     0.136 C 
HETATM   33  N   UNK N   1      24.769   9.597   2.186  0.00  0.00    -0.364 N 
ATOM     34  HN  UNK N   1      24.559   8.890   1.481  1.00  0.00     0.162 HD
BRANCH  33  35
HETATM   35  C   UNK N   1      24.673   9.208   3.576  0.00  0.00     0.135 C 
BRANCH  35  36
HETATM   36  C   UNK N   1      25.904   8.421   4.010  0.00  0.00     0.191 C 
BRANCH  36  37
HETATM   37  O   UNK N   1      26.339   8.828   5.272  0.00  0.00    -0.399 OA
HETATM   38  H   UNK N   1      26.512   9.754   5.503  0.00  0.00     0.209 HD
ENDBRANCH  36  37
ENDBRANCH  35  36
BRANCH  35  39
HETATM   39  C   UNK N   1      23.420   8.385   3.822  0.00  0.00     0.138 C 
HETATM   40  C   UNK N   1      22.991   8.539   5.269  0.00  0.00     0.041 C 
BRANCH  39  41
HETATM   41  O   UNK N   1      22.387   8.802   2.987  0.00  0.00    -0.394 OA
HETATM   42  H   UNK N   1      22.117   8.768   2.057  0.00  0.00     0.210 HD
ENDBRANCH  39  41
ENDBRANCH  35  39
ENDBRANCH  33  35
BRANCH  32  43
HETATM   43  O   UNK N   1      25.074  11.024   0.447  0.00  0.00    -0.348 OA
HETATM   44  H   UNK N   1      25.363  11.201  -0.427  0.00  0.00     0.219 HD
ENDBRANCH  32  43
ENDBRANCH   7  32
BRANCH   9  45
HETATM   45  O   UNK N   1      20.910  16.295   3.555  0.00  0.00    -0.348 OA
ATOM     46  HO  UNK N   1      20.052  16.338   3.963  1.00  0.00     0.219 HD
ENDBRANCH   9  45
BRANCH   3  47
HETATM   47  C   UNK N   1      20.454  13.178   4.652  0.00  0.00     0.033 C 
BRANCH  47  48
HETATM   48  C   UNK N   1      20.242  12.321   5.898  0.00  0.00     0.004 C 
BRANCH  48  49
HETATM   49  C   UNK N   1      20.401  10.822   5.631  0.00  0.00     0.019 C 
BRANCH  49  50
HETATM   50  C   UNK N   1      19.234  10.229   4.849  0.00  0.00     0.111 C 
BRANCH  50  51
HETATM   51  N   UNK N   1      19.673   9.786   3.539  0.00  0.00    -0.430 N 
HETATM   52  H   UNK N   1      19.810  10.421   2.752  0.00  0.00     0.149 HD
HETATM   53  H   UNK N   1      19.852   8.793   3.397  0.00  0.00     0.149 HD
ENDBRANCH  50  51
ENDBRANCH  49  50
ENDBRANCH  48  49
ENDBRANCH  47  48
ENDBRANCH   3  47
BRANCH  11  54
HETATM   54  O   UNK N   1      23.603  15.875   5.742  0.00  0.00    -0.348 OA
HETATM   55  H   UNK N   1      23.363  16.730   5.441  0.00  0.00     0.219 HD
ENDBRANCH  11  54
BRANCH   5  56
HETATM   56  C   UNK N   1      24.965  13.979   8.008  0.00  0.00     0.074 C 
BRANCH  56  57
HETATM   57  C   UNK N   1      24.020  13.151   8.829  0.00  0.00    -0.028 A 
HETATM   58  C   UNK N   1      24.280  11.909   9.405  0.00  0.00     0.096 A 
HETATM   59  N   UNK N   1      23.183  11.483  10.081  0.00  0.00    -0.365 N 
HETATM   60  C   UNK N   1      22.256  12.449   9.935  0.00  0.00     0.042 A 
HETATM   61  H   UNK N   1      23.085  10.639  10.577  0.00  0.00     0.165 HD
HETATM   62  C   UNK N   1      20.967  12.460  10.459  0.00  0.00     0.030 A 
HETATM   63  C   UNK N   1      22.738  13.481   9.180  0.00  0.00    -0.002 A 
HETATM   64  C   UNK N   1      20.160  13.581  10.186  0.00  0.00     0.002 A 
HETATM   65  C   UNK N   1      20.659  14.650   9.406  0.00  0.00     0.001 A 
HETATM   66  C   UNK N   1      21.967  14.606   8.893  0.00  0.00     0.014 A 
ENDBRANCH  56  57
ENDBRANCH   5  56
BRANCH   6  67
HETATM   67  N   UNK N   1      30.415  15.370   3.463  0.00  0.00    -0.360 N 
HETATM   68  C   UNK N   1      31.414  16.173   3.632  0.00  0.00     0.135 C 
ATOM     69  HN  UNK N   1      29.498  15.769   3.261  1.00  0.00     0.162 HD
BRANCH  68  70
HETATM   70  C   UNK N   1      32.831  15.694   3.886  0.00  0.00     0.162 C 
BRANCH  70  71
HETATM   71  C   UNK N   1      33.683  15.677   2.618  0.00  0.00     0.072 C 
BRANCH  71  72
HETATM   72  C   UNK N   1      34.336  14.353   2.384  0.00  0.00    -0.056 A 
HETATM   73  C   UNK N   1      35.191  14.199   1.287  0.00  0.00     0.007 A 
HETATM   74  C   UNK N   1      35.818  12.973   1.051  0.00  0.00     0.001 A 
HETATM   75  C   UNK N   1      35.595  11.896   1.915  0.00  0.00     0.000 A 
HETATM   76  C   UNK N   1      34.747  12.047   3.017  0.00  0.00     0.001 A 
HETATM   77  C   UNK N   1      34.119  13.275   3.253  0.00  0.00     0.007 A 
ENDBRANCH  71  72
ENDBRANCH  70  71
BRANCH  70  78
HETATM   78  N   UNK N   1      33.502  16.407   4.960  0.00  0.00    -0.361 N 
HETATM   79  C   UNK N   1      33.279  16.155   6.207  0.00  0.00     0.141 C 
ATOM     80  HN  UNK N   1      34.175  17.135   4.719  1.00  0.00     0.162 HD
BRANCH  79  81
HETATM   81  C   UNK N   1      34.151  16.766   7.267  0.00  0.00     0.356 C 
BRANCH  81  82
HETATM   82  N   UNK N   1      34.899  15.875   8.167  0.00  0.00     0.107 N 
BRANCH  82  83
HETATM   83  C   UNK N   1      34.998  14.462   7.786  0.00  0.00     0.303 C 
BRANCH  83  84
HETATM   84  C   UNK N   1      34.446  13.582   8.924  0.00  0.00     0.303 C 
BRANCH  84  85
HETATM   85  N   UNK N   1      34.558  12.137   8.681  0.00  0.00     0.100 N 
BRANCH  85  86
HETATM   86  C   UNK N   1      35.693  11.640   9.458  0.00  0.00     0.274 C 
BRANCH  86  87
HETATM   87  C   UNK N   1      35.266  11.175  10.850  0.00  0.00     0.056 C 
BRANCH  87  88
HETATM   88  C   UNK N   1      35.362  12.259  11.944  0.00  0.00     0.182 C 
BRANCH  88  89
HETATM   89  C   UNK N   1      34.602  11.900  13.189  0.00  0.00     0.154 C 
HETATM   90  O   UNK N   1      34.735  12.556  14.211  0.00  0.00    -0.649 OA
BRANCH  89  91
HETATM   91  O   UNK N   1      33.749  10.858  13.171  0.00  0.00    -0.776 OA
HETATM   92  H   UNK N   1      32.832  10.898  13.364  0.00  0.00     0.167 HD
ENDBRANCH  89  91
ENDBRANCH  88  89
BRANCH  88  93
HETATM   93  C   UNK N   1      36.767  12.689  12.280  0.00  0.00     0.154 C 
HETATM   94  O   UNK N   1      37.696  11.898  12.229  0.00  0.00    -0.649 OA
BRANCH  93  95
HETATM   95  O   UNK N   1      37.003  13.968  12.629  0.00  0.00    -0.776 OA
HETATM   96  H   UNK N   1      37.873  14.314  12.663  0.00  0.00     0.167 HD
ENDBRANCH  93  95
ENDBRANCH  88  93
ENDBRANCH  87  88
ENDBRANCH  86  87
ENDBRANCH  85  86
BRANCH  85  97
HETATM   97  C   UNK N   1      34.902  11.892   7.284  0.00  0.00     0.385 C 
BRANCH  97  98
HETATM   98  C   UNK N   1      33.714  11.376   6.539  0.00  0.00     0.202 C 
HETATM   99  O   UNK N   1      33.742  10.270   6.028  0.00  0.00    -0.647 OA
HETATM  100  O   UNK N   1      32.615  12.142   6.416  0.00  0.00    -0.647 OA
ENDBRANCH  97  98
ENDBRANCH  85  97
ENDBRANCH  84  85
ENDBRANCH  83  84
ENDBRANCH  82  83
BRANCH  82 101
HETATM  101  C   UNK N   1      34.330  16.014   9.515  0.00  0.00     0.385 C 
BRANCH 101 102
HETATM  102  C   UNK N   1      35.245  16.674  10.524  0.00  0.00     0.202 C 
HETATM  103  O   UNK N   1      35.684  17.787  10.293  0.00  0.00    -0.647 OA
HETATM  104  O   UNK N   1      35.576  16.057  11.678  0.00  0.00    -0.647 OA
ENDBRANCH 101 102
ENDBRANCH  82 101
ENDBRANCH  81  82
ENDBRANCH  79  81
BRANCH  79 105
HETATM  105  O   UNK N   1      32.376  15.222   6.571  0.00  0.00    -0.348 OA
ATOM    106  HO  UNK N   1      32.590  14.305   6.444  1.00  0.00     0.219 HD
ENDBRANCH  79 105
ENDBRANCH  70  78
ENDBRANCH  68  70
BRANCH  68 107
HETATM  107  O   UNK N   1      31.196  17.499   3.598  0.00  0.00    -0.348 OA
HETATM  108  H   UNK N   1      30.728  18.302   3.727  0.00  0.00     0.219 HD
ENDBRANCH  68 107
ENDBRANCH   6  67
BRANCH  12 109
HETATM  109  O   UNK N   1      30.151  12.008   4.992  0.00  0.00    -0.348 OA
HETATM  110  H   UNK N   1      30.180  11.076   5.087  0.00  0.00     0.219 HD
ENDBRANCH  12 109
BRANCH  10 111
HETATM  111  O   UNK N   1      26.397  16.167   6.538  0.00  0.00    -0.348 OA
HETATM  112  H   UNK N   1      25.753  16.812   6.318  0.00  0.00     0.219 HD
ENDBRANCH  10 111
BRANCH   4 113
HETATM  113  C   UNK N   1      29.057  16.226   5.759  0.00  0.00     0.072 C 
BRANCH 113 114
HETATM  114  C   UNK N   1      28.508  17.612   5.574  0.00  0.00    -0.056 A 
HETATM  115  C   UNK N   1      28.371  18.461   6.677  0.00  0.00     0.007 A 
HETATM  116  C   UNK N   1      27.826  19.739   6.515  0.00  0.00     0.001 A 
HETATM  117  C   UNK N   1      27.409  20.168   5.251  0.00  0.00     0.000 A 
HETATM  118  C   UNK N   1      27.533  19.319   4.149  0.00  0.00     0.001 A 
HETATM  119  C   UNK N   1      28.078  18.043   4.312  0.00  0.00     0.007 A 
ENDBRANCH 113 114
ENDBRANCH   4 113
TORSDOF 46
ENDMDL
MODEL 4
REMARK VINA RESULT:      -6.7      1.783      3.394
REMARK WARNING: 32 MAX_TORS EXCEEDED!!!
REMARK  46 active torsions:
REMARK  status: ('A' for Active; 'I' for Inactive)
REMARK    1  A    between atoms: C_12  and  C_11 
REMARK    2  A    between atoms: C_19  and  C_11 
REMARK    3  A    between atoms: C_21  and  C_12 
REMARK    4  A    between atoms: C_43  and  C_19 
REMARK    5  A    between atoms: C_22  and  C_20 
REMARK    6  A    between atoms: C_41  and  C_20 
REMARK    7  A    between atoms: N_63  and  C_21 
REMARK    8  A    between atoms: N_81  and  C_22 
REMARK    9  A    between atoms: C_24  and  C_23 
REMARK   10  A    between atoms: N_81  and  C_23 
REMARK   11  A    between atoms: N_82  and  C_24 
REMARK   12  A    between atoms: C_37  and  C_25 
REMARK   13  A    between atoms: C_44  and  C_25 
REMARK   14  A    between atoms: C_38  and  C_26 
REMARK   15  A    between atoms: C_45  and  C_26 
REMARK   16  A    between atoms: C_39  and  C_27 
REMARK   17  A    between atoms: C_46  and  C_27 
REMARK   18  A    between atoms: C_50  and  C_29 
REMARK   19  A    between atoms: N_82  and  C_29 
REMARK   20  A    between atoms: C_51  and  C_30 
REMARK   21  A    between atoms: N_81  and  C_30 
REMARK   22  A    between atoms: C_52  and  C_31 
REMARK   23  A    between atoms: N_82  and  C_31 
REMARK   24  A    between atoms: C_47  and  C_32 
REMARK   25  A    between atoms: O_83  and  C_32 
REMARK   26  A    between atoms: C_47  and  C_35 
REMARK   27  A    between atoms: O_84  and  C_35 
REMARK   28  A    between atoms: C_53  and  C_36 
REMARK   29  A    between atoms: O_85  and  C_36 
REMARK   30  A    between atoms: C_61  and  C_41 
REMARK   31  A    between atoms: C_62  and  C_41 
REMARK   32  A    between atoms: C_55  and  C_44 
REMARK   33  A    between atoms: N_65  and  C_44 
REMARK   34  A    between atoms: N_73  and  C_47 
REMARK   35  A    between atoms: N_75  and  C_48 
REMARK   36  A    between atoms: C_59  and  C_49 
REMARK   37  A    between atoms: O_86  and  C_50 
REMARK   38  A    between atoms: O_92  and  C_54 
REMARK   39  A    between atoms: O_94  and  C_55 
REMARK   40  A    between atoms: O_95  and  C_56 
REMARK   41  A    between atoms: O_96  and  C_57 
REMARK   42  A    between atoms: O_97  and  C_58 
REMARK   43  A    between atoms: O_98  and  C_59 
REMARK   44  A    between atoms: O_101  and  C_61 
REMARK   45  A    between atoms: O_103  and  C_62 
REMARK   46  A    between atoms: In_106  and  In_106 
ROOT
HETATM    1  C   UNK N   1      29.966  12.240   2.102  0.00  0.00     0.119 C 
HETATM    2  C   UNK N   1      26.389  11.103   3.347  0.00  0.00     0.119 C 
HETATM    3  C   UNK N   1      21.331  14.447   4.748  0.00  0.00     0.158 C 
HETATM    4  C   UNK N   1      28.117  14.412   5.008  0.00  0.00     0.162 C 
HETATM    5  C   UNK N   1      24.647  13.637   6.354  0.00  0.00     0.162 C 
HETATM    6  C   UNK N   1      30.308  12.918   3.416  0.00  0.00     0.168 C 
HETATM    7  C   UNK N   1      25.086  11.493   2.643  0.00  0.00     0.168 C 
HETATM    8  C   UNK N   1      22.900  13.429   2.459  0.00  0.00     0.186 C 
HETATM    9  C   UNK N   1      21.561  15.192   3.457  0.00  0.00     0.135 C 
HETATM   10  C   UNK N   1      26.771  14.599   5.672  0.00  0.00     0.135 C 
HETATM   11  C   UNK N   1      23.565  14.430   5.678  0.00  0.00     0.135 C 
HETATM   12  C   UNK N   1      29.480  12.385   4.577  0.00  0.00     0.136 C 
HETATM   13  C   UNK N   1      24.295  13.659   1.909  0.00  0.00     0.138 C 
HETATM   14  N   UNK N   1      22.504  13.807   5.303  0.00  0.00    -0.361 N 
ATOM     15  HN  UNK N   1      22.488  12.792   5.405  1.00  0.00     0.162 HD
HETATM   16  N   UNK N   1      28.570  13.048   5.222  0.00  0.00    -0.360 N 
ATOM     17  HN  UNK N   1      28.112  12.545   5.981  1.00  0.00     0.162 HD
HETATM   18  N   UNK N   1      25.920  13.626   5.660  0.00  0.00    -0.360 N 
ATOM     19  HN  UNK N   1      26.161  12.792   5.125  1.00  0.00     0.162 HD
HETATM   20  N   UNK N   1      25.230  12.775   1.997  0.00  0.00    -0.360 N 
ATOM     21  HN  UNK N   1      26.134  12.998   1.580  1.00  0.00     0.162 HD
HETATM   22  N   UNK N   1      22.190  14.691   2.452  0.00  0.00    -0.358 N 
ATOM     23  HN  UNK N   1      22.190  15.225   1.582  1.00  0.00     0.162 HD
HETATM   24  O   UNK N   1      24.584  14.839   1.322  0.00  0.00    -0.348 OA
HETATM   25  S   UNK N   1      28.252  12.535   1.591  0.00  0.00    -0.095 SA
HETATM   26  S   UNK N   1      27.673  10.562   2.166  0.00  0.00    -0.095 SA
HETATM   27  H   UNK N   1      24.708  15.607   0.800  0.00  0.00     0.219 HD
ENDROOT
BRANCH   8  28
HETATM   28  C   UNK N   1      22.138  12.349   1.674  0.00  0.00     0.144 C 
HETATM   29  C   UNK N   1      21.009  12.909   0.822  0.00  0.00     0.042 C 
BRANCH  28  30
HETATM   30  O   UNK N   1      21.630  11.378   2.532  0.00  0.00    -0.393 OA
HETATM   31  H   UNK N   1      20.825  11.233   3.054  0.00  0.00     0.210 HD
ENDBRANCH  28  30
ENDBRANCH   8  28
BRANCH   7  32
HETATM   32  C   UNK N   1      24.515  10.374   1.776  0.00  0.00     0.136 C 
HETATM   33  N   UNK N   1      24.071   9.246   2.237  0.00  0.00    -0.364 N 
ATOM     34  HN  UNK N   1      23.770   8.544   1.560  1.00  0.00     0.162 HD
BRANCH  33  35
HETATM   35  C   UNK N   1      23.971   8.911   3.641  0.00  0.00     0.135 C 
BRANCH  35  36
HETATM   36  C   UNK N   1      25.074   7.945   4.053  0.00  0.00     0.191 C 
BRANCH  36  37
HETATM   37  O   UNK N   1      25.291   6.983   3.065  0.00  0.00    -0.399 OA
HETATM   38  H   UNK N   1      25.315   6.030   3.244  0.00  0.00     0.209 HD
ENDBRANCH  36  37
ENDBRANCH  35  36
BRANCH  35  39
HETATM   39  C   UNK N   1      22.612   8.310   3.958  0.00  0.00     0.138 C 
HETATM   40  C   UNK N   1      22.169   8.761   5.337  0.00  0.00     0.041 C 
BRANCH  39  41
HETATM   41  O   UNK N   1      21.668   8.708   3.016  0.00  0.00    -0.394 OA
HETATM   42  H   UNK N   1      20.988   8.335   2.434  0.00  0.00     0.210 HD
ENDBRANCH  39  41
ENDBRANCH  35  39
ENDBRANCH  33  35
BRANCH  32  43
HETATM   43  O   UNK N   1      24.479  10.579   0.446  0.00  0.00    -0.348 OA
HETATM   44  H   UNK N   1      24.152  10.764  -0.413  0.00  0.00     0.219 HD
ENDBRANCH  32  43
ENDBRANCH   7  32
BRANCH   9  45
HETATM   45  O   UNK N   1      21.036  16.425   3.342  0.00  0.00    -0.348 OA
ATOM     46  HO  UNK N   1      20.173  16.505   2.951  1.00  0.00     0.219 HD
ENDBRANCH   9  45
BRANCH   3  47
HETATM   47  C   UNK N   1      20.211  13.432   4.565  0.00  0.00     0.033 C 
BRANCH  47  48
HETATM   48  C   UNK N   1      20.173  12.393   5.682  0.00  0.00     0.004 C 
BRANCH  48  49
HETATM   49  C   UNK N   1      19.559  11.061   5.243  0.00  0.00     0.019 C 
BRANCH  49  50
HETATM   50  C   UNK N   1      18.655  11.195   4.024  0.00  0.00     0.111 C 
BRANCH  50  51
HETATM   51  N   UNK N   1      18.936  10.145   3.063  0.00  0.00    -0.430 N 
HETATM   52  H   UNK N   1      18.440  10.054   2.176  0.00  0.00     0.149 HD
HETATM   53  H   UNK N   1      19.664   9.467   3.284  0.00  0.00     0.149 HD
ENDBRANCH  50  51
ENDBRANCH  49  50
ENDBRANCH  48  49
ENDBRANCH  47  48
ENDBRANCH   3  47
BRANCH  11  54
HETATM   54  O   UNK N   1      23.672  15.769   5.540  0.00  0.00    -0.348 OA
HETATM   55  H   UNK N   1      23.932  16.653   5.707  0.00  0.00     0.219 HD
ENDBRANCH  11  54
BRANCH   5  56
HETATM   56  C   UNK N   1      24.808  13.814   7.879  0.00  0.00     0.074 C 
BRANCH  56  57
HETATM   57  C   UNK N   1      23.854  13.037   8.738  0.00  0.00    -0.028 A 
HETATM   58  C   UNK N   1      24.081  11.794   9.327  0.00  0.00     0.096 A 
HETATM   59  N   UNK N   1      22.986  11.423  10.039  0.00  0.00    -0.365 N 
HETATM   60  C   UNK N   1      22.094  12.423   9.900  0.00  0.00     0.042 A 
HETATM   61  H   UNK N   1      22.867  10.591  10.551  0.00  0.00     0.165 HD
HETATM   62  C   UNK N   1      20.821  12.492  10.457  0.00  0.00     0.030 A 
HETATM   63  C   UNK N   1      22.596  13.422   9.116  0.00  0.00    -0.002 A 
HETATM   64  C   UNK N   1      20.051  13.640  10.187  0.00  0.00     0.002 A 
HETATM   65  C   UNK N   1      20.571  14.676   9.377  0.00  0.00     0.001 A 
HETATM   66  C   UNK N   1      21.862  14.572   8.831  0.00  0.00     0.014 A 
ENDBRANCH  56  57
ENDBRANCH   5  56
BRANCH   6  67
HETATM   67  N   UNK N   1      30.357  14.348   3.273  0.00  0.00    -0.360 N 
HETATM   68  C   UNK N   1      31.464  15.016   3.279  0.00  0.00     0.135 C 
ATOM     69  HN  UNK N   1      29.481  14.858   3.163  1.00  0.00     0.162 HD
BRANCH  68  70
HETATM   70  C   UNK N   1      32.829  14.362   3.385  0.00  0.00     0.162 C 
BRANCH  70  71
HETATM   71  C   UNK N   1      33.891  15.079   2.552  0.00  0.00     0.072 C 
BRANCH  71  72
HETATM   72  C   UNK N   1      34.519  14.184   1.532  0.00  0.00    -0.056 A 
HETATM   73  C   UNK N   1      33.914  12.957   1.238  0.00  0.00     0.007 A 
HETATM   74  C   UNK N   1      34.478  12.106   0.283  0.00  0.00     0.001 A 
HETATM   75  C   UNK N   1      35.648  12.482  -0.384  0.00  0.00     0.000 A 
HETATM   76  C   UNK N   1      36.252  13.711  -0.098  0.00  0.00     0.001 A 
HETATM   77  C   UNK N   1      35.688  14.563   0.857  0.00  0.00     0.007 A 
ENDBRANCH  71  72
ENDBRANCH  70  71
BRANCH  70  78
HETATM   78  N   UNK N   1      33.276  14.171   4.754  0.00  0.00    -0.361 N 
HETATM   79  C   UNK N   1      33.554  13.006   5.238  0.00  0.00     0.141 C 
ATOM     80  HN  UNK N   1      33.375  14.988   5.357  1.00  0.00     0.162 HD
BRANCH  79  81
HETATM   81  C   UNK N   1      34.215  12.886   6.582  0.00  0.00     0.356 C 
BRANCH  81  82
HETATM   82  N   UNK N   1      33.526  12.135   7.644  0.00  0.00     0.107 N 
BRANCH  82  83
HETATM   83  C   UNK N   1      33.684  12.617   9.020  0.00  0.00     0.303 C 
BRANCH  83  84
HETATM   84  C   UNK N   1      33.118  14.046   9.133  0.00  0.00     0.303 C 
BRANCH  84  85
HETATM   85  N   UNK N   1      34.015  15.002   9.797  0.00  0.00     0.100 N 
BRANCH  85  86
HETATM   86  C   UNK N   1      34.539  15.906   8.773  0.00  0.00     0.274 C 
BRANCH  86  87
HETATM   87  C   UNK N   1      34.173  17.362   9.063  0.00  0.00     0.056 C 
BRANCH  87  88
HETATM   88  C   UNK N   1      33.070  17.937   8.150  0.00  0.00     0.182 C 
BRANCH  88  89
HETATM   89  C   UNK N   1      33.236  17.537   6.712  0.00  0.00     0.154 C 
HETATM   90  O   UNK N   1      34.187  17.938   6.060  0.00  0.00    -0.649 OA
BRANCH  89  91
HETATM   91  O   UNK N   1      32.338  16.711   6.143  0.00  0.00    -0.776 OA
HETATM   92  H   UNK N   1      32.243  15.796   6.326  0.00  0.00     0.167 HD
ENDBRANCH  89  91
ENDBRANCH  88  89
BRANCH  88  93
HETATM   93  C   UNK N   1      31.663  17.669   8.621  0.00  0.00     0.154 C 
HETATM   94  O   UNK N   1      31.192  16.543   8.586  0.00  0.00    -0.649 OA
BRANCH  93  95
HETATM   95  O   UNK N   1      30.919  18.685   9.098  0.00  0.00    -0.776 OA
HETATM   96  H   UNK N   1      31.220  19.223   9.804  0.00  0.00     0.167 HD
ENDBRANCH  93  95
ENDBRANCH  88  93
ENDBRANCH  87  88
ENDBRANCH  86  87
ENDBRANCH  85  86
BRANCH  85  97
HETATM   97  C   UNK N   1      35.177  14.303  10.336  0.00  0.00     0.385 C 
BRANCH  97  98
HETATM   98  C   UNK N   1      35.250  14.482  11.817  0.00  0.00     0.202 C 
HETATM   99  O   UNK N   1      34.563  13.796  12.554  0.00  0.00    -0.647 OA
HETATM  100  O   UNK N   1      36.063  15.417  12.340  0.00  0.00    -0.647 OA
ENDBRANCH  97  98
ENDBRANCH  85  97
ENDBRANCH  84  85
ENDBRANCH  83  84
ENDBRANCH  82  83
BRANCH  82 101
HETATM  101  C   UNK N   1      33.930  10.726   7.534  0.00  0.00     0.385 C 
BRANCH 101 102
HETATM  102  C   UNK N   1      32.795   9.762   7.263  0.00  0.00     0.202 C 
HETATM  103  O   UNK N   1      31.938  10.061   6.450  0.00  0.00    -0.647 OA
HETATM  104  O   UNK N   1      32.718   8.574   7.899  0.00  0.00    -0.647 OA
ENDBRANCH 101 102
ENDBRANCH  82 101
ENDBRANCH  81  82
ENDBRANCH  79  81
BRANCH  79 105
HETATM  105  O   UNK N   1      33.408  11.895   4.487  0.00  0.00    -0.348 OA
ATOM    106  HO  UNK N   1      33.690  11.062   4.844  1.00  0.00     0.219 HD
ENDBRANCH  79 105
ENDBRANCH  70  78
ENDBRANCH  68  70
BRANCH  68 107
HETATM  107  O   UNK N   1      31.415  16.358   3.204  0.00  0.00    -0.348 OA
HETATM  108  H   UNK N   1      31.464  17.243   3.509  0.00  0.00     0.219 HD
ENDBRANCH  68 107
ENDBRANCH   6  67
BRANCH  12 109
HETATM  109  O   UNK N   1      29.697  11.107   4.937  0.00  0.00    -0.348 OA
HETATM  110  H   UNK N   1      29.596  10.235   5.266  0.00  0.00     0.219 HD
ENDBRANCH  12 109
BRANCH  10 111
HETATM  111  O   UNK N   1      26.486  15.750   6.319  0.00  0.00    -0.348 OA
HETATM  112  H   UNK N   1      25.691  16.246   6.352  0.00  0.00     0.219 HD
ENDBRANCH  10 111
BRANCH   4 113
HETATM  113  C   UNK N   1      29.129  15.455   5.534  0.00  0.00     0.072 C 
BRANCH 113 114
HETATM  114  C   UNK N   1      28.708  16.888   5.376  0.00  0.00    -0.056 A 
HETATM  115  C   UNK N   1      28.341  17.372   4.117  0.00  0.00     0.007 A 
HETATM  116  C   UNK N   1      27.984  18.716   3.960  0.00  0.00     0.001 A 
HETATM  117  C   UNK N   1      28.002  19.580   5.059  0.00  0.00     0.000 A 
HETATM  118  C   UNK N   1      28.379  19.103   6.316  0.00  0.00     0.001 A 
HETATM  119  C   UNK N   1      28.736  17.761   6.472  0.00  0.00     0.007 A 
ENDBRANCH 113 114
ENDBRANCH   4 113
TORSDOF 46
ENDMDL
MODEL 5
REMARK VINA RESULT:      -6.7      3.364     12.124
REMARK WARNING: 32 MAX_TORS EXCEEDED!!!
REMARK  46 active torsions:
REMARK  status: ('A' for Active; 'I' for Inactive)
REMARK    1  A    between atoms: C_12  and  C_11 
REMARK    2  A    between atoms: C_19  and  C_11 
REMARK    3  A    between atoms: C_21  and  C_12 
REMARK    4  A    between atoms: C_43  and  C_19 
REMARK    5  A    between atoms: C_22  and  C_20 
REMARK    6  A    between atoms: C_41  and  C_20 
REMARK    7  A    between atoms: N_63  and  C_21 
REMARK    8  A    between atoms: N_81  and  C_22 
REMARK    9  A    between atoms: C_24  and  C_23 
REMARK   10  A    between atoms: N_81  and  C_23 
REMARK   11  A    between atoms: N_82  and  C_24 
REMARK   12  A    between atoms: C_37  and  C_25 
REMARK   13  A    between atoms: C_44  and  C_25 
REMARK   14  A    between atoms: C_38  and  C_26 
REMARK   15  A    between atoms: C_45  and  C_26 
REMARK   16  A    between atoms: C_39  and  C_27 
REMARK   17  A    between atoms: C_46  and  C_27 
REMARK   18  A    between atoms: C_50  and  C_29 
REMARK   19  A    between atoms: N_82  and  C_29 
REMARK   20  A    between atoms: C_51  and  C_30 
REMARK   21  A    between atoms: N_81  and  C_30 
REMARK   22  A    between atoms: C_52  and  C_31 
REMARK   23  A    between atoms: N_82  and  C_31 
REMARK   24  A    between atoms: C_47  and  C_32 
REMARK   25  A    between atoms: O_83  and  C_32 
REMARK   26  A    between atoms: C_47  and  C_35 
REMARK   27  A    between atoms: O_84  and  C_35 
REMARK   28  A    between atoms: C_53  and  C_36 
REMARK   29  A    between atoms: O_85  and  C_36 
REMARK   30  A    between atoms: C_61  and  C_41 
REMARK   31  A    between atoms: C_62  and  C_41 
REMARK   32  A    between atoms: C_55  and  C_44 
REMARK   33  A    between atoms: N_65  and  C_44 
REMARK   34  A    between atoms: N_73  and  C_47 
REMARK   35  A    between atoms: N_75  and  C_48 
REMARK   36  A    between atoms: C_59  and  C_49 
REMARK   37  A    between atoms: O_86  and  C_50 
REMARK   38  A    between atoms: O_92  and  C_54 
REMARK   39  A    between atoms: O_94  and  C_55 
REMARK   40  A    between atoms: O_95  and  C_56 
REMARK   41  A    between atoms: O_96  and  C_57 
REMARK   42  A    between atoms: O_97  and  C_58 
REMARK   43  A    between atoms: O_98  and  C_59 
REMARK   44  A    between atoms: O_101  and  C_61 
REMARK   45  A    between atoms: O_103  and  C_62 
REMARK   46  A    between atoms: In_106  and  In_106 
ROOT
HETATM    1  C   UNK N   1      24.285  11.788   2.922  0.00  0.00     0.119 C 
HETATM    2  C   UNK N   1      28.066  11.956   1.774  0.00  0.00     0.119 C 
HETATM    3  C   UNK N   1      33.307  12.300   5.112  0.00  0.00     0.158 C 
HETATM    4  C   UNK N   1      26.821  14.303   4.879  0.00  0.00     0.162 C 
HETATM    5  C   UNK N   1      30.524  14.629   4.079  0.00  0.00     0.162 C 
HETATM    6  C   UNK N   1      24.295  13.202   3.473  0.00  0.00     0.168 C 
HETATM    7  C   UNK N   1      29.139  10.978   2.257  0.00  0.00     0.168 C 
HETATM    8  C   UNK N   1      31.199  10.412   4.257  0.00  0.00     0.186 C 
HETATM    9  C   UNK N   1      32.747  11.186   5.960  0.00  0.00     0.135 C 
HETATM   10  C   UNK N   1      28.293  14.610   5.042  0.00  0.00     0.135 C 
HETATM   11  C   UNK N   1      31.391  13.771   4.956  0.00  0.00     0.135 C 
HETATM   12  C   UNK N   1      25.398  14.055   2.863  0.00  0.00     0.136 C 
HETATM   13  C   UNK N   1      29.708  10.265   4.499  0.00  0.00     0.138 C 
HETATM   14  N   UNK N   1      32.320  13.079   4.395  0.00  0.00    -0.361 N 
ATOM     15  HN  UNK N   1      32.364  13.080   3.376  1.00  0.00     0.162 HD
HETATM   16  N   UNK N   1      26.442  14.501   3.490  0.00  0.00    -0.360 N 
ATOM     17  HN  UNK N   1      27.084  15.067   2.935  1.00  0.00     0.162 HD
HETATM   18  N   UNK N   1      29.114  14.289   4.096  0.00  0.00    -0.360 N 
ATOM     19  HN  UNK N   1      28.744  13.761   3.306  1.00  0.00     0.162 HD
HETATM   20  N   UNK N   1      28.830  10.511   3.587  0.00  0.00    -0.360 N 
ATOM     21  HN  UNK N   1      27.848  10.364   3.822  1.00  0.00     0.162 HD
HETATM   22  N   UNK N   1      31.879  10.336   5.534  0.00  0.00    -0.358 N 
ATOM     23  HN  UNK N   1      31.652   9.549   6.141  1.00  0.00     0.162 HD
HETATM   24  O   UNK N   1      29.274   9.883   5.717  0.00  0.00    -0.348 OA
HETATM   25  S   UNK N   1      25.807  10.880   3.305  0.00  0.00    -0.095 SA
HETATM   26  S   UNK N   1      26.519  11.103   1.305  0.00  0.00    -0.095 SA
HETATM   27  H   UNK N   1      29.017   9.483   6.525  0.00  0.00     0.219 HD
ENDROOT
BRANCH   8  28
HETATM   28  C   UNK N   1      31.733   9.362   3.270  0.00  0.00     0.144 C 
HETATM   29  C   UNK N   1      32.333   8.143   3.955  0.00  0.00     0.042 C 
BRANCH  28  30
HETATM   30  O   UNK N   1      32.676   9.921   2.413  0.00  0.00    -0.393 OA
HETATM   31  H   UNK N   1      32.795  10.037   1.458  0.00  0.00     0.210 HD
ENDBRANCH  28  30
ENDBRANCH   8  28
BRANCH   7  32
HETATM   32  C   UNK N   1      29.468   9.894   1.233  0.00  0.00     0.136 C 
HETATM   33  N   UNK N   1      30.228  10.073   0.198  0.00  0.00    -0.364 N 
ATOM     34  HN  UNK N   1      30.328   9.296  -0.456  1.00  0.00     0.162 HD
BRANCH  33  35
HETATM   35  C   UNK N   1      30.943  11.296  -0.099  0.00  0.00     0.135 C 
BRANCH  35  36
HETATM   36  C   UNK N   1      30.204  12.122  -1.143  0.00  0.00     0.191 C 
BRANCH  36  37
HETATM   37  O   UNK N   1      29.981  11.379  -2.304  0.00  0.00    -0.399 OA
HETATM   38  H   UNK N   1      29.942  10.410  -2.317  0.00  0.00     0.209 HD
ENDBRANCH  36  37
ENDBRANCH  35  36
BRANCH  35  39
HETATM   39  C   UNK N   1      32.352  10.994  -0.581  0.00  0.00     0.138 C 
HETATM   40  C   UNK N   1      32.413   9.571  -1.103  0.00  0.00     0.041 C 
BRANCH  39  41
HETATM   41  O   UNK N   1      32.723  11.873  -1.595  0.00  0.00    -0.394 OA
HETATM   42  H   UNK N   1      32.765  11.925  -2.562  0.00  0.00     0.210 HD
ENDBRANCH  39  41
ENDBRANCH  35  39
ENDBRANCH  33  35
BRANCH  32  43
HETATM   43  O   UNK N   1      28.925   8.678   1.425  0.00  0.00    -0.348 OA
HETATM   44  H   UNK N   1      28.645   7.797   1.264  0.00  0.00     0.219 HD
ENDBRANCH  32  43
ENDBRANCH   7  32
BRANCH   9  45
HETATM   45  O   UNK N   1      33.222  11.052   7.212  0.00  0.00    -0.348 OA
ATOM     46  HO  UNK N   1      34.090  10.681   7.320  1.00  0.00     0.219 HD
ENDBRANCH   9  45
BRANCH   3  47
HETATM   47  C   UNK N   1      34.342  11.742   4.146  0.00  0.00     0.033 C 
BRANCH  47  48
HETATM   48  C   UNK N   1      34.529  12.623   2.913  0.00  0.00     0.004 C 
BRANCH  48  49
HETATM   49  C   UNK N   1      35.519  12.038   1.902  0.00  0.00     0.019 C 
BRANCH  49  50
HETATM   50  C   UNK N   1      35.557  12.812   0.589  0.00  0.00     0.111 C 
BRANCH  50  51
HETATM   51  N   UNK N   1      34.419  13.707   0.492  0.00  0.00    -0.430 N 
HETATM   52  H   UNK N   1      34.494  14.718   0.607  0.00  0.00     0.149 HD
HETATM   53  H   UNK N   1      33.502  13.306   0.300  0.00  0.00     0.149 HD
ENDBRANCH  50  51
ENDBRANCH  49  50
ENDBRANCH  48  49
ENDBRANCH  47  48
ENDBRANCH   3  47
BRANCH  11  54
HETATM   54  O   UNK N   1      31.248  13.787   6.298  0.00  0.00    -0.348 OA
HETATM   55  H   UNK N   1      30.901  13.990   7.144  0.00  0.00     0.219 HD
ENDBRANCH  11  54
BRANCH   5  56
HETATM   56  C   UNK N   1      30.764  16.152   4.117  0.00  0.00     0.074 C 
BRANCH  56  57
HETATM   57  C   UNK N   1      32.007  16.607   4.825  0.00  0.00    -0.028 A 
HETATM   58  C   UNK N   1      33.302  16.632   4.309  0.00  0.00     0.096 A 
HETATM   59  N   UNK N   1      34.155  17.119   5.245  0.00  0.00    -0.365 N 
HETATM   60  C   UNK N   1      33.401  17.401   6.326  0.00  0.00     0.042 A 
HETATM   61  H   UNK N   1      35.127  17.241   5.154  0.00  0.00     0.165 HD
HETATM   62  C   UNK N   1      33.838  17.929   7.537  0.00  0.00     0.030 A 
HETATM   63  C   UNK N   1      32.087  17.103   6.098  0.00  0.00    -0.002 A 
HETATM   64  C   UNK N   1      32.873  18.153   8.538  0.00  0.00     0.002 A 
HETATM   65  C   UNK N   1      31.513  17.847   8.302  0.00  0.00     0.001 A 
HETATM   66  C   UNK N   1      31.107  17.314   7.066  0.00  0.00     0.014 A 
ENDBRANCH  56  57
ENDBRANCH   5  56
BRANCH   6  67
HETATM   67  N   UNK N   1      24.207  13.208   4.909  0.00  0.00    -0.360 N 
HETATM   68  C   UNK N   1      23.114  12.942   5.546  0.00  0.00     0.135 C 
ATOM     69  HN  UNK N   1      25.044  13.431   5.449  1.00  0.00     0.162 HD
BRANCH  68  70
HETATM   70  C   UNK N   1      21.823  12.548   4.854  0.00  0.00     0.162 C 
BRANCH  70  71
HETATM   71  C   UNK N   1      21.185  11.301   5.465  0.00  0.00     0.072 C 
BRANCH  71  72
HETATM   72  C   UNK N   1      21.948  10.055   5.149  0.00  0.00    -0.056 A 
HETATM   73  C   UNK N   1      21.767   9.442   3.904  0.00  0.00     0.007 A 
HETATM   74  C   UNK N   1      22.474   8.280   3.583  0.00  0.00     0.001 A 
HETATM   75  C   UNK N   1      23.367   7.728   4.505  0.00  0.00     0.000 A 
HETATM   76  C   UNK N   1      23.557   8.341   5.748  0.00  0.00     0.001 A 
HETATM   77  C   UNK N   1      22.850   9.504   6.070  0.00  0.00     0.007 A 
ENDBRANCH  71  72
ENDBRANCH  70  71
BRANCH  70  78
HETATM   78  N   UNK N   1      20.863  13.633   4.753  0.00  0.00    -0.361 N 
HETATM   79  C   UNK N   1      20.122  14.001   5.745  0.00  0.00     0.141 C 
ATOM     80  HN  UNK N   1      20.769  14.124   3.863  1.00  0.00     0.162 HD
BRANCH  79  81
HETATM   81  C   UNK N   1      19.308  15.260   5.651  0.00  0.00     0.356 C 
BRANCH  81  82
HETATM   82  N   UNK N   1      19.955  16.545   5.956  0.00  0.00     0.107 N 
BRANCH  82  83
HETATM   83  C   UNK N   1      20.470  17.324   4.826  0.00  0.00     0.303 C 
BRANCH  83  84
HETATM   84  C   UNK N   1      19.518  17.178   3.623  0.00  0.00     0.303 C 
BRANCH  84  85
HETATM   85  N   UNK N   1      19.786  18.113   2.522  0.00  0.00     0.100 N 
BRANCH  85  86
HETATM   86  C   UNK N   1      20.027  17.323   1.315  0.00  0.00     0.274 C 
BRANCH  86  87
HETATM   87  C   UNK N   1      20.861  16.076   1.612  0.00  0.00     0.056 C 
BRANCH  87  88
HETATM   88  C   UNK N   1      20.379  14.798   0.894  0.00  0.00     0.182 C 
BRANCH  88  89
HETATM   89  C   UNK N   1      21.399  13.696   0.916  0.00  0.00     0.154 C 
HETATM   90  O   UNK N   1      22.498  13.853   0.404  0.00  0.00    -0.649 OA
BRANCH  89  91
HETATM   91  O   UNK N   1      21.109  12.532   1.526  0.00  0.00    -0.776 OA
HETATM   92  H   UNK N   1      21.579  11.727   1.423  0.00  0.00     0.167 HD
ENDBRANCH  89  91
ENDBRANCH  88  89
BRANCH  88  93
HETATM   93  C   UNK N   1      19.035  14.291   1.349  0.00  0.00     0.154 C 
HETATM   94  O   UNK N   1      18.889  13.805   2.460  0.00  0.00    -0.649 OA
BRANCH  93  95
HETATM   95  O   UNK N   1      17.976  14.387   0.523  0.00  0.00    -0.776 OA
HETATM   96  H   UNK N   1      17.516  15.195   0.408  0.00  0.00     0.167 HD
ENDBRANCH  93  95
ENDBRANCH  88  93
ENDBRANCH  87  88
ENDBRANCH  86  87
ENDBRANCH  85  86
BRANCH  85  97
HETATM   97  C   UNK N   1      21.030  18.835   2.772  0.00  0.00     0.385 C 
BRANCH  97  98
HETATM   98  C   UNK N   1      20.780  20.308   2.787  0.00  0.00     0.202 C 
HETATM   99  O   UNK N   1      20.298  20.840   3.772  0.00  0.00    -0.647 OA
HETATM  100  O   UNK N   1      21.072  21.049   1.703  0.00  0.00    -0.647 OA
ENDBRANCH  97  98
ENDBRANCH  85  97
ENDBRANCH  84  85
ENDBRANCH  83  84
ENDBRANCH  82  83
BRANCH  82 101
HETATM  101  C   UNK N   1      21.015  16.294   6.944  0.00  0.00     0.385 C 
BRANCH 101 102
HETATM  102  C   UNK N   1      20.584  16.447   8.387  0.00  0.00     0.202 C 
HETATM  103  O   UNK N   1      20.410  17.564   8.844  0.00  0.00    -0.647 OA
HETATM  104  O   UNK N   1      20.381  15.371   9.175  0.00  0.00    -0.647 OA
ENDBRANCH 101 102
ENDBRANCH  82 101
ENDBRANCH  81  82
ENDBRANCH  79  81
BRANCH  79 105
HETATM  105  O   UNK N   1      20.191  13.361   6.930  0.00  0.00    -0.348 OA
ATOM    106  HO  UNK N   1      20.766  12.609   7.010  1.00  0.00     0.219 HD
ENDBRANCH  79 105
ENDBRANCH  70  78
ENDBRANCH  68  70
BRANCH  68 107
HETATM  107  O   UNK N   1      23.105  13.033   6.888  0.00  0.00    -0.348 OA
HETATM  108  H   UNK N   1      22.902  13.396   7.729  0.00  0.00     0.219 HD
ENDBRANCH  68 107
ENDBRANCH   6  67
BRANCH  12 109
HETATM  109  O   UNK N   1      25.285  14.342   1.553  0.00  0.00    -0.348 OA
HETATM  110  H   UNK N   1      25.450  14.439   0.636  0.00  0.00     0.219 HD
ENDBRANCH  12 109
BRANCH  10 111
HETATM  111  O   UNK N   1      28.734  15.263   6.139  0.00  0.00    -0.348 OA
HETATM  112  H   UNK N   1      29.059  14.929   6.953  0.00  0.00     0.219 HD
ENDBRANCH  10 111
BRANCH   4 113
HETATM  113  C   UNK N   1      25.979  15.165   5.845  0.00  0.00     0.072 C 
BRANCH 113 114
HETATM  114  C   UNK N   1      25.627  16.534   5.336  0.00  0.00    -0.056 A 
HETATM  115  C   UNK N   1      26.619  17.513   5.227  0.00  0.00     0.007 A 
HETATM  116  C   UNK N   1      26.289  18.800   4.788  0.00  0.00     0.001 A 
HETATM  117  C   UNK N   1      24.965  19.113   4.466  0.00  0.00     0.000 A 
HETATM  118  C   UNK N   1      23.969  18.140   4.585  0.00  0.00     0.001 A 
HETATM  119  C   UNK N   1      24.300  16.856   5.023  0.00  0.00     0.007 A 
ENDBRANCH 113 114
ENDBRANCH   4 113
TORSDOF 46
ENDMDL
MODEL 6
REMARK VINA RESULT:      -6.6      1.624      3.015
REMARK WARNING: 32 MAX_TORS EXCEEDED!!!
REMARK  46 active torsions:
REMARK  status: ('A' for Active; 'I' for Inactive)
REMARK    1  A    between atoms: C_12  and  C_11 
REMARK    2  A    between atoms: C_19  and  C_11 
REMARK    3  A    between atoms: C_21  and  C_12 
REMARK    4  A    between atoms: C_43  and  C_19 
REMARK    5  A    between atoms: C_22  and  C_20 
REMARK    6  A    between atoms: C_41  and  C_20 
REMARK    7  A    between atoms: N_63  and  C_21 
REMARK    8  A    between atoms: N_81  and  C_22 
REMARK    9  A    between atoms: C_24  and  C_23 
REMARK   10  A    between atoms: N_81  and  C_23 
REMARK   11  A    between atoms: N_82  and  C_24 
REMARK   12  A    between atoms: C_37  and  C_25 
REMARK   13  A    between atoms: C_44  and  C_25 
REMARK   14  A    between atoms: C_38  and  C_26 
REMARK   15  A    between atoms: C_45  and  C_26 
REMARK   16  A    between atoms: C_39  and  C_27 
REMARK   17  A    between atoms: C_46  and  C_27 
REMARK   18  A    between atoms: C_50  and  C_29 
REMARK   19  A    between atoms: N_82  and  C_29 
REMARK   20  A    between atoms: C_51  and  C_30 
REMARK   21  A    between atoms: N_81  and  C_30 
REMARK   22  A    between atoms: C_52  and  C_31 
REMARK   23  A    between atoms: N_82  and  C_31 
REMARK   24  A    between atoms: C_47  and  C_32 
REMARK   25  A    between atoms: O_83  and  C_32 
REMARK   26  A    between atoms: C_47  and  C_35 
REMARK   27  A    between atoms: O_84  and  C_35 
REMARK   28  A    between atoms: C_53  and  C_36 
REMARK   29  A    between atoms: O_85  and  C_36 
REMARK   30  A    between atoms: C_61  and  C_41 
REMARK   31  A    between atoms: C_62  and  C_41 
REMARK   32  A    between atoms: C_55  and  C_44 
REMARK   33  A    between atoms: N_65  and  C_44 
REMARK   34  A    between atoms: N_73  and  C_47 
REMARK   35  A    between atoms: N_75  and  C_48 
REMARK   36  A    between atoms: C_59  and  C_49 
REMARK   37  A    between atoms: O_86  and  C_50 
REMARK   38  A    between atoms: O_92  and  C_54 
REMARK   39  A    between atoms: O_94  and  C_55 
REMARK   40  A    between atoms: O_95  and  C_56 
REMARK   41  A    between atoms: O_96  and  C_57 
REMARK   42  A    between atoms: O_97  and  C_58 
REMARK   43  A    between atoms: O_98  and  C_59 
REMARK   44  A    between atoms: O_101  and  C_61 
REMARK   45  A    between atoms: O_103  and  C_62 
REMARK   46  A    between atoms: In_106  and  In_106 
ROOT
HETATM    1  C   UNK N   1      30.037  13.111   2.143  0.00  0.00     0.119 C 
HETATM    2  C   UNK N   1      26.703  11.411   3.421  0.00  0.00     0.119 C 
HETATM    3  C   UNK N   1      21.202  13.901   4.929  0.00  0.00     0.158 C 
HETATM    4  C   UNK N   1      27.912  14.936   5.098  0.00  0.00     0.162 C 
HETATM    5  C   UNK N   1      24.627  13.610   6.481  0.00  0.00     0.162 C 
HETATM    6  C   UNK N   1      30.287  13.822   3.460  0.00  0.00     0.168 C 
HETATM    7  C   UNK N   1      25.345  11.597   2.739  0.00  0.00     0.168 C 
HETATM    8  C   UNK N   1      22.878  13.165   2.607  0.00  0.00     0.186 C 
HETATM    9  C   UNK N   1      21.292  14.685   3.644  0.00  0.00     0.135 C 
HETATM   10  C   UNK N   1      26.563  14.901   5.783  0.00  0.00     0.135 C 
HETATM   11  C   UNK N   1      23.424  14.228   5.829  0.00  0.00     0.135 C 
HETATM   12  C   UNK N   1      29.571  13.154   4.625  0.00  0.00     0.136 C 
HETATM   13  C   UNK N   1      24.210  13.619   2.042  0.00  0.00     0.138 C 
HETATM   14  N   UNK N   1      22.469  13.448   5.461  0.00  0.00    -0.361 N 
ATOM     15  HN  UNK N   1      22.615  12.443   5.550  1.00  0.00     0.162 HD
HETATM   16  N   UNK N   1      28.578  13.659   5.290  0.00  0.00    -0.360 N 
ATOM     17  HN  UNK N   1      28.216  13.082   6.049  1.00  0.00     0.162 HD
HETATM   18  N   UNK N   1      25.876  13.806   5.770  0.00  0.00    -0.360 N 
ATOM     19  HN  UNK N   1      26.238  13.026   5.222  1.00  0.00     0.162 HD
HETATM   20  N   UNK N   1      25.274  12.893   2.107  0.00  0.00    -0.360 N 
ATOM     21  HN  UNK N   1      26.125  13.259   1.680  1.00  0.00     0.162 HD
HETATM   22  N   UNK N   1      21.977  14.300   2.624  0.00  0.00    -0.358 N 
ATOM     23  HN  UNK N   1      21.880  14.835   1.761  1.00  0.00     0.162 HD
HETATM   24  O   UNK N   1      24.301  14.835   1.465  0.00  0.00    -0.348 OA
HETATM   25  S   UNK N   1      28.290  13.136   1.658  0.00  0.00    -0.095 SA
HETATM   26  S   UNK N   1      28.039  11.092   2.217  0.00  0.00    -0.095 SA
HETATM   27  H   UNK N   1      24.294  15.618   0.951  0.00  0.00     0.219 HD
ENDROOT
BRANCH   8  28
HETATM   28  C   UNK N   1      22.284  11.986   1.820  0.00  0.00     0.144 C 
HETATM   29  C   UNK N   1      21.504  12.418   0.587  0.00  0.00     0.042 C 
BRANCH  28  30
HETATM   30  O   UNK N   1      21.467  11.208   2.634  0.00  0.00    -0.393 OA
HETATM   31  H   UNK N   1      21.511  10.348   3.080  0.00  0.00     0.210 HD
ENDBRANCH  28  30
ENDBRANCH   8  28
BRANCH   7  32
HETATM   32  C   UNK N   1      24.944  10.411   1.866  0.00  0.00     0.136 C 
HETATM   33  N   UNK N   1      24.553   9.264   2.327  0.00  0.00    -0.364 N 
ATOM     34  HN  UNK N   1      24.370   8.520   1.652  1.00  0.00     0.162 HD
BRANCH  33  35
HETATM   35  C   UNK N   1      24.356   8.961   3.729  0.00  0.00     0.135 C 
BRANCH  35  36
HETATM   36  C   UNK N   1      25.447   8.033   4.246  0.00  0.00     0.191 C 
BRANCH  36  37
HETATM   37  O   UNK N   1      26.190   7.498   3.193  0.00  0.00    -0.399 OA
HETATM   38  H   UNK N   1      25.832   6.855   2.560  0.00  0.00     0.209 HD
ENDBRANCH  36  37
ENDBRANCH  35  36
BRANCH  35  39
HETATM   39  C   UNK N   1      22.991   8.335   3.960  0.00  0.00     0.138 C 
HETATM   40  C   UNK N   1      23.126   7.176   4.930  0.00  0.00     0.041 C 
BRANCH  39  41
HETATM   41  O   UNK N   1      22.103   9.272   4.481  0.00  0.00    -0.394 OA
HETATM   42  H   UNK N   1      21.477   9.952   4.189  0.00  0.00     0.210 HD
ENDBRANCH  39  41
ENDBRANCH  35  39
ENDBRANCH  33  35
BRANCH  32  43
HETATM   43  O   UNK N   1      25.010  10.575   0.532  0.00  0.00    -0.348 OA
HETATM   44  H   UNK N   1      24.792  10.846  -0.339  0.00  0.00     0.219 HD
ENDBRANCH  32  43
ENDBRANCH   7  32
BRANCH   9  45
HETATM   45  O   UNK N   1      20.577  15.821   3.550  0.00  0.00    -0.348 OA
ATOM     46  HO  UNK N   1      19.783  15.889   4.068  1.00  0.00     0.219 HD
ENDBRANCH   9  45
BRANCH   3  47
HETATM   47  C   UNK N   1      20.254  12.724   4.748  0.00  0.00     0.033 C 
BRANCH  47  48
HETATM   48  C   UNK N   1      18.895  13.145   4.192  0.00  0.00     0.004 C 
BRANCH  48  49
HETATM   49  C   UNK N   1      18.191  12.028   3.417  0.00  0.00     0.019 C 
BRANCH  49  50
HETATM   50  C   UNK N   1      18.157  12.277   1.913  0.00  0.00     0.111 C 
BRANCH  50  51
HETATM   51  N   UNK N   1      18.477  13.661   1.618  0.00  0.00    -0.430 N 
HETATM   52  H   UNK N   1      17.949  14.448   1.997  0.00  0.00     0.149 HD
HETATM   53  H   UNK N   1      19.266  13.857   1.003  0.00  0.00     0.149 HD
ENDBRANCH  50  51
ENDBRANCH  49  50
ENDBRANCH  48  49
ENDBRANCH  47  48
ENDBRANCH   3  47
BRANCH  11  54
HETATM   54  O   UNK N   1      23.317  15.568   5.705  0.00  0.00    -0.348 OA
HETATM   55  H   UNK N   1      22.990  16.404   5.436  0.00  0.00     0.219 HD
ENDBRANCH  11  54
BRANCH   5  56
HETATM   56  C   UNK N   1      24.782  13.794   8.005  0.00  0.00     0.074 C 
BRANCH  56  57
HETATM   57  C   UNK N   1      23.833  13.011   8.865  0.00  0.00    -0.028 A 
HETATM   58  C   UNK N   1      24.074  11.779   9.469  0.00  0.00     0.096 A 
HETATM   59  N   UNK N   1      22.979  11.398  10.175  0.00  0.00    -0.365 N 
HETATM   60  C   UNK N   1      22.073  12.382  10.019  0.00  0.00     0.042 A 
HETATM   61  H   UNK N   1      22.870  10.569  10.696  0.00  0.00     0.165 HD
HETATM   62  C   UNK N   1      20.794  12.437  10.565  0.00  0.00     0.030 A 
HETATM   63  C   UNK N   1      22.565  13.381   9.228  0.00  0.00    -0.002 A 
HETATM   64  C   UNK N   1      20.009  13.570  10.277  0.00  0.00     0.002 A 
HETATM   65  C   UNK N   1      20.519  14.605   9.460  0.00  0.00     0.001 A 
HETATM   66  C   UNK N   1      21.816  14.516   8.925  0.00  0.00     0.014 A 
ENDBRANCH  56  57
ENDBRANCH   5  56
BRANCH   6  67
HETATM   67  N   UNK N   1      30.107  15.244   3.333  0.00  0.00    -0.360 N 
HETATM   68  C   UNK N   1      30.924  16.102   3.851  0.00  0.00     0.135 C 
ATOM     69  HN  UNK N   1      29.301  15.590   2.813  1.00  0.00     0.162 HD
BRANCH  68  70
HETATM   70  C   UNK N   1      32.182  15.706   4.600  0.00  0.00     0.162 C 
BRANCH  70  71
HETATM   71  C   UNK N   1      33.458  16.130   3.873  0.00  0.00     0.072 C 
BRANCH  71  72
HETATM   72  C   UNK N   1      34.358  14.974   3.575  0.00  0.00    -0.056 A 
HETATM   73  C   UNK N   1      35.122  14.421   4.609  0.00  0.00     0.007 A 
HETATM   74  C   UNK N   1      35.966  13.336   4.356  0.00  0.00     0.001 A 
HETATM   75  C   UNK N   1      36.045  12.797   3.068  0.00  0.00     0.000 A 
HETATM   76  C   UNK N   1      35.277  13.341   2.034  0.00  0.00     0.001 A 
HETATM   77  C   UNK N   1      34.432  14.428   2.286  0.00  0.00     0.007 A 
ENDBRANCH  71  72
ENDBRANCH  70  71
BRANCH  70  78
HETATM   78  N   UNK N   1      32.196  16.145   5.985  0.00  0.00    -0.361 N 
HETATM   79  C   UNK N   1      31.911  15.357   6.967  0.00  0.00     0.141 C 
ATOM     80  HN  UNK N   1      32.441  17.115   6.189  1.00  0.00     0.162 HD
BRANCH  79  81
HETATM   81  C   UNK N   1      32.149  15.800   8.383  0.00  0.00     0.356 C 
BRANCH  81  82
HETATM   82  N   UNK N   1      33.524  16.108   8.805  0.00  0.00     0.107 N 
BRANCH  82  83
HETATM   83  C   UNK N   1      34.043  15.399   9.979  0.00  0.00     0.303 C 
BRANCH  83  84
HETATM   84  C   UNK N   1      35.427  14.804   9.652  0.00  0.00     0.303 C 
BRANCH  84  85
HETATM   85  N   UNK N   1      35.976  13.934  10.701  0.00  0.00     0.100 N 
BRANCH  85  86
HETATM   86  C   UNK N   1      36.267  12.635  10.095  0.00  0.00     0.274 C 
BRANCH  86  87
HETATM   87  C   UNK N   1      35.197  11.598  10.439  0.00  0.00     0.056 C 
BRANCH  87  88
HETATM   88  C   UNK N   1      34.477  10.993   9.216  0.00  0.00     0.182 C 
BRANCH  88  89
HETATM   89  C   UNK N   1      33.793   9.692   9.526  0.00  0.00     0.154 C 
HETATM   90  O   UNK N   1      34.189   8.647   9.034  0.00  0.00    -0.649 OA
BRANCH  89  91
HETATM   91  O   UNK N   1      32.747   9.676  10.374  0.00  0.00    -0.776 OA
HETATM   92  H   UNK N   1      32.757   9.981  11.261  0.00  0.00     0.167 HD
ENDBRANCH  89  91
ENDBRANCH  88  89
BRANCH  88  93
HETATM   93  C   UNK N   1      33.538  11.936   8.510  0.00  0.00     0.154 C 
HETATM   94  O   UNK N   1      33.775  12.334   7.381  0.00  0.00    -0.649 OA
BRANCH  93  95
HETATM   95  O   UNK N   1      32.412  12.338   9.131  0.00  0.00    -0.776 OA
HETATM   96  H   UNK N   1      32.404  12.545  10.045  0.00  0.00     0.167 HD
ENDBRANCH  93  95
ENDBRANCH  88  93
ENDBRANCH  87  88
ENDBRANCH  86  87
ENDBRANCH  85  86
BRANCH  85  97
HETATM   97  C   UNK N   1      34.959  13.674  11.715  0.00  0.00     0.385 C 
BRANCH  97  98
HETATM   98  C   UNK N   1      35.481  14.015  13.073  0.00  0.00     0.202 C 
HETATM   99  O   UNK N   1      35.143  13.361  14.044  0.00  0.00    -0.647 OA
HETATM  100  O   UNK N   1      36.314  15.060  13.228  0.00  0.00    -0.647 OA
ENDBRANCH  97  98
ENDBRANCH  85  97
ENDBRANCH  84  85
ENDBRANCH  83  84
ENDBRANCH  82  83
BRANCH  82 101
HETATM  101  C   UNK N   1      33.626  17.563   8.986  0.00  0.00     0.385 C 
BRANCH 101 102
HETATM  102  C   UNK N   1      34.539  18.262   8.001  0.00  0.00     0.202 C 
HETATM  103  O   UNK N   1      35.292  19.133   8.400  0.00  0.00    -0.647 OA
HETATM  104  O   UNK N   1      34.540  17.933   6.693  0.00  0.00    -0.647 OA
ENDBRANCH 101 102
ENDBRANCH  82 101
ENDBRANCH  81  82
ENDBRANCH  79  81
BRANCH  79 105
HETATM  105  O   UNK N   1      31.553  14.076   6.741  0.00  0.00    -0.348 OA
ATOM    106  HO  UNK N   1      32.168  13.500   6.304  1.00  0.00     0.219 HD
ENDBRANCH  79 105
ENDBRANCH  70  78
ENDBRANCH  68  70
BRANCH  68 107
HETATM  107  O   UNK N   1      30.646  17.413   3.738  0.00  0.00    -0.348 OA
HETATM  108  H   UNK N   1      30.537  18.240   3.311  0.00  0.00     0.219 HD
ENDBRANCH  68 107
ENDBRANCH   6  67
BRANCH  12 109
HETATM  109  O   UNK N   1      29.992  11.923   4.967  0.00  0.00    -0.348 OA
HETATM  110  H   UNK N   1      30.342  11.053   4.947  0.00  0.00     0.219 HD
ENDBRANCH  12 109
BRANCH  10 111
HETATM  111  O   UNK N   1      26.110  15.987   6.447  0.00  0.00    -0.348 OA
HETATM  112  H   UNK N   1      26.465  16.433   7.190  0.00  0.00     0.219 HD
ENDBRANCH  10 111
BRANCH   4 113
HETATM  113  C   UNK N   1      28.754  16.120   5.624  0.00  0.00     0.072 C 
BRANCH 113 114
HETATM  114  C   UNK N   1      28.164  17.480   5.380  0.00  0.00    -0.056 A 
HETATM  115  C   UNK N   1      27.571  17.772   4.148  0.00  0.00     0.007 A 
HETATM  116  C   UNK N   1      27.053  19.049   3.905  0.00  0.00     0.001 A 
HETATM  117  C   UNK N   1      27.136  20.039   4.889  0.00  0.00     0.000 A 
HETATM  118  C   UNK N   1      27.739  19.754   6.116  0.00  0.00     0.001 A 
HETATM  119  C   UNK N   1      28.255  18.479   6.358  0.00  0.00     0.007 A 
ENDBRANCH 113 114
ENDBRANCH   4 113
TORSDOF 46
ENDMDL
MODEL 7
REMARK VINA RESULT:      -6.6      2.470      4.506
REMARK WARNING: 32 MAX_TORS EXCEEDED!!!
REMARK  46 active torsions:
REMARK  status: ('A' for Active; 'I' for Inactive)
REMARK    1  A    between atoms: C_12  and  C_11 
REMARK    2  A    between atoms: C_19  and  C_11 
REMARK    3  A    between atoms: C_21  and  C_12 
REMARK    4  A    between atoms: C_43  and  C_19 
REMARK    5  A    between atoms: C_22  and  C_20 
REMARK    6  A    between atoms: C_41  and  C_20 
REMARK    7  A    between atoms: N_63  and  C_21 
REMARK    8  A    between atoms: N_81  and  C_22 
REMARK    9  A    between atoms: C_24  and  C_23 
REMARK   10  A    between atoms: N_81  and  C_23 
REMARK   11  A    between atoms: N_82  and  C_24 
REMARK   12  A    between atoms: C_37  and  C_25 
REMARK   13  A    between atoms: C_44  and  C_25 
REMARK   14  A    between atoms: C_38  and  C_26 
REMARK   15  A    between atoms: C_45  and  C_26 
REMARK   16  A    between atoms: C_39  and  C_27 
REMARK   17  A    between atoms: C_46  and  C_27 
REMARK   18  A    between atoms: C_50  and  C_29 
REMARK   19  A    between atoms: N_82  and  C_29 
REMARK   20  A    between atoms: C_51  and  C_30 
REMARK   21  A    between atoms: N_81  and  C_30 
REMARK   22  A    between atoms: C_52  and  C_31 
REMARK   23  A    between atoms: N_82  and  C_31 
REMARK   24  A    between atoms: C_47  and  C_32 
REMARK   25  A    between atoms: O_83  and  C_32 
REMARK   26  A    between atoms: C_47  and  C_35 
REMARK   27  A    between atoms: O_84  and  C_35 
REMARK   28  A    between atoms: C_53  and  C_36 
REMARK   29  A    between atoms: O_85  and  C_36 
REMARK   30  A    between atoms: C_61  and  C_41 
REMARK   31  A    between atoms: C_62  and  C_41 
REMARK   32  A    between atoms: C_55  and  C_44 
REMARK   33  A    between atoms: N_65  and  C_44 
REMARK   34  A    between atoms: N_73  and  C_47 
REMARK   35  A    between atoms: N_75  and  C_48 
REMARK   36  A    between atoms: C_59  and  C_49 
REMARK   37  A    between atoms: O_86  and  C_50 
REMARK   38  A    between atoms: O_92  and  C_54 
REMARK   39  A    between atoms: O_94  and  C_55 
REMARK   40  A    between atoms: O_95  and  C_56 
REMARK   41  A    between atoms: O_96  and  C_57 
REMARK   42  A    between atoms: O_97  and  C_58 
REMARK   43  A    between atoms: O_98  and  C_59 
REMARK   44  A    between atoms: O_101  and  C_61 
REMARK   45  A    between atoms: O_103  and  C_62 
REMARK   46  A    between atoms: In_106  and  In_106 
ROOT
HETATM    1  C   UNK N   1      27.925  10.896   1.667  0.00  0.00     0.119 C 
HETATM    2  C   UNK N   1      24.432  11.128   3.508  0.00  0.00     0.119 C 
HETATM    3  C   UNK N   1      21.358  16.045   5.766  0.00  0.00     0.158 C 
HETATM    4  C   UNK N   1      27.549  13.405   4.852  0.00  0.00     0.162 C 
HETATM    5  C   UNK N   1      24.310  13.923   6.775  0.00  0.00     0.162 C 
HETATM    6  C   UNK N   1      28.706  11.301   2.903  0.00  0.00     0.168 C 
HETATM    7  C   UNK N   1      23.290  12.033   3.040  0.00  0.00     0.168 C 
HETATM    8  C   UNK N   1      22.025  14.664   3.239  0.00  0.00     0.186 C 
HETATM    9  C   UNK N   1      21.651  16.732   4.457  0.00  0.00     0.135 C 
HETATM   10  C   UNK N   1      26.503  14.046   5.739  0.00  0.00     0.135 C 
HETATM   11  C   UNK N   1      23.527  15.113   6.297  0.00  0.00     0.135 C 
HETATM   12  C   UNK N   1      27.931  11.047   4.188  0.00  0.00     0.136 C 
HETATM   13  C   UNK N   1      23.295  14.382   2.457  0.00  0.00     0.138 C 
HETATM   14  N   UNK N   1      22.263  14.969   6.110  0.00  0.00    -0.361 N 
ATOM     15  HN  UNK N   1      21.871  14.033   6.211  1.00  0.00     0.162 HD
HETATM   16  N   UNK N   1      27.465  11.960   4.981  0.00  0.00    -0.360 N 
ATOM     17  HN  UNK N   1      26.973  11.620   5.808  1.00  0.00     0.162 HD
HETATM   18  N   UNK N   1      25.352  13.475   5.871  0.00  0.00    -0.360 N 
ATOM     19  HN  UNK N   1      25.162  12.650   5.302  1.00  0.00     0.162 HD
HETATM   20  N   UNK N   1      23.815  13.205   2.381  0.00  0.00    -0.360 N 
ATOM     21  HN  UNK N   1      24.656  13.093   1.815  1.00  0.00     0.162 HD
HETATM   22  N   UNK N   1      21.870  16.100   3.356  0.00  0.00    -0.358 N 
ATOM     23  HN  UNK N   1      21.938  16.651   2.501  1.00  0.00     0.162 HD
HETATM   24  O   UNK N   1      23.921  15.399   1.832  0.00  0.00    -0.348 OA
HETATM   25  S   UNK N   1      26.402  11.857   1.459  0.00  0.00    -0.095 SA
HETATM   26  S   UNK N   1      25.202  10.221   2.122  0.00  0.00    -0.095 SA
HETATM   27  H   UNK N   1      24.249  16.096   1.297  0.00  0.00     0.219 HD
ENDROOT
BRANCH   8  28
HETATM   28  C   UNK N   1      20.790  14.014   2.596  0.00  0.00     0.144 C 
HETATM   29  C   UNK N   1      20.015  14.959   1.691  0.00  0.00     0.042 C 
BRANCH  28  30
HETATM   30  O   UNK N   1      19.937  13.502   3.568  0.00  0.00    -0.393 OA
HETATM   31  H   UNK N   1      19.316  13.846   4.230  0.00  0.00     0.210 HD
ENDBRANCH  28  30
ENDBRANCH   8  28
BRANCH   7  32
HETATM   32  C   UNK N   1      22.200  11.279   2.282  0.00  0.00     0.136 C 
HETATM   33  N   UNK N   1      21.310  10.521   2.844  0.00  0.00    -0.364 N 
ATOM     34  HN  UNK N   1      20.667  10.014   2.234  1.00  0.00     0.162 HD
BRANCH  33  35
HETATM   35  C   UNK N   1      21.163  10.341   4.272  0.00  0.00     0.135 C 
BRANCH  35  36
HETATM   36  C   UNK N   1      21.726   8.997   4.716  0.00  0.00     0.191 C 
BRANCH  36  37
HETATM   37  O   UNK N   1      22.639   9.157   5.759  0.00  0.00    -0.399 OA
HETATM   38  H   UNK N   1      23.390   9.770   5.721  0.00  0.00     0.209 HD
ENDBRANCH  36  37
ENDBRANCH  35  36
BRANCH  35  39
HETATM   39  C   UNK N   1      19.704  10.451   4.683  0.00  0.00     0.138 C 
HETATM   40  C   UNK N   1      19.239   9.125   5.254  0.00  0.00     0.041 C 
BRANCH  39  41
HETATM   41  O   UNK N   1      19.538  11.449   5.639  0.00  0.00    -0.394 OA
HETATM   42  H   UNK N   1      19.992  11.837   6.403  0.00  0.00     0.210 HD
ENDBRANCH  39  41
ENDBRANCH  35  39
ENDBRANCH  33  35
BRANCH  32  43
HETATM   43  O   UNK N   1      22.172  11.413   0.943  0.00  0.00    -0.348 OA
HETATM   44  H   UNK N   1      22.038  11.217   0.036  0.00  0.00     0.219 HD
ENDBRANCH  32  43
ENDBRANCH   7  32
BRANCH   9  45
HETATM   45  O   UNK N   1      21.634  18.077   4.436  0.00  0.00    -0.348 OA
ATOM     46  HO  UNK N   1      22.323  18.522   3.955  1.00  0.00     0.219 HD
ENDBRANCH   9  45
BRANCH   3  47
HETATM   47  C   UNK N   1      19.919  15.550   5.777  0.00  0.00     0.033 C 
BRANCH  47  48
HETATM   48  C   UNK N   1      19.031  16.349   6.728  0.00  0.00     0.004 C 
BRANCH  48  49
HETATM   49  C   UNK N   1      19.821  17.088   7.810  0.00  0.00     0.019 C 
BRANCH  49  50
HETATM   50  C   UNK N   1      18.974  17.449   9.025  0.00  0.00     0.111 C 
BRANCH  50  51
HETATM   51  N   UNK N   1      19.318  18.772   9.511  0.00  0.00    -0.430 N 
HETATM   52  H   UNK N   1      20.140  19.287   9.193  0.00  0.00     0.149 HD
HETATM   53  H   UNK N   1      18.711  19.208  10.205  0.00  0.00     0.149 HD
ENDBRANCH  50  51
ENDBRANCH  49  50
ENDBRANCH  48  49
ENDBRANCH  47  48
ENDBRANCH   3  47
BRANCH  11  54
HETATM   54  O   UNK N   1      24.122  16.316   6.145  0.00  0.00    -0.348 OA
HETATM   55  H   UNK N   1      24.403  17.190   6.333  0.00  0.00     0.219 HD
ENDBRANCH  11  54
BRANCH   5  56
HETATM   56  C   UNK N   1      24.766  13.920   8.249  0.00  0.00     0.074 C 
BRANCH  56  57
HETATM   57  C   UNK N   1      23.975  13.051   9.183  0.00  0.00    -0.028 A 
HETATM   58  C   UNK N   1      24.426  11.913   9.850  0.00  0.00     0.096 A 
HETATM   59  N   UNK N   1      23.424  11.407  10.612  0.00  0.00    -0.365 N 
HETATM   60  C   UNK N   1      22.367  12.222  10.428  0.00  0.00     0.042 A 
HETATM   61  H   UNK N   1      23.461  10.606  11.183  0.00  0.00     0.165 HD
HETATM   62  C   UNK N   1      21.109  12.106  11.011  0.00  0.00     0.030 A 
HETATM   63  C   UNK N   1      22.674  13.235   9.565  0.00  0.00    -0.002 A 
HETATM   64  C   UNK N   1      20.144  13.078  10.683  0.00  0.00     0.002 A 
HETATM   65  C   UNK N   1      20.462  14.129   9.791  0.00  0.00     0.001 A 
HETATM   66  C   UNK N   1      21.744  14.215   9.220  0.00  0.00     0.014 A 
ENDBRANCH  56  57
ENDBRANCH   5  56
BRANCH   6  67
HETATM   67  N   UNK N   1      29.283  12.611   2.756  0.00  0.00    -0.360 N 
HETATM   68  C   UNK N   1      30.552  12.805   2.603  0.00  0.00     0.135 C 
ATOM     69  HN  UNK N   1      28.664  13.421   2.774  1.00  0.00     0.162 HD
BRANCH  68  70
HETATM   70  C   UNK N   1      31.561  11.676   2.510  0.00  0.00     0.162 C 
BRANCH  70  71
HETATM   71  C   UNK N   1      32.262  11.623   1.153  0.00  0.00     0.072 C 
BRANCH  71  72
HETATM   72  C   UNK N   1      31.425  10.969   0.101  0.00  0.00    -0.056 A 
HETATM   73  C   UNK N   1      31.134   9.605   0.213  0.00  0.00     0.007 A 
HETATM   74  C   UNK N   1      30.349   8.972  -0.755  0.00  0.00     0.001 A 
HETATM   75  C   UNK N   1      29.847   9.703  -1.835  0.00  0.00     0.000 A 
HETATM   76  C   UNK N   1      30.128  11.069  -1.947  0.00  0.00     0.001 A 
HETATM   77  C   UNK N   1      30.915  11.703  -0.979  0.00  0.00     0.007 A 
ENDBRANCH  71  72
ENDBRANCH  70  71
BRANCH  70  78
HETATM   78  N   UNK N   1      32.522  11.665   3.599  0.00  0.00    -0.361 N 
HETATM   79  C   UNK N   1      32.391  10.906   4.635  0.00  0.00     0.141 C 
ATOM     80  HN  UNK N   1      33.334  12.281   3.542  1.00  0.00     0.162 HD
BRANCH  79  81
HETATM   81  C   UNK N   1      33.516  10.776   5.622  0.00  0.00     0.356 C 
BRANCH  81  82
HETATM   82  N   UNK N   1      33.219  10.920   7.056  0.00  0.00     0.107 N 
BRANCH  82  83
HETATM   83  C   UNK N   1      33.923  11.979   7.786  0.00  0.00     0.303 C 
BRANCH  83  84
HETATM   84  C   UNK N   1      34.436  13.038   6.790  0.00  0.00     0.303 C 
BRANCH  84  85
HETATM   85  N   UNK N   1      34.004  14.410   7.089  0.00  0.00     0.100 N 
BRANCH  85  86
HETATM   86  C   UNK N   1      33.114  14.354   8.249  0.00  0.00     0.274 C 
BRANCH  86  87
HETATM   87  C   UNK N   1      33.571  15.302   9.359  0.00  0.00     0.056 C 
BRANCH  87  88
HETATM   88  C   UNK N   1      34.946  14.958   9.968  0.00  0.00     0.182 C 
BRANCH  88  89
HETATM   89  C   UNK N   1      35.652  16.159  10.529  0.00  0.00     0.154 C 
HETATM   90  O   UNK N   1      36.859  16.141  10.718  0.00  0.00    -0.649 OA
BRANCH  89  91
HETATM   91  O   UNK N   1      34.951  17.275  10.804  0.00  0.00    -0.776 OA
HETATM   92  H   UNK N   1      34.408  17.744  10.200  0.00  0.00     0.167 HD
ENDBRANCH  89  91
ENDBRANCH  88  89
BRANCH  88  93
HETATM   93  C   UNK N   1      34.924  13.834  10.971  0.00  0.00     0.154 C 
HETATM   94  O   UNK N   1      35.569  12.813  10.786  0.00  0.00    -0.649 OA
BRANCH  93  95
HETATM   95  O   UNK N   1      34.191  13.961  12.093  0.00  0.00    -0.776 OA
HETATM   96  H   UNK N   1      34.420  14.578  12.760  0.00  0.00     0.167 HD
ENDBRANCH  93  95
ENDBRANCH  88  93
ENDBRANCH  87  88
ENDBRANCH  86  87
ENDBRANCH  85  86
BRANCH  85  97
HETATM   97  C   UNK N   1      33.188  14.925   5.994  0.00  0.00     0.385 C 
BRANCH  97  98
HETATM   98  C   UNK N   1      33.668  16.278   5.582  0.00  0.00     0.202 C 
HETATM   99  O   UNK N   1      33.172  16.840   4.621  0.00  0.00    -0.647 OA
HETATM  100  O   UNK N   1      34.664  16.873   6.263  0.00  0.00    -0.647 OA
ENDBRANCH  97  98
ENDBRANCH  85  97
ENDBRANCH  84  85
ENDBRANCH  83  84
ENDBRANCH  82  83
BRANCH  82 101
HETATM  101  C   UNK N   1      33.432   9.614   7.695  0.00  0.00     0.385 C 
BRANCH 101 102
HETATM  102  C   UNK N   1      32.172   8.805   7.920  0.00  0.00     0.202 C 
HETATM  103  O   UNK N   1      32.131   7.647   7.546  0.00  0.00    -0.647 OA
HETATM  104  O   UNK N   1      31.097   9.341   8.535  0.00  0.00    -0.647 OA
ENDBRANCH 101 102
ENDBRANCH  82 101
ENDBRANCH  81  82
ENDBRANCH  79  81
BRANCH  79 105
HETATM  105  O   UNK N   1      31.318  10.098   4.766  0.00  0.00    -0.348 OA
ATOM    106  HO  UNK N   1      31.167   9.670   5.600  1.00  0.00     0.219 HD
ENDBRANCH  79 105
ENDBRANCH  70  78
ENDBRANCH  68  70
BRANCH  68 107
HETATM  107  O   UNK N   1      31.013  14.067   2.537  0.00  0.00    -0.348 OA
HETATM  108  H   UNK N   1      31.524  14.814   2.781  0.00  0.00     0.219 HD
ENDBRANCH  68 107
ENDBRANCH   6  67
BRANCH  12 109
HETATM  109  O   UNK N   1      27.690   9.761   4.504  0.00  0.00    -0.348 OA
HETATM  110  H   UNK N   1      27.627   8.826   4.483  0.00  0.00     0.219 HD
ENDBRANCH  12 109
BRANCH  10 111
HETATM  111  O   UNK N   1      26.794  15.172   6.427  0.00  0.00    -0.348 OA
HETATM  112  H   UNK N   1      27.587  15.670   6.465  0.00  0.00     0.219 HD
ENDBRANCH  10 111
BRANCH   4 113
HETATM  113  C   UNK N   1      28.954  13.944   5.197  0.00  0.00     0.072 C 
BRANCH 113 114
HETATM  114  C   UNK N   1      29.126  15.428   5.038  0.00  0.00    -0.056 A 
HETATM  115  C   UNK N   1      29.753  16.169   6.044  0.00  0.00     0.007 A 
HETATM  116  C   UNK N   1      29.882  17.557   5.916  0.00  0.00     0.001 A 
HETATM  117  C   UNK N   1      29.377  18.206   4.785  0.00  0.00     0.000 A 
HETATM  118  C   UNK N   1      28.741  17.470   3.783  0.00  0.00     0.001 A 
HETATM  119  C   UNK N   1      28.612  16.086   3.912  0.00  0.00     0.007 A 
ENDBRANCH 113 114
ENDBRANCH   4 113
TORSDOF 46
ENDMDL
MODEL 8
REMARK VINA RESULT:      -6.6      1.741      3.325
REMARK WARNING: 32 MAX_TORS EXCEEDED!!!
REMARK  46 active torsions:
REMARK  status: ('A' for Active; 'I' for Inactive)
REMARK    1  A    between atoms: C_12  and  C_11 
REMARK    2  A    between atoms: C_19  and  C_11 
REMARK    3  A    between atoms: C_21  and  C_12 
REMARK    4  A    between atoms: C_43  and  C_19 
REMARK    5  A    between atoms: C_22  and  C_20 
REMARK    6  A    between atoms: C_41  and  C_20 
REMARK    7  A    between atoms: N_63  and  C_21 
REMARK    8  A    between atoms: N_81  and  C_22 
REMARK    9  A    between atoms: C_24  and  C_23 
REMARK   10  A    between atoms: N_81  and  C_23 
REMARK   11  A    between atoms: N_82  and  C_24 
REMARK   12  A    between atoms: C_37  and  C_25 
REMARK   13  A    between atoms: C_44  and  C_25 
REMARK   14  A    between atoms: C_38  and  C_26 
REMARK   15  A    between atoms: C_45  and  C_26 
REMARK   16  A    between atoms: C_39  and  C_27 
REMARK   17  A    between atoms: C_46  and  C_27 
REMARK   18  A    between atoms: C_50  and  C_29 
REMARK   19  A    between atoms: N_82  and  C_29 
REMARK   20  A    between atoms: C_51  and  C_30 
REMARK   21  A    between atoms: N_81  and  C_30 
REMARK   22  A    between atoms: C_52  and  C_31 
REMARK   23  A    between atoms: N_82  and  C_31 
REMARK   24  A    between atoms: C_47  and  C_32 
REMARK   25  A    between atoms: O_83  and  C_32 
REMARK   26  A    between atoms: C_47  and  C_35 
REMARK   27  A    between atoms: O_84  and  C_35 
REMARK   28  A    between atoms: C_53  and  C_36 
REMARK   29  A    between atoms: O_85  and  C_36 
REMARK   30  A    between atoms: C_61  and  C_41 
REMARK   31  A    between atoms: C_62  and  C_41 
REMARK   32  A    between atoms: C_55  and  C_44 
REMARK   33  A    between atoms: N_65  and  C_44 
REMARK   34  A    between atoms: N_73  and  C_47 
REMARK   35  A    between atoms: N_75  and  C_48 
REMARK   36  A    between atoms: C_59  and  C_49 
REMARK   37  A    between atoms: O_86  and  C_50 
REMARK   38  A    between atoms: O_92  and  C_54 
REMARK   39  A    between atoms: O_94  and  C_55 
REMARK   40  A    between atoms: O_95  and  C_56 
REMARK   41  A    between atoms: O_96  and  C_57 
REMARK   42  A    between atoms: O_97  and  C_58 
REMARK   43  A    between atoms: O_98  and  C_59 
REMARK   44  A    between atoms: O_101  and  C_61 
REMARK   45  A    between atoms: O_103  and  C_62 
REMARK   46  A    between atoms: In_106  and  In_106 
ROOT
HETATM    1  C   UNK N   1      29.906  13.024   2.181  0.00  0.00     0.119 C 
HETATM    2  C   UNK N   1      26.570  11.360   3.501  0.00  0.00     0.119 C 
HETATM    3  C   UNK N   1      21.124  13.911   5.103  0.00  0.00     0.158 C 
HETATM    4  C   UNK N   1      27.849  14.861   5.177  0.00  0.00     0.162 C 
HETATM    5  C   UNK N   1      24.569  13.569   6.603  0.00  0.00     0.162 C 
HETATM    6  C   UNK N   1      30.185  13.725   3.498  0.00  0.00     0.168 C 
HETATM    7  C   UNK N   1      25.205  11.567   2.841  0.00  0.00     0.168 C 
HETATM    8  C   UNK N   1      22.756  13.166   2.753  0.00  0.00     0.186 C 
HETATM    9  C   UNK N   1      21.205  14.700   3.821  0.00  0.00     0.135 C 
HETATM   10  C   UNK N   1      26.510  14.839   5.882  0.00  0.00     0.135 C 
HETATM   11  C   UNK N   1      23.364  14.205   5.971  0.00  0.00     0.135 C 
HETATM   12  C   UNK N   1      29.478  13.061   4.671  0.00  0.00     0.136 C 
HETATM   13  C   UNK N   1      24.086  13.606   2.170  0.00  0.00     0.138 C 
HETATM   14  N   UNK N   1      22.394  13.440   5.614  0.00  0.00    -0.361 N 
ATOM     15  HN  UNK N   1      22.528  12.433   5.696  1.00  0.00     0.162 HD
HETATM   16  N   UNK N   1      28.501  13.574   5.353  0.00  0.00    -0.360 N 
ATOM     17  HN  UNK N   1      28.143  12.998   6.115  1.00  0.00     0.162 HD
HETATM   18  N   UNK N   1      25.809  13.754   5.874  0.00  0.00    -0.360 N 
ATOM     19  HN  UNK N   1      26.153  12.971   5.317  1.00  0.00     0.162 HD
HETATM   20  N   UNK N   1      25.141  12.866   2.216  0.00  0.00    -0.360 N 
ATOM     21  HN  UNK N   1      25.990  13.224   1.778  1.00  0.00     0.162 HD
HETATM   22  N   UNK N   1      21.871  14.312   2.789  0.00  0.00    -0.358 N 
ATOM     23  HN  UNK N   1      21.767  14.853   1.930  1.00  0.00     0.162 HD
HETATM   24  O   UNK N   1      24.183  14.823   1.598  0.00  0.00    -0.348 OA
HETATM   25  S   UNK N   1      28.153  13.074   1.723  0.00  0.00    -0.095 SA
HETATM   26  S   UNK N   1      27.884  11.030   2.275  0.00  0.00    -0.095 SA
HETATM   27  H   UNK N   1      24.179  15.610   1.088  0.00  0.00     0.219 HD
ENDROOT
BRANCH   8  28
HETATM   28  C   UNK N   1      22.135  11.999   1.969  0.00  0.00     0.144 C 
HETATM   29  C   UNK N   1      21.049  12.437   0.998  0.00  0.00     0.042 C 
BRANCH  28  30
HETATM   30  O   UNK N   1      21.621  11.038   2.834  0.00  0.00    -0.393 OA
HETATM   31  H   UNK N   1      20.801  10.887   3.330  0.00  0.00     0.210 HD
ENDBRANCH  28  30
ENDBRANCH   8  28
BRANCH   7  32
HETATM   32  C   UNK N   1      24.776  10.390   1.968  0.00  0.00     0.136 C 
HETATM   33  N   UNK N   1      24.362   9.251   2.429  0.00  0.00    -0.364 N 
ATOM     34  HN  UNK N   1      24.162   8.512   1.754  1.00  0.00     0.162 HD
BRANCH  33  35
HETATM   35  C   UNK N   1      24.165   8.951   3.831  0.00  0.00     0.135 C 
BRANCH  35  36
HETATM   36  C   UNK N   1      25.356   8.191   4.401  0.00  0.00     0.191 C 
BRANCH  36  37
HETATM   37  O   UNK N   1      25.972   7.417   3.418  0.00  0.00    -0.399 OA
HETATM   38  H   UNK N   1      25.561   6.633   3.020  0.00  0.00     0.209 HD
ENDBRANCH  36  37
ENDBRANCH  35  36
BRANCH  35  39
HETATM   39  C   UNK N   1      22.892   8.147   4.037  0.00  0.00     0.138 C 
HETATM   40  C   UNK N   1      22.217   8.592   5.321  0.00  0.00     0.041 C 
BRANCH  39  41
HETATM   41  O   UNK N   1      22.018   8.330   2.969  0.00  0.00    -0.394 OA
HETATM   42  H   UNK N   1      21.220   7.940   2.581  0.00  0.00     0.210 HD
ENDBRANCH  39  41
ENDBRANCH  35  39
ENDBRANCH  33  35
BRANCH  32  43
HETATM   43  O   UNK N   1      24.840  10.554   0.633  0.00  0.00    -0.348 OA
HETATM   44  H   UNK N   1      25.186  10.607  -0.237  0.00  0.00     0.219 HD
ENDBRANCH  32  43
ENDBRANCH   7  32
BRANCH   9  45
HETATM   45  O   UNK N   1      20.504  15.846   3.744  0.00  0.00    -0.348 OA
ATOM     46  HO  UNK N   1      19.718  15.922   4.274  1.00  0.00     0.219 HD
ENDBRANCH   9  45
BRANCH   3  47
HETATM   47  C   UNK N   1      20.159  12.747   4.931  0.00  0.00     0.033 C 
BRANCH  47  48
HETATM   48  C   UNK N   1      18.964  13.102   4.049  0.00  0.00     0.004 C 
BRANCH  48  49
HETATM   49  C   UNK N   1      18.136  11.881   3.640  0.00  0.00     0.019 C 
BRANCH  49  50
HETATM   50  C   UNK N   1      18.640  10.583   4.261  0.00  0.00     0.111 C 
BRANCH  50  51
HETATM   51  N   UNK N   1      19.168   9.700   3.238  0.00  0.00    -0.430 N 
HETATM   52  H   UNK N   1      20.090   9.821   2.819  0.00  0.00     0.149 HD
HETATM   53  H   UNK N   1      18.590   8.922   2.923  0.00  0.00     0.149 HD
ENDBRANCH  50  51
ENDBRANCH  49  50
ENDBRANCH  48  49
ENDBRANCH  47  48
ENDBRANCH   3  47
BRANCH  11  54
HETATM   54  O   UNK N   1      23.272  15.547   5.856  0.00  0.00    -0.348 OA
HETATM   55  H   UNK N   1      22.948  16.421   5.963  0.00  0.00     0.219 HD
ENDBRANCH  11  54
BRANCH   5  56
HETATM   56  C   UNK N   1      24.748  13.744   8.125  0.00  0.00     0.074 C 
BRANCH  56  57
HETATM   57  C   UNK N   1      23.821  12.947   8.995  0.00  0.00    -0.028 A 
HETATM   58  C   UNK N   1      24.093  11.725   9.609  0.00  0.00     0.096 A 
HETATM   59  N   UNK N   1      23.010  11.325  10.323  0.00  0.00    -0.365 N 
HETATM   60  C   UNK N   1      22.081  12.287  10.162  0.00  0.00     0.042 A 
HETATM   61  H   UNK N   1      22.922  10.499  10.851  0.00  0.00     0.165 HD
HETATM   62  C   UNK N   1      20.803  12.317  10.712  0.00  0.00     0.030 A 
HETATM   63  C   UNK N   1      22.547  13.290   9.361  0.00  0.00    -0.002 A 
HETATM   64  C   UNK N   1      19.990  13.429  10.417  0.00  0.00     0.002 A 
HETATM   65  C   UNK N   1      20.473  14.468   9.589  0.00  0.00     0.001 A 
HETATM   66  C   UNK N   1      21.770  14.405   9.050  0.00  0.00     0.014 A 
ENDBRANCH  56  57
ENDBRANCH   5  56
BRANCH   6  67
HETATM   67  N   UNK N   1      30.022  15.150   3.381  0.00  0.00    -0.360 N 
HETATM   68  C   UNK N   1      30.891  15.995   3.832  0.00  0.00     0.135 C 
ATOM     69  HN  UNK N   1      29.184  15.509   2.923  1.00  0.00     0.162 HD
BRANCH  68  70
HETATM   70  C   UNK N   1      32.195  15.577   4.485  0.00  0.00     0.162 C 
BRANCH  70  71
HETATM   71  C   UNK N   1      33.420  16.030   3.692  0.00  0.00     0.072 C 
BRANCH  71  72
HETATM   72  C   UNK N   1      34.331  14.895   3.349  0.00  0.00    -0.056 A 
HETATM   73  C   UNK N   1      35.039  14.256   4.372  0.00  0.00     0.007 A 
HETATM   74  C   UNK N   1      35.892  13.188   4.077  0.00  0.00     0.001 A 
HETATM   75  C   UNK N   1      36.035  12.753   2.756  0.00  0.00     0.000 A 
HETATM   76  C   UNK N   1      35.323  13.384   1.730  0.00  0.00     0.001 A 
HETATM   77  C   UNK N   1      34.470  14.453   2.025  0.00  0.00     0.007 A 
ENDBRANCH  71  72
ENDBRANCH  70  71
BRANCH  70  78
HETATM   78  N   UNK N   1      32.298  15.969   5.880  0.00  0.00    -0.361 N 
HETATM   79  C   UNK N   1      32.153  15.129   6.851  0.00  0.00     0.141 C 
ATOM     80  HN  UNK N   1      32.492  16.946   6.102  1.00  0.00     0.162 HD
BRANCH  79  81
HETATM   81  C   UNK N   1      32.482  15.539   8.258  0.00  0.00     0.356 C 
BRANCH  81  82
HETATM   82  N   UNK N   1      33.876  15.873   8.590  0.00  0.00     0.107 N 
BRANCH  82  83
HETATM   83  C   UNK N   1      34.562  15.012   9.558  0.00  0.00     0.303 C 
BRANCH  83  84
HETATM   84  C   UNK N   1      35.849  14.448   8.925  0.00  0.00     0.303 C 
BRANCH  84  85
HETATM   85  N   UNK N   1      35.896  12.981   8.853  0.00  0.00     0.100 N 
BRANCH  85  86
HETATM   86  C   UNK N   1      37.274  12.594   8.549  0.00  0.00     0.274 C 
BRANCH  86  87
HETATM   87  C   UNK N   1      38.078  13.764   7.979  0.00  0.00     0.056 C 
BRANCH  87  88
HETATM   88  C   UNK N   1      38.612  13.536   6.550  0.00  0.00     0.182 C 
BRANCH  88  89
HETATM   89  C   UNK N   1      39.575  14.601   6.110  0.00  0.00     0.154 C 
HETATM   90  O   UNK N   1      39.269  15.397   5.236  0.00  0.00    -0.649 OA
BRANCH  89  91
HETATM   91  O   UNK N   1      40.781  14.694   6.704  0.00  0.00    -0.776 OA
HETATM   92  H   UNK N   1      41.124  15.456   7.129  0.00  0.00     0.167 HD
ENDBRANCH  89  91
ENDBRANCH  88  89
BRANCH  88  93
HETATM   93  C   UNK N   1      39.184  12.164   6.306  0.00  0.00     0.154 C 
HETATM   94  O   UNK N   1      40.259  11.835   6.784  0.00  0.00    -0.649 OA
BRANCH  93  95
HETATM   95  O   UNK N   1      38.495  11.281   5.557  0.00  0.00    -0.776 OA
HETATM   96  H   UNK N   1      37.559  11.300   5.516  0.00  0.00     0.167 HD
ENDBRANCH  93  95
ENDBRANCH  88  93
ENDBRANCH  87  88
ENDBRANCH  86  87
ENDBRANCH  85  86
BRANCH  85  97
HETATM   97  C   UNK N   1      35.100  12.511   7.724  0.00  0.00     0.385 C 
BRANCH  97  98
HETATM   98  C   UNK N   1      34.041  11.567   8.193  0.00  0.00     0.202 C 
HETATM   99  O   UNK N   1      32.936  11.983   8.493  0.00  0.00    -0.647 OA
HETATM  100  O   UNK N   1      34.314  10.255   8.302  0.00  0.00    -0.647 OA
ENDBRANCH  97  98
ENDBRANCH  85  97
ENDBRANCH  84  85
ENDBRANCH  83  84
ENDBRANCH  82  83
BRANCH  82 101
HETATM  101  C   UNK N   1      33.914  17.278   9.021  0.00  0.00     0.385 C 
BRANCH 101 102
HETATM  102  C   UNK N   1      34.589  18.221   8.048  0.00  0.00     0.202 C 
HETATM  103  O   UNK N   1      35.264  19.140   8.479  0.00  0.00    -0.647 OA
HETATM  104  O   UNK N   1      34.465  18.058   6.715  0.00  0.00    -0.647 OA
ENDBRANCH 101 102
ENDBRANCH  82 101
ENDBRANCH  81  82
ENDBRANCH  79  81
BRANCH  79 105
HETATM  105  O   UNK N   1      31.866  13.834   6.604  0.00  0.00    -0.348 OA
ATOM    106  HO  UNK N   1      31.578  13.588   5.733  1.00  0.00     0.219 HD
ENDBRANCH  79 105
ENDBRANCH  70  78
ENDBRANCH  68  70
BRANCH  68 107
HETATM  107  O   UNK N   1      30.628  17.310   3.738  0.00  0.00    -0.348 OA
HETATM  108  H   UNK N   1      30.776  18.231   3.837  0.00  0.00     0.219 HD
ENDBRANCH  68 107
ENDBRANCH   6  67
BRANCH  12 109
HETATM  109  O   UNK N   1      29.888  11.822   5.001  0.00  0.00    -0.348 OA
HETATM  110  H   UNK N   1      30.361  11.014   5.050  0.00  0.00     0.219 HD
ENDBRANCH  12 109
BRANCH  10 111
HETATM  111  O   UNK N   1      26.081  15.927   6.558  0.00  0.00    -0.348 OA
HETATM  112  H   UNK N   1      25.760  16.008   7.435  0.00  0.00     0.219 HD
ENDBRANCH  10 111
BRANCH   4 113
HETATM  113  C   UNK N   1      28.713  16.031   5.696  0.00  0.00     0.072 C 
BRANCH 113 114
HETATM  114  C   UNK N   1      28.138  17.400   5.466  0.00  0.00    -0.056 A 
HETATM  115  C   UNK N   1      27.572  17.720   4.229  0.00  0.00     0.007 A 
HETATM  116  C   UNK N   1      27.068  19.005   3.999  0.00  0.00     0.001 A 
HETATM  117  C   UNK N   1      27.138  19.975   5.004  0.00  0.00     0.000 A 
HETATM  118  C   UNK N   1      27.714  19.663   6.237  0.00  0.00     0.001 A 
HETATM  119  C   UNK N   1      28.216  18.380   6.465  0.00  0.00     0.007 A 
ENDBRANCH 113 114
ENDBRANCH   4 113
TORSDOF 46
ENDMDL
MODEL 9
REMARK VINA RESULT:      -6.6      3.325     12.080
REMARK WARNING: 32 MAX_TORS EXCEEDED!!!
REMARK  46 active torsions:
REMARK  status: ('A' for Active; 'I' for Inactive)
REMARK    1  A    between atoms: C_12  and  C_11 
REMARK    2  A    between atoms: C_19  and  C_11 
REMARK    3  A    between atoms: C_21  and  C_12 
REMARK    4  A    between atoms: C_43  and  C_19 
REMARK    5  A    between atoms: C_22  and  C_20 
REMARK    6  A    between atoms: C_41  and  C_20 
REMARK    7  A    between atoms: N_63  and  C_21 
REMARK    8  A    between atoms: N_81  and  C_22 
REMARK    9  A    between atoms: C_24  and  C_23 
REMARK   10  A    between atoms: N_81  and  C_23 
REMARK   11  A    between atoms: N_82  and  C_24 
REMARK   12  A    between atoms: C_37  and  C_25 
REMARK   13  A    between atoms: C_44  and  C_25 
REMARK   14  A    between atoms: C_38  and  C_26 
REMARK   15  A    between atoms: C_45  and  C_26 
REMARK   16  A    between atoms: C_39  and  C_27 
REMARK   17  A    between atoms: C_46  and  C_27 
REMARK   18  A    between atoms: C_50  and  C_29 
REMARK   19  A    between atoms: N_82  and  C_29 
REMARK   20  A    between atoms: C_51  and  C_30 
REMARK   21  A    between atoms: N_81  and  C_30 
REMARK   22  A    between atoms: C_52  and  C_31 
REMARK   23  A    between atoms: N_82  and  C_31 
REMARK   24  A    between atoms: C_47  and  C_32 
REMARK   25  A    between atoms: O_83  and  C_32 
REMARK   26  A    between atoms: C_47  and  C_35 
REMARK   27  A    between atoms: O_84  and  C_35 
REMARK   28  A    between atoms: C_53  and  C_36 
REMARK   29  A    between atoms: O_85  and  C_36 
REMARK   30  A    between atoms: C_61  and  C_41 
REMARK   31  A    between atoms: C_62  and  C_41 
REMARK   32  A    between atoms: C_55  and  C_44 
REMARK   33  A    between atoms: N_65  and  C_44 
REMARK   34  A    between atoms: N_73  and  C_47 
REMARK   35  A    between atoms: N_75  and  C_48 
REMARK   36  A    between atoms: C_59  and  C_49 
REMARK   37  A    between atoms: O_86  and  C_50 
REMARK   38  A    between atoms: O_92  and  C_54 
REMARK   39  A    between atoms: O_94  and  C_55 
REMARK   40  A    between atoms: O_95  and  C_56 
REMARK   41  A    between atoms: O_96  and  C_57 
REMARK   42  A    between atoms: O_97  and  C_58 
REMARK   43  A    between atoms: O_98  and  C_59 
REMARK   44  A    between atoms: O_101  and  C_61 
REMARK   45  A    between atoms: O_103  and  C_62 
REMARK   46  A    between atoms: In_106  and  In_106 
ROOT
HETATM    1  C   UNK N   1      24.392  11.589   3.074  0.00  0.00     0.119 C 
HETATM    2  C   UNK N   1      28.133  11.807   1.812  0.00  0.00     0.119 C 
HETATM    3  C   UNK N   1      33.461  12.320   4.987  0.00  0.00     0.158 C 
HETATM    4  C   UNK N   1      26.933  14.191   4.906  0.00  0.00     0.162 C 
HETATM    5  C   UNK N   1      30.604  14.573   3.991  0.00  0.00     0.162 C 
HETATM    6  C   UNK N   1      24.390  13.013   3.597  0.00  0.00     0.168 C 
HETATM    7  C   UNK N   1      29.240  10.860   2.282  0.00  0.00     0.168 C 
HETATM    8  C   UNK N   1      31.368  10.374   4.232  0.00  0.00     0.186 C 
HETATM    9  C   UNK N   1      32.949  11.213   5.873  0.00  0.00     0.135 C 
HETATM   10  C   UNK N   1      28.403  14.530   5.019  0.00  0.00     0.135 C 
HETATM   11  C   UNK N   1      31.513  13.750   4.858  0.00  0.00     0.135 C 
HETATM   12  C   UNK N   1      25.457  13.875   2.938  0.00  0.00     0.136 C 
HETATM   13  C   UNK N   1      29.888  10.204   4.520  0.00  0.00     0.138 C 
HETATM   14  N   UNK N   1      32.439  13.065   4.284  0.00  0.00    -0.361 N 
ATOM     15  HN  UNK N   1      32.453  13.047   3.265  1.00  0.00     0.162 HD
HETATM   16  N   UNK N   1      26.510  14.354   3.525  0.00  0.00    -0.360 N 
ATOM     17  HN  UNK N   1      27.123  14.921   2.940  1.00  0.00     0.162 HD
HETATM   18  N   UNK N   1      29.202  14.207   4.056  0.00  0.00    -0.360 N 
ATOM     19  HN  UNK N   1      28.820  13.655   3.287  1.00  0.00     0.162 HD
HETATM   20  N   UNK N   1      28.979  10.414   3.630  0.00  0.00    -0.360 N 
ATOM     21  HN  UNK N   1      28.008  10.253   3.896  1.00  0.00     0.162 HD
HETATM   22  N   UNK N   1      32.086  10.338   5.489  0.00  0.00    -0.358 N 
ATOM     23  HN  UNK N   1      31.893   9.558   6.118  1.00  0.00     0.162 HD
HETATM   24  O   UNK N   1      29.497   9.838   5.758  0.00  0.00    -0.348 OA
HETATM   25  S   UNK N   1      25.942  10.718   3.429  0.00  0.00    -0.095 SA
HETATM   26  S   UNK N   1      26.592  10.915   1.406  0.00  0.00    -0.095 SA
HETATM   27  H   UNK N   1      29.271   9.449   6.581  0.00  0.00     0.219 HD
ENDROOT
BRANCH   8  28
HETATM   28  C   UNK N   1      31.894   9.315   3.250  0.00  0.00     0.144 C 
HETATM   29  C   UNK N   1      32.545   8.126   3.941  0.00  0.00     0.042 C 
BRANCH  28  30
HETATM   30  O   UNK N   1      32.795   9.877   2.351  0.00  0.00    -0.393 OA
HETATM   31  H   UNK N   1      32.899   9.943   1.389  0.00  0.00     0.210 HD
ENDBRANCH  28  30
ENDBRANCH   8  28
BRANCH   7  32
HETATM   32  C   UNK N   1      29.560   9.762   1.271  0.00  0.00     0.136 C 
HETATM   33  N   UNK N   1      30.243   9.947   0.184  0.00  0.00    -0.364 N 
ATOM     34  HN  UNK N   1      30.343   9.155  -0.452  1.00  0.00     0.162 HD
BRANCH  33  35
HETATM   35  C   UNK N   1      30.872  11.194  -0.194  0.00  0.00     0.135 C 
BRANCH  35  36
HETATM   36  C   UNK N   1      29.981  11.995  -1.134  0.00  0.00     0.191 C 
BRANCH  36  37
HETATM   37  O   UNK N   1      30.135  11.568  -2.453  0.00  0.00    -0.399 OA
HETATM   38  H   UNK N   1      30.171  10.634  -2.711  0.00  0.00     0.209 HD
ENDBRANCH  36  37
ENDBRANCH  35  36
BRANCH  35  39
HETATM   39  C   UNK N   1      32.220  10.943  -0.848  0.00  0.00     0.138 C 
HETATM   40  C   UNK N   1      33.204  12.008  -0.403  0.00  0.00     0.041 C 
BRANCH  39  41
HETATM   41  O   UNK N   1      32.709   9.687  -0.498  0.00  0.00    -0.394 OA
HETATM   42  H   UNK N   1      33.123   9.227   0.247  0.00  0.00     0.210 HD
ENDBRANCH  39  41
ENDBRANCH  35  39
ENDBRANCH  33  35
BRANCH  32  43
HETATM   43  O   UNK N   1      29.096   8.526   1.532  0.00  0.00    -0.348 OA
HETATM   44  H   UNK N   1      28.803   7.645   1.403  0.00  0.00     0.219 HD
ENDBRANCH  32  43
ENDBRANCH   7  32
BRANCH   9  45
HETATM   45  O   UNK N   1      33.462  11.113   7.112  0.00  0.00    -0.348 OA
ATOM     46  HO  UNK N   1      34.008  11.826   7.425  1.00  0.00     0.219 HD
ENDBRANCH   9  45
BRANCH   3  47
HETATM   47  C   UNK N   1      34.479  11.763   4.002  0.00  0.00     0.033 C 
BRANCH  47  48
HETATM   48  C   UNK N   1      35.908  12.189   4.331  0.00  0.00     0.004 C 
BRANCH  48  49
HETATM   49  C   UNK N   1      36.401  13.353   3.468  0.00  0.00     0.019 C 
BRANCH  49  50
HETATM   50  C   UNK N   1      35.640  13.486   2.154  0.00  0.00     0.111 C 
BRANCH  50  51
HETATM   51  N   UNK N   1      36.504  13.175   1.031  0.00  0.00    -0.430 N 
HETATM   52  H   UNK N   1      36.617  12.232   0.658  0.00  0.00     0.149 HD
HETATM   53  H   UNK N   1      37.024  13.936   0.594  0.00  0.00     0.149 HD
ENDBRANCH  50  51
ENDBRANCH  49  50
ENDBRANCH  48  49
ENDBRANCH  47  48
ENDBRANCH   3  47
BRANCH  11  54
HETATM   54  O   UNK N   1      31.409  13.791   6.204  0.00  0.00    -0.348 OA
HETATM   55  H   UNK N   1      31.163  14.083   7.060  0.00  0.00     0.219 HD
ENDBRANCH  11  54
BRANCH   5  56
HETATM   56  C   UNK N   1      30.814  16.101   3.992  0.00  0.00     0.074 C 
BRANCH  56  57
HETATM   57  C   UNK N   1      31.996  16.604   4.769  0.00  0.00    -0.028 A 
HETATM   58  C   UNK N   1      33.316  16.678   4.329  0.00  0.00     0.096 A 
HETATM   59  N   UNK N   1      34.094  17.199   5.312  0.00  0.00    -0.365 N 
HETATM   60  C   UNK N   1      33.269  17.453   6.345  0.00  0.00     0.042 A 
HETATM   61  H   UNK N   1      35.065  17.358   5.276  0.00  0.00     0.165 HD
HETATM   62  C   UNK N   1      33.614  17.998   7.578  0.00  0.00     0.030 A 
HETATM   63  C   UNK N   1      31.983  17.105   6.043  0.00  0.00    -0.002 A 
HETATM   64  C   UNK N   1      32.585  18.186   8.521  0.00  0.00     0.002 A 
HETATM   65  C   UNK N   1      31.253  17.828   8.208  0.00  0.00     0.001 A 
HETATM   66  C   UNK N   1      30.940  17.279   6.952  0.00  0.00     0.014 A 
ENDBRANCH  56  57
ENDBRANCH   5  56
BRANCH   6  67
HETATM   67  N   UNK N   1      24.344  13.046   5.035  0.00  0.00    -0.360 N 
HETATM   68  C   UNK N   1      23.305  12.680   5.712  0.00  0.00     0.135 C 
ATOM     69  HN  UNK N   1      25.166  13.373   5.542  1.00  0.00     0.162 HD
BRANCH  68  70
HETATM   70  C   UNK N   1      22.045  12.131   5.070  0.00  0.00     0.162 C 
BRANCH  70  71
HETATM   71  C   UNK N   1      21.519  10.883   5.779  0.00  0.00     0.072 C 
BRANCH  71  72
HETATM   72  C   UNK N   1      22.418   9.702   5.600  0.00  0.00    -0.056 A 
HETATM   73  C   UNK N   1      23.266   9.326   6.647  0.00  0.00     0.007 A 
HETATM   74  C   UNK N   1      24.111   8.221   6.505  0.00  0.00     0.001 A 
HETATM   75  C   UNK N   1      24.105   7.484   5.317  0.00  0.00     0.000 A 
HETATM   76  C   UNK N   1      23.253   7.852   4.270  0.00  0.00     0.001 A 
HETATM   77  C   UNK N   1      22.408   8.958   4.411  0.00  0.00     0.007 A 
ENDBRANCH  71  72
ENDBRANCH  70  71
BRANCH  70  78
HETATM   78  N   UNK N   1      20.996  13.122   4.905  0.00  0.00    -0.361 N 
HETATM   79  C   UNK N   1      20.264  13.530   5.888  0.00  0.00     0.141 C 
ATOM     80  HN  UNK N   1      20.831  13.512   3.977  1.00  0.00     0.162 HD
BRANCH  79  81
HETATM   81  C   UNK N   1      19.346  14.705   5.708  0.00  0.00     0.356 C 
BRANCH  81  82
HETATM   82  N   UNK N   1      19.888  16.060   5.896  0.00  0.00     0.107 N 
BRANCH  82  83
HETATM   83  C   UNK N   1      20.360  16.768   4.702  0.00  0.00     0.303 C 
BRANCH  83  84
HETATM   84  C   UNK N   1      19.771  16.103   3.442  0.00  0.00     0.303 C 
BRANCH  84  85
HETATM   85  N   UNK N   1      20.494  16.411   2.201  0.00  0.00     0.100 N 
BRANCH  85  86
HETATM   86  C   UNK N   1      19.898  17.617   1.626  0.00  0.00     0.274 C 
BRANCH  86  87
HETATM   87  C   UNK N   1      20.949  18.696   1.361  0.00  0.00     0.056 C 
BRANCH  87  88
HETATM   88  C   UNK N   1      20.534  20.114   1.807  0.00  0.00     0.182 C 
BRANCH  88  89
HETATM   89  C   UNK N   1      21.175  20.530   3.100  0.00  0.00     0.154 C 
HETATM   90  O   UNK N   1      20.688  20.202   4.171  0.00  0.00    -0.649 OA
BRANCH  89  91
HETATM   91  O   UNK N   1      22.312  21.252   3.077  0.00  0.00    -0.776 OA
HETATM   92  H   UNK N   1      22.368  22.181   2.970  0.00  0.00     0.167 HD
ENDBRANCH  89  91
ENDBRANCH  88  89
BRANCH  88  93
HETATM   93  C   UNK N   1      20.712  21.179   0.755  0.00  0.00     0.154 C 
HETATM   94  O   UNK N   1      21.190  20.912  -0.336  0.00  0.00    -0.649 OA
BRANCH  93  95
HETATM   95  O   UNK N   1      20.326  22.441   1.020  0.00  0.00    -0.776 OA
HETATM   96  H   UNK N   1      20.683  22.922   1.740  0.00  0.00     0.167 HD
ENDBRANCH  93  95
ENDBRANCH  88  93
ENDBRANCH  87  88
ENDBRANCH  86  87
ENDBRANCH  85  86
BRANCH  85  97
HETATM   97  C   UNK N   1      20.269  15.355   1.218  0.00  0.00     0.385 C 
BRANCH  97  98
HETATM   98  C   UNK N   1      21.387  14.365   1.255  0.00  0.00     0.202 C 
HETATM   99  O   UNK N   1      22.470  14.642   0.769  0.00  0.00    -0.647 OA
HETATM  100  O   UNK N   1      21.193  13.156   1.811  0.00  0.00    -0.647 OA
ENDBRANCH  97  98
ENDBRANCH  85  97
ENDBRANCH  84  85
ENDBRANCH  83  84
ENDBRANCH  82  83
BRANCH  82 101
HETATM  101  C   UNK N   1      20.948  15.986   6.912  0.00  0.00     0.385 C 
BRANCH 101 102
HETATM  102  C   UNK N   1      20.496  16.297   8.323  0.00  0.00     0.202 C 
HETATM  103  O   UNK N   1      20.413  17.458   8.681  0.00  0.00    -0.647 OA
HETATM  104  O   UNK N   1      20.174  15.312   9.188  0.00  0.00    -0.647 OA
ENDBRANCH 101 102
ENDBRANCH  82 101
ENDBRANCH  81  82
ENDBRANCH  79  81
BRANCH  79 105
HETATM  105  O   UNK N   1      20.427  13.019   7.126  0.00  0.00    -0.348 OA
ATOM    106  HO  UNK N   1      19.987  12.207   7.347  1.00  0.00     0.219 HD
ENDBRANCH  79 105
ENDBRANCH  70  78
ENDBRANCH  68  70
BRANCH  68 107
HETATM  107  O   UNK N   1      23.325  12.804   7.051  0.00  0.00    -0.348 OA
HETATM  108  H   UNK N   1      23.045  12.670   7.936  0.00  0.00     0.219 HD
ENDBRANCH  68 107
ENDBRANCH   6  67
BRANCH  12 109
HETATM  109  O   UNK N   1      25.300  14.133   1.626  0.00  0.00    -0.348 OA
HETATM  110  H   UNK N   1      24.997  14.134   0.740  0.00  0.00     0.219 HD
ENDBRANCH  12 109
BRANCH  10 111
HETATM  111  O   UNK N   1      28.862  15.214   6.090  0.00  0.00    -0.348 OA
HETATM  112  H   UNK N   1      28.637  16.068   6.404  0.00  0.00     0.219 HD
ENDBRANCH  10 111
BRANCH   4 113
HETATM  113  C   UNK N   1      26.102  15.056   5.879  0.00  0.00     0.072 C 
BRANCH 113 114
HETATM  114  C   UNK N   1      25.626  16.367   5.320  0.00  0.00    -0.056 A 
HETATM  115  C   UNK N   1      26.542  17.394   5.074  0.00  0.00     0.007 A 
HETATM  116  C   UNK N   1      26.098  18.628   4.588  0.00  0.00     0.001 A 
HETATM  117  C   UNK N   1      24.736  18.841   4.355  0.00  0.00     0.000 A 
HETATM  118  C   UNK N   1      23.816  17.821   4.610  0.00  0.00     0.001 A 
HETATM  119  C   UNK N   1      24.261  16.589   5.096  0.00  0.00     0.007 A 
ENDBRANCH 113 114
ENDBRANCH   4 113
TORSDOF 46
ENDMDL
