MODEL 1
REMARK VINA RESULT:      -7.2      0.000      0.000
REMARK  12 active torsions:
REMARK  status: ('A' for Active; 'I' for Inactive)
REMARK    1  A    between atoms: C_2  and  C_4 
REMARK    2  A    between atoms: C_5  and  C_4 
REMARK    3  A    between atoms: C_5  and  C_6 
REMARK    4  A    between atoms: C_5  and  C_12 
REMARK    5  A    between atoms: C_6  and  C_7 
REMARK    6  A    between atoms: C_6  and  O_11 
REMARK       I    between atoms: C_7  and  N_9 
REMARK    7  A    between atoms: N_9  and  O_10 
REMARK       I    between atoms: C_12  and  N_14 
REMARK    8  A    between atoms: C_15  and  N_14 
REMARK    9  A    between atoms: C_15  and  C_16 
REMARK   10  A    between atoms: C_15  and  C_22 
REMARK   11  A    between atoms: C_22  and  O_24 
REMARK   12  A    between atoms: O_24  and  C_25 
ROOT
HETATM    1  C   UNK N   1      19.342  16.289   6.727  0.00  0.00     0.225 C 
HETATM    2  O   UNK N   1      18.181  16.086   6.398  0.00  0.00    -0.273 OA
HETATM    3  N   UNK N   1      20.290  16.550   5.797  0.00  0.00    -0.343 N 
HETATM    4  H   UNK N   1      21.215  16.715   6.090  0.00  0.00     0.163 HD
ENDROOT
BRANCH   3   5
HETATM    5  C   UNK N   1      19.982  16.592   4.389  0.00  0.00     0.217 C 
BRANCH   5   6
HETATM    6  C   UNK N   1      20.531  17.865   3.794  0.00  0.00    -0.026 A 
HETATM    7  C   UNK N   1      19.682  18.624   2.974  0.00  0.00     0.010 A 
HETATM    8  C   UNK N   1      20.135  19.802   2.377  0.00  0.00     0.001 A 
HETATM    9  C   UNK N   1      21.443  20.236   2.599  0.00  0.00     0.000 A 
HETATM   10  C   UNK N   1      22.297  19.490   3.416  0.00  0.00     0.001 A 
HETATM   11  C   UNK N   1      21.845  18.306   4.010  0.00  0.00     0.010 A 
ENDBRANCH   5   6
BRANCH   5  12
HETATM   12  C   UNK N   1      20.295  15.258   3.748  0.00  0.00     0.286 C 
HETATM   13  O   UNK N   1      21.215  14.598   4.208  0.00  0.00    -0.263 OA
BRANCH  12  14
HETATM   14  O   UNK N   1      19.550  14.765   2.720  0.00  0.00    -0.314 OA
BRANCH  14  15
HETATM   15  C   UNK N   1      20.050  14.558   1.443  0.00  0.00     0.132 C 
HETATM   16  C   UNK N   1      18.922  14.200   0.503  0.00  0.00     0.032 C 
HETATM   17  C   UNK N   1      18.418  15.523  -0.038  0.00  0.00     0.002 C 
HETATM   18  C   UNK N   1      19.608  16.462  -0.022  0.00  0.00     0.002 C 
HETATM   19  C   UNK N   1      20.670  15.812   0.843  0.00  0.00     0.032 C 
ENDBRANCH  14  15
ENDBRANCH  12  14
ENDBRANCH   5  12
ENDBRANCH   3   5
BRANCH   1  20
HETATM   20  C   UNK N   1      19.728  16.265   8.171  0.00  0.00     0.116 C 
BRANCH  20  21
HETATM   21  C   UNK N   1      19.898  14.908   8.860  0.00  0.00     0.021 C 
BRANCH  21  22
HETATM   22  C   UNK N   1      21.337  14.555   9.242  0.00  0.00    -0.022 C 
HETATM   23  C   UNK N   1      22.108  14.254   7.974  0.00  0.00     0.009 C 
HETATM   24  C   UNK N   1      21.412  13.321  10.126  0.00  0.00     0.009 C 
ENDBRANCH  21  22
ENDBRANCH  20  21
BRANCH  20  25
HETATM   25  C   UNK N   1      19.719  17.577   8.969  0.00  0.00     0.225 C 
BRANCH  25  26
HETATM   26  C   UNK N   1      18.386  17.929   9.587  0.00  0.00     0.270 C 
HETATM   27  O   UNK N   1      17.405  17.229   9.375  0.00  0.00    -0.268 OA
HETATM   28  N   UNK N   1      18.256  19.017  10.382  0.00  0.00    -0.235 N 
HETATM   29  H   UNK N   1      17.382  19.216  10.789  0.00  0.00     0.197 HD
BRANCH  28  30
HETATM   30  O   UNK N   1      19.297  19.829  10.627  0.00  0.00    -0.287 OA
HETATM   31  H   UNK N   1      19.727  20.169  11.427  0.00  0.00     0.244 HD
ENDBRANCH  28  30
ENDBRANCH  25  26
BRANCH  25  32
HETATM   32  O   UNK N   1      20.148  18.619   8.142  0.00  0.00    -0.385 OA
HETATM   33  H   UNK N   1      19.961  19.540   8.384  0.00  0.00     0.210 HD
ENDBRANCH  25  32
ENDBRANCH  20  25
ENDBRANCH   1  20
TORSDOF 12
ENDMDL
MODEL 2
REMARK VINA RESULT:      -6.9     11.620     13.525
REMARK  12 active torsions:
REMARK  status: ('A' for Active; 'I' for Inactive)
REMARK    1  A    between atoms: C_2  and  C_4 
REMARK    2  A    between atoms: C_5  and  C_4 
REMARK    3  A    between atoms: C_5  and  C_6 
REMARK    4  A    between atoms: C_5  and  C_12 
REMARK    5  A    between atoms: C_6  and  C_7 
REMARK    6  A    between atoms: C_6  and  O_11 
REMARK       I    between atoms: C_7  and  N_9 
REMARK    7  A    between atoms: N_9  and  O_10 
REMARK       I    between atoms: C_12  and  N_14 
REMARK    8  A    between atoms: C_15  and  N_14 
REMARK    9  A    between atoms: C_15  and  C_16 
REMARK   10  A    between atoms: C_15  and  C_22 
REMARK   11  A    between atoms: C_22  and  O_24 
REMARK   12  A    between atoms: O_24  and  C_25 
ROOT
HETATM    1  C   UNK N   1      34.212  16.729   7.904  0.00  0.00     0.225 C 
HETATM    2  O   UNK N   1      34.590  17.766   7.376  0.00  0.00    -0.273 OA
HETATM    3  N   UNK N   1      32.905  16.381   7.889  0.00  0.00    -0.343 N 
HETATM    4  H   UNK N   1      32.629  15.538   8.317  0.00  0.00     0.163 HD
ENDROOT
BRANCH   3   5
HETATM    5  C   UNK N   1      31.905  17.211   7.265  0.00  0.00     0.217 C 
BRANCH   5   6
HETATM    6  C   UNK N   1      31.668  16.734   5.854  0.00  0.00    -0.026 A 
HETATM    7  C   UNK N   1      31.218  15.416   5.675  0.00  0.00     0.010 A 
HETATM    8  C   UNK N   1      30.998  14.907   4.394  0.00  0.00     0.001 A 
HETATM    9  C   UNK N   1      31.223  15.712   3.277  0.00  0.00     0.000 A 
HETATM   10  C   UNK N   1      31.668  17.027   3.442  0.00  0.00     0.001 A 
HETATM   11  C   UNK N   1      31.893  17.536   4.726  0.00  0.00     0.010 A 
ENDBRANCH   5   6
BRANCH   5  12
HETATM   12  C   UNK N   1      30.736  17.413   8.205  0.00  0.00     0.286 C 
HETATM   13  O   UNK N   1      30.639  16.674   9.173  0.00  0.00    -0.263 OA
BRANCH  12  14
HETATM   14  O   UNK N   1      29.837  18.419   8.023  0.00  0.00    -0.314 OA
BRANCH  14  15
HETATM   15  C   UNK N   1      28.485  18.206   7.798  0.00  0.00     0.132 C 
HETATM   16  C   UNK N   1      27.903  19.371   7.032  0.00  0.00     0.032 C 
HETATM   17  C   UNK N   1      28.080  19.017   5.569  0.00  0.00     0.002 C 
HETATM   18  C   UNK N   1      28.049  17.502   5.499  0.00  0.00     0.002 C 
HETATM   19  C   UNK N   1      28.218  16.993   6.918  0.00  0.00     0.032 C 
ENDBRANCH  14  15
ENDBRANCH  12  14
ENDBRANCH   5  12
ENDBRANCH   3   5
BRANCH   1  20
HETATM   20  C   UNK N   1      35.198  15.820   8.564  0.00  0.00     0.116 C 
BRANCH  20  21
HETATM   21  C   UNK N   1      35.700  14.597   7.789  0.00  0.00     0.021 C 
BRANCH  21  22
HETATM   22  C   UNK N   1      35.752  14.775   6.271  0.00  0.00    -0.022 C 
HETATM   23  C   UNK N   1      34.694  13.887   5.649  0.00  0.00     0.009 C 
HETATM   24  C   UNK N   1      37.094  14.363   5.689  0.00  0.00     0.009 C 
ENDBRANCH  21  22
ENDBRANCH  20  21
BRANCH  20  25
HETATM   25  C   UNK N   1      35.500  16.004  10.059  0.00  0.00     0.225 C 
BRANCH  25  26
HETATM   26  C   UNK N   1      35.222  14.790  10.912  0.00  0.00     0.270 C 
HETATM   27  O   UNK N   1      36.146  14.100  11.322  0.00  0.00    -0.268 OA
HETATM   28  N   UNK N   1      33.954  14.447  11.240  0.00  0.00    -0.235 N 
HETATM   29  H   UNK N   1      33.798  13.663  11.814  0.00  0.00     0.197 HD
BRANCH  28  30
HETATM   30  O   UNK N   1      32.905  15.159  10.798  0.00  0.00    -0.287 OA
HETATM   31  H   UNK N   1      31.952  15.160  10.980  0.00  0.00     0.244 HD
ENDBRANCH  28  30
ENDBRANCH  25  26
BRANCH  25  32
HETATM   32  O   UNK N   1      34.775  17.099  10.540  0.00  0.00    -0.385 OA
HETATM   33  H   UNK N   1      33.836  17.194  10.320  0.00  0.00     0.210 HD
ENDBRANCH  25  32
ENDBRANCH  20  25
ENDBRANCH   1  20
TORSDOF 12
ENDMDL
MODEL 3
REMARK VINA RESULT:      -6.7      9.311     11.166
REMARK  12 active torsions:
REMARK  status: ('A' for Active; 'I' for Inactive)
REMARK    1  A    between atoms: C_2  and  C_4 
REMARK    2  A    between atoms: C_5  and  C_4 
REMARK    3  A    between atoms: C_5  and  C_6 
REMARK    4  A    between atoms: C_5  and  C_12 
REMARK    5  A    between atoms: C_6  and  C_7 
REMARK    6  A    between atoms: C_6  and  O_11 
REMARK       I    between atoms: C_7  and  N_9 
REMARK    7  A    between atoms: N_9  and  O_10 
REMARK       I    between atoms: C_12  and  N_14 
REMARK    8  A    between atoms: C_15  and  N_14 
REMARK    9  A    between atoms: C_15  and  C_16 
REMARK   10  A    between atoms: C_15  and  C_22 
REMARK   11  A    between atoms: C_22  and  O_24 
REMARK   12  A    between atoms: O_24  and  C_25 
ROOT
HETATM    1  C   UNK N   1      31.358  17.176   6.699  0.00  0.00     0.225 C 
HETATM    2  O   UNK N   1      31.204  17.045   7.906  0.00  0.00    -0.273 OA
HETATM    3  N   UNK N   1      30.295  17.328   5.877  0.00  0.00    -0.343 N 
HETATM    4  H   UNK N   1      30.448  17.437   4.910  0.00  0.00     0.163 HD
ENDROOT
BRANCH   3   5
HETATM    5  C   UNK N   1      28.943  17.334   6.377  0.00  0.00     0.217 C 
BRANCH   5   6
HETATM    6  C   UNK N   1      28.291  18.653   6.043  0.00  0.00    -0.026 A 
HETATM    7  C   UNK N   1      27.705  19.378   7.093  0.00  0.00     0.010 A 
HETATM    8  C   UNK N   1      27.069  20.597   6.848  0.00  0.00     0.001 A 
HETATM    9  C   UNK N   1      27.016  21.105   5.550  0.00  0.00     0.000 A 
HETATM   10  C   UNK N   1      27.599  20.394   4.497  0.00  0.00     0.001 A 
HETATM   11  C   UNK N   1      28.231  19.170   4.741  0.00  0.00     0.010 A 
ENDBRANCH   5   6
BRANCH   5  12
HETATM   12  C   UNK N   1      28.251  16.035   6.024  0.00  0.00     0.286 C 
HETATM   13  O   UNK N   1      28.937  15.108   5.618  0.00  0.00    -0.263 OA
BRANCH  12  14
HETATM   14  O   UNK N   1      26.911  15.867   6.198  0.00  0.00    -0.314 OA
BRANCH  14  15
HETATM   15  C   UNK N   1      26.051  15.478   5.182  0.00  0.00     0.132 C 
HETATM   16  C   UNK N   1      24.629  15.837   5.549  0.00  0.00     0.032 C 
HETATM   17  C   UNK N   1      24.423  17.243   5.024  0.00  0.00     0.002 C 
HETATM   18  C   UNK N   1      25.338  17.379   3.822  0.00  0.00     0.002 C 
HETATM   19  C   UNK N   1      26.310  16.216   3.876  0.00  0.00     0.032 C 
ENDBRANCH  14  15
ENDBRANCH  12  14
ENDBRANCH   5  12
ENDBRANCH   3   5
BRANCH   1  20
HETATM   20  C   UNK N   1      32.735  17.184   6.115  0.00  0.00     0.116 C 
BRANCH  20  21
HETATM   21  C   UNK N   1      32.891  17.436   4.613  0.00  0.00     0.021 C 
BRANCH  21  22
HETATM   22  C   UNK N   1      32.411  16.295   3.714  0.00  0.00    -0.022 C 
HETATM   23  C   UNK N   1      33.608  15.730   2.979  0.00  0.00     0.009 C 
HETATM   24  C   UNK N   1      31.413  16.765   2.669  0.00  0.00     0.009 C 
ENDBRANCH  21  22
ENDBRANCH  20  21
BRANCH  20  25
HETATM   25  C   UNK N   1      33.916  16.717   6.979  0.00  0.00     0.225 C 
BRANCH  25  26
HETATM   26  C   UNK N   1      34.322  17.685   8.066  0.00  0.00     0.270 C 
HETATM   27  O   UNK N   1      34.914  18.717   7.782  0.00  0.00    -0.268 OA
HETATM   28  N   UNK N   1      34.037  17.429   9.365  0.00  0.00    -0.235 N 
HETATM   29  H   UNK N   1      34.296  18.083  10.054  0.00  0.00     0.197 HD
BRANCH  28  30
HETATM   30  O   UNK N   1      33.409  16.300   9.731  0.00  0.00    -0.287 OA
HETATM   31  H   UNK N   1      32.518  15.938   9.600  0.00  0.00     0.244 HD
ENDBRANCH  28  30
ENDBRANCH  25  26
BRANCH  25  32
HETATM   32  O   UNK N   1      35.010  16.447   6.152  0.00  0.00    -0.385 OA
HETATM   33  H   UNK N   1      34.872  16.263   5.209  0.00  0.00     0.210 HD
ENDBRANCH  25  32
ENDBRANCH  20  25
ENDBRANCH   1  20
TORSDOF 12
ENDMDL
MODEL 4
REMARK VINA RESULT:      -6.7     14.269     15.948
REMARK  12 active torsions:
REMARK  status: ('A' for Active; 'I' for Inactive)
REMARK    1  A    between atoms: C_2  and  C_4 
REMARK    2  A    between atoms: C_5  and  C_4 
REMARK    3  A    between atoms: C_5  and  C_6 
REMARK    4  A    between atoms: C_5  and  C_12 
REMARK    5  A    between atoms: C_6  and  C_7 
REMARK    6  A    between atoms: C_6  and  O_11 
REMARK       I    between atoms: C_7  and  N_9 
REMARK    7  A    between atoms: N_9  and  O_10 
REMARK       I    between atoms: C_12  and  N_14 
REMARK    8  A    between atoms: C_15  and  N_14 
REMARK    9  A    between atoms: C_15  and  C_16 
REMARK   10  A    between atoms: C_15  and  C_22 
REMARK   11  A    between atoms: C_22  and  O_24 
REMARK   12  A    between atoms: O_24  and  C_25 
ROOT
HETATM    1  C   UNK N   1      29.422  23.887  -5.712  0.00  0.00     0.225 C 
HETATM    2  O   UNK N   1      29.546  24.710  -6.608  0.00  0.00    -0.273 OA
HETATM    3  N   UNK N   1      28.204  23.395  -5.387  0.00  0.00    -0.343 N 
HETATM    4  H   UNK N   1      28.133  22.730  -4.664  0.00  0.00     0.163 HD
ENDROOT
BRANCH   3   5
HETATM    5  C   UNK N   1      27.007  23.820  -6.070  0.00  0.00     0.217 C 
BRANCH   5   6
HETATM    6  C   UNK N   1      26.538  22.718  -6.989  0.00  0.00    -0.026 A 
HETATM    7  C   UNK N   1      25.257  22.186  -6.772  0.00  0.00     0.010 A 
HETATM    8  C   UNK N   1      24.771  21.152  -7.574  0.00  0.00     0.001 A 
HETATM    9  C   UNK N   1      25.561  20.642  -8.605  0.00  0.00     0.000 A 
HETATM   10  C   UNK N   1      26.837  21.165  -8.832  0.00  0.00     0.001 A 
HETATM   11  C   UNK N   1      27.326  22.198  -8.025  0.00  0.00     0.010 A 
ENDBRANCH   5   6
BRANCH   5  12
HETATM   12  C   UNK N   1      26.044  24.451  -5.088  0.00  0.00     0.286 C 
HETATM   13  O   UNK N   1      26.203  24.226  -3.898  0.00  0.00    -0.263 OA
BRANCH  12  14
HETATM   14  O   UNK N   1      25.054  25.292  -5.496  0.00  0.00    -0.314 OA
BRANCH  14  15
HETATM   15  C   UNK N   1      25.293  26.517  -6.101  0.00  0.00     0.132 C 
HETATM   16  C   UNK N   1      24.537  27.605  -5.372  0.00  0.00     0.032 C 
HETATM   17  C   UNK N   1      25.479  28.090  -4.289  0.00  0.00     0.002 C 
HETATM   18  C   UNK N   1      26.881  27.864  -4.822  0.00  0.00     0.002 C 
HETATM   19  C   UNK N   1      26.753  26.941  -6.018  0.00  0.00     0.032 C 
ENDBRANCH  14  15
ENDBRANCH  12  14
ENDBRANCH   5  12
ENDBRANCH   3   5
BRANCH   1  20
HETATM   20  C   UNK N   1      30.623  23.401  -4.967  0.00  0.00     0.116 C 
BRANCH  20  21
HETATM   21  C   UNK N   1      31.409  22.218  -5.538  0.00  0.00     0.021 C 
BRANCH  21  22
HETATM   22  C   UNK N   1      30.732  20.855  -5.374  0.00  0.00    -0.022 C 
HETATM   23  C   UNK N   1      31.729  19.898  -4.755  0.00  0.00     0.009 C 
HETATM   24  C   UNK N   1      30.297  20.264  -6.704  0.00  0.00     0.009 C 
ENDBRANCH  21  22
ENDBRANCH  20  21
BRANCH  20  25
HETATM   25  C   UNK N   1      30.897  23.942  -3.556  0.00  0.00     0.225 C 
BRANCH  25  26
HETATM   26  C   UNK N   1      30.628  22.960  -2.441  0.00  0.00     0.270 C 
HETATM   27  O   UNK N   1      31.538  22.281  -1.985  0.00  0.00    -0.268 OA
HETATM   28  N   UNK N   1      29.383  22.816  -1.927  0.00  0.00    -0.235 N 
HETATM   29  H   UNK N   1      29.236  22.183  -1.188  0.00  0.00     0.197 HD
BRANCH  28  30
HETATM   30  O   UNK N   1      28.347  23.522  -2.407  0.00  0.00    -0.287 OA
HETATM   31  H   UNK N   1      28.252  24.358  -2.890  0.00  0.00     0.244 HD
ENDBRANCH  28  30
ENDBRANCH  25  26
BRANCH  25  32
HETATM   32  O   UNK N   1      30.143  25.103  -3.356  0.00  0.00    -0.385 OA
HETATM   33  H   UNK N   1      29.589  25.451  -4.072  0.00  0.00     0.210 HD
ENDBRANCH  25  32
ENDBRANCH  20  25
ENDBRANCH   1  20
TORSDOF 12
ENDMDL
MODEL 5
REMARK VINA RESULT:      -6.7      1.710      2.550
REMARK  12 active torsions:
REMARK  status: ('A' for Active; 'I' for Inactive)
REMARK    1  A    between atoms: C_2  and  C_4 
REMARK    2  A    between atoms: C_5  and  C_4 
REMARK    3  A    between atoms: C_5  and  C_6 
REMARK    4  A    between atoms: C_5  and  C_12 
REMARK    5  A    between atoms: C_6  and  C_7 
REMARK    6  A    between atoms: C_6  and  O_11 
REMARK       I    between atoms: C_7  and  N_9 
REMARK    7  A    between atoms: N_9  and  O_10 
REMARK       I    between atoms: C_12  and  N_14 
REMARK    8  A    between atoms: C_15  and  N_14 
REMARK    9  A    between atoms: C_15  and  C_16 
REMARK   10  A    between atoms: C_15  and  C_22 
REMARK   11  A    between atoms: C_22  and  O_24 
REMARK   12  A    between atoms: O_24  and  C_25 
ROOT
HETATM    1  C   UNK N   1      20.798  17.544   6.698  0.00  0.00     0.225 C 
HETATM    2  O   UNK N   1      21.113  18.720   6.820  0.00  0.00    -0.273 OA
HETATM    3  N   UNK N   1      20.767  16.959   5.478  0.00  0.00    -0.343 N 
HETATM    4  H   UNK N   1      20.515  16.010   5.409  0.00  0.00     0.163 HD
ENDROOT
BRANCH   3   5
HETATM    5  C   UNK N   1      21.091  17.689   4.277  0.00  0.00     0.217 C 
BRANCH   5   6
HETATM    6  C   UNK N   1      22.584  17.657   4.060  0.00  0.00    -0.026 A 
HETATM    7  C   UNK N   1      23.254  18.884   3.934  0.00  0.00     0.010 A 
HETATM    8  C   UNK N   1      24.631  18.924   3.712  0.00  0.00     0.001 A 
HETATM    9  C   UNK N   1      25.355  17.734   3.617  0.00  0.00     0.000 A 
HETATM   10  C   UNK N   1      24.700  16.506   3.744  0.00  0.00     0.001 A 
HETATM   11  C   UNK N   1      23.318  16.466   3.961  0.00  0.00     0.010 A 
ENDBRANCH   5   6
BRANCH   5  12
HETATM   12  C   UNK N   1      20.152  17.292   3.158  0.00  0.00     0.286 C 
HETATM   13  O   UNK N   1      19.430  18.154   2.679  0.00  0.00    -0.263 OA
BRANCH  12  14
HETATM   14  O   UNK N   1      20.137  16.030   2.650  0.00  0.00    -0.314 OA
BRANCH  14  15
HETATM   15  C   UNK N   1      20.358  15.742   1.311  0.00  0.00     0.132 C 
HETATM   16  C   UNK N   1      21.686  15.038   1.150  0.00  0.00     0.032 C 
HETATM   17  C   UNK N   1      21.376  13.562   1.294  0.00  0.00     0.002 C 
HETATM   18  C   UNK N   1      19.949  13.384   0.813  0.00  0.00     0.002 C 
HETATM   19  C   UNK N   1      19.334  14.769   0.742  0.00  0.00     0.032 C 
ENDBRANCH  14  15
ENDBRANCH  12  14
ENDBRANCH   5  12
ENDBRANCH   3   5
BRANCH   1  20
HETATM   20  C   UNK N   1      20.455  16.729   7.903  0.00  0.00     0.116 C 
BRANCH  20  21
HETATM   21  C   UNK N   1      20.814  15.240   7.906  0.00  0.00     0.021 C 
BRANCH  21  22
HETATM   22  C   UNK N   1      21.169  14.666   9.279  0.00  0.00    -0.022 C 
HETATM   23  C   UNK N   1      22.274  13.646   9.100  0.00  0.00     0.009 C 
HETATM   24  C   UNK N   1      19.992  13.956   9.928  0.00  0.00     0.009 C 
ENDBRANCH  21  22
ENDBRANCH  20  21
BRANCH  20  25
HETATM   25  C   UNK N   1      19.561  17.343   8.991  0.00  0.00     0.225 C 
BRANCH  25  26
HETATM   26  C   UNK N   1      18.079  17.208   8.739  0.00  0.00     0.270 C 
HETATM   27  O   UNK N   1      17.671  16.514   7.817  0.00  0.00    -0.268 OA
HETATM   28  N   UNK N   1      17.179  17.846   9.525  0.00  0.00    -0.235 N 
HETATM   29  H   UNK N   1      16.217  17.728   9.353  0.00  0.00     0.197 HD
BRANCH  28  30
HETATM   30  O   UNK N   1      17.576  18.637  10.535  0.00  0.00    -0.287 OA
HETATM   31  H   UNK N   1      17.820  18.493  11.463  0.00  0.00     0.244 HD
ENDBRANCH  28  30
ENDBRANCH  25  26
BRANCH  25  32
HETATM   32  O   UNK N   1      19.894  18.693   9.148  0.00  0.00    -0.385 OA
HETATM   33  H   UNK N   1      20.612  19.080   8.624  0.00  0.00     0.210 HD
ENDBRANCH  25  32
ENDBRANCH  20  25
ENDBRANCH   1  20
TORSDOF 12
ENDMDL
MODEL 6
REMARK VINA RESULT:      -6.6      9.848     12.020
REMARK  12 active torsions:
REMARK  status: ('A' for Active; 'I' for Inactive)
REMARK    1  A    between atoms: C_2  and  C_4 
REMARK    2  A    between atoms: C_5  and  C_4 
REMARK    3  A    between atoms: C_5  and  C_6 
REMARK    4  A    between atoms: C_5  and  C_12 
REMARK    5  A    between atoms: C_6  and  C_7 
REMARK    6  A    between atoms: C_6  and  O_11 
REMARK       I    between atoms: C_7  and  N_9 
REMARK    7  A    between atoms: N_9  and  O_10 
REMARK       I    between atoms: C_12  and  N_14 
REMARK    8  A    between atoms: C_15  and  N_14 
REMARK    9  A    between atoms: C_15  and  C_16 
REMARK   10  A    between atoms: C_15  and  C_22 
REMARK   11  A    between atoms: C_22  and  O_24 
REMARK   12  A    between atoms: O_24  and  C_25 
ROOT
HETATM    1  C   UNK N   1      29.092  17.014   6.561  0.00  0.00     0.225 C 
HETATM    2  O   UNK N   1      28.448  16.028   6.227  0.00  0.00    -0.273 OA
HETATM    3  N   UNK N   1      30.433  16.942   6.722  0.00  0.00    -0.343 N 
HETATM    4  H   UNK N   1      30.928  17.752   6.987  0.00  0.00     0.163 HD
ENDROOT
BRANCH   3   5
HETATM    5  C   UNK N   1      31.158  15.713   6.519  0.00  0.00     0.217 C 
BRANCH   5   6
HETATM    6  C   UNK N   1      31.894  15.778   5.202  0.00  0.00    -0.026 A 
HETATM    7  C   UNK N   1      32.359  17.031   4.774  0.00  0.00     0.010 A 
HETATM    8  C   UNK N   1      33.029  17.163   3.556  0.00  0.00     0.001 A 
HETATM    9  C   UNK N   1      33.245  16.040   2.756  0.00  0.00     0.000 A 
HETATM   10  C   UNK N   1      32.790  14.786   3.174  0.00  0.00     0.001 A 
HETATM   11  C   UNK N   1      32.113  14.655   4.392  0.00  0.00     0.010 A 
ENDBRANCH   5   6
BRANCH   5  12
HETATM   12  C   UNK N   1      31.896  15.328   7.782  0.00  0.00     0.286 C 
HETATM   13  O   UNK N   1      31.643  15.942   8.808  0.00  0.00    -0.263 OA
BRANCH  12  14
HETATM   14  O   UNK N   1      32.782  14.294   7.808  0.00  0.00    -0.314 OA
BRANCH  14  15
HETATM   15  C   UNK N   1      34.131  14.450   8.087  0.00  0.00     0.132 C 
HETATM   16  C   UNK N   1      34.903  13.260   7.565  0.00  0.00     0.032 C 
HETATM   17  C   UNK N   1      35.278  13.619   6.142  0.00  0.00     0.002 C 
HETATM   18  C   UNK N   1      35.393  15.131   6.109  0.00  0.00     0.002 C 
HETATM   19  C   UNK N   1      34.745  15.649   7.378  0.00  0.00     0.032 C 
ENDBRANCH  14  15
ENDBRANCH  12  14
ENDBRANCH   5  12
ENDBRANCH   3   5
BRANCH   1  20
HETATM   20  C   UNK N   1      28.402  18.321   6.784  0.00  0.00     0.116 C 
BRANCH  20  21
HETATM   21  C   UNK N   1      27.984  19.145   5.562  0.00  0.00     0.021 C 
BRANCH  21  22
HETATM   22  C   UNK N   1      26.555  18.894   5.074  0.00  0.00    -0.022 C 
HETATM   23  C   UNK N   1      26.619  18.024   3.836  0.00  0.00     0.009 C 
HETATM   24  C   UNK N   1      25.842  20.180   4.693  0.00  0.00     0.009 C 
ENDBRANCH  21  22
ENDBRANCH  20  21
BRANCH  20  25
HETATM   25  C   UNK N   1      28.339  18.900   8.205  0.00  0.00     0.225 C 
BRANCH  25  26
HETATM   26  C   UNK N   1      28.462  17.877   9.308  0.00  0.00     0.270 C 
HETATM   27  O   UNK N   1      27.491  17.211   9.642  0.00  0.00    -0.268 OA
HETATM   28  N   UNK N   1      29.642  17.677   9.943  0.00  0.00    -0.235 N 
HETATM   29  H   UNK N   1      29.702  16.992  10.646  0.00  0.00     0.197 HD
BRANCH  28  30
HETATM   30  O   UNK N   1      30.731  18.398   9.629  0.00  0.00    -0.287 OA
HETATM   31  H   UNK N   1      31.635  18.186   9.348  0.00  0.00     0.244 HD
ENDBRANCH  28  30
ENDBRANCH  25  26
BRANCH  25  32
HETATM   32  O   UNK N   1      27.149  19.618   8.354  0.00  0.00    -0.385 OA
HETATM   33  H   UNK N   1      27.167  20.519   8.715  0.00  0.00     0.210 HD
ENDBRANCH  25  32
ENDBRANCH  20  25
ENDBRANCH   1  20
TORSDOF 12
ENDMDL
MODEL 7
REMARK VINA RESULT:      -6.6      9.596     11.298
REMARK  12 active torsions:
REMARK  status: ('A' for Active; 'I' for Inactive)
REMARK    1  A    between atoms: C_2  and  C_4 
REMARK    2  A    between atoms: C_5  and  C_4 
REMARK    3  A    between atoms: C_5  and  C_6 
REMARK    4  A    between atoms: C_5  and  C_12 
REMARK    5  A    between atoms: C_6  and  C_7 
REMARK    6  A    between atoms: C_6  and  O_11 
REMARK       I    between atoms: C_7  and  N_9 
REMARK    7  A    between atoms: N_9  and  O_10 
REMARK       I    between atoms: C_12  and  N_14 
REMARK    8  A    between atoms: C_15  and  N_14 
REMARK    9  A    between atoms: C_15  and  C_16 
REMARK   10  A    between atoms: C_15  and  C_22 
REMARK   11  A    between atoms: C_22  and  O_24 
REMARK   12  A    between atoms: O_24  and  C_25 
ROOT
HETATM    1  C   UNK N   1      31.380  17.084   6.606  0.00  0.00     0.225 C 
HETATM    2  O   UNK N   1      31.166  16.641   7.726  0.00  0.00    -0.273 OA
HETATM    3  N   UNK N   1      30.356  17.439   5.795  0.00  0.00    -0.343 N 
HETATM    4  H   UNK N   1      30.557  17.798   4.900  0.00  0.00     0.163 HD
ENDROOT
BRANCH   3   5
HETATM    5  C   UNK N   1      28.981  17.306   6.205  0.00  0.00     0.217 C 
BRANCH   5   6
HETATM    6  C   UNK N   1      28.282  18.635   6.051  0.00  0.00    -0.026 A 
HETATM    7  C   UNK N   1      28.145  19.156   4.756  0.00  0.00     0.010 A 
HETATM    8  C   UNK N   1      27.526  20.390   4.547  0.00  0.00     0.001 A 
HETATM    9  C   UNK N   1      27.034  21.114   5.634  0.00  0.00     0.000 A 
HETATM   10  C   UNK N   1      27.162  20.603   6.928  0.00  0.00     0.001 A 
HETATM   11  C   UNK N   1      27.787  19.369   7.139  0.00  0.00     0.010 A 
ENDBRANCH   5   6
BRANCH   5  12
HETATM   12  C   UNK N   1      28.376  16.056   5.602  0.00  0.00     0.286 C 
HETATM   13  O   UNK N   1      27.405  15.561   6.154  0.00  0.00    -0.263 OA
BRANCH  12  14
HETATM   14  O   UNK N   1      28.854  15.515   4.447  0.00  0.00    -0.314 OA
BRANCH  14  15
HETATM   15  C   UNK N   1      28.480  15.953   3.186  0.00  0.00     0.132 C 
HETATM   16  C   UNK N   1      28.799  14.890   2.159  0.00  0.00     0.032 C 
HETATM   17  C   UNK N   1      27.564  14.015   2.092  0.00  0.00     0.002 C 
HETATM   18  C   UNK N   1      26.395  14.913   2.448  0.00  0.00     0.002 C 
HETATM   19  C   UNK N   1      26.979  16.172   3.059  0.00  0.00     0.032 C 
ENDBRANCH  14  15
ENDBRANCH  12  14
ENDBRANCH   5  12
ENDBRANCH   3   5
BRANCH   1  20
HETATM   20  C   UNK N   1      32.783  17.252   6.121  0.00  0.00     0.116 C 
BRANCH  20  21
HETATM   21  C   UNK N   1      33.009  17.682   4.668  0.00  0.00     0.021 C 
BRANCH  21  22
HETATM   22  C   UNK N   1      32.963  16.545   3.645  0.00  0.00    -0.022 C 
HETATM   23  C   UNK N   1      31.946  16.901   2.580  0.00  0.00     0.009 C 
HETATM   24  C   UNK N   1      32.532  15.228   4.267  0.00  0.00     0.009 C 
ENDBRANCH  21  22
ENDBRANCH  20  21
BRANCH  20  25
HETATM   25  C   UNK N   1      33.943  16.774   7.007  0.00  0.00     0.225 C 
BRANCH  25  26
HETATM   26  C   UNK N   1      34.331  17.732   8.108  0.00  0.00     0.270 C 
HETATM   27  O   UNK N   1      34.964  18.746   7.847  0.00  0.00    -0.268 OA
HETATM   28  N   UNK N   1      33.985  17.488   9.394  0.00  0.00    -0.235 N 
HETATM   29  H   UNK N   1      34.233  18.137  10.092  0.00  0.00     0.197 HD
BRANCH  28  30
HETATM   30  O   UNK N   1      33.309  16.379   9.735  0.00  0.00    -0.287 OA
HETATM   31  H   UNK N   1      32.536  15.912   9.382  0.00  0.00     0.244 HD
ENDBRANCH  28  30
ENDBRANCH  25  26
BRANCH  25  32
HETATM   32  O   UNK N   1      35.053  16.503   6.201  0.00  0.00    -0.385 OA
HETATM   33  H   UNK N   1      35.914  16.899   6.411  0.00  0.00     0.210 HD
ENDBRANCH  25  32
ENDBRANCH  20  25
ENDBRANCH   1  20
TORSDOF 12
ENDMDL
MODEL 8
REMARK VINA RESULT:      -6.6     14.268     16.879
REMARK  12 active torsions:
REMARK  status: ('A' for Active; 'I' for Inactive)
REMARK    1  A    between atoms: C_2  and  C_4 
REMARK    2  A    between atoms: C_5  and  C_4 
REMARK    3  A    between atoms: C_5  and  C_6 
REMARK    4  A    between atoms: C_5  and  C_12 
REMARK    5  A    between atoms: C_6  and  C_7 
REMARK    6  A    between atoms: C_6  and  O_11 
REMARK       I    between atoms: C_7  and  N_9 
REMARK    7  A    between atoms: N_9  and  O_10 
REMARK       I    between atoms: C_12  and  N_14 
REMARK    8  A    between atoms: C_15  and  N_14 
REMARK    9  A    between atoms: C_15  and  C_16 
REMARK   10  A    between atoms: C_15  and  C_22 
REMARK   11  A    between atoms: C_22  and  O_24 
REMARK   12  A    between atoms: O_24  and  C_25 
ROOT
HETATM    1  C   UNK N   1      26.714  27.745  -3.607  0.00  0.00     0.225 C 
HETATM    2  O   UNK N   1      25.739  27.613  -2.880  0.00  0.00    -0.273 OA
HETATM    3  N   UNK N   1      27.195  26.698  -4.317  0.00  0.00    -0.343 N 
HETATM    4  H   UNK N   1      27.978  26.834  -4.899  0.00  0.00     0.163 HD
ENDROOT
BRANCH   3   5
HETATM    5  C   UNK N   1      26.594  25.390  -4.243  0.00  0.00     0.217 C 
BRANCH   5   6
HETATM    6  C   UNK N   1      26.234  24.926  -5.633  0.00  0.00    -0.026 A 
HETATM    7  C   UNK N   1      26.089  23.546  -5.846  0.00  0.00     0.010 A 
HETATM    8  C   UNK N   1      25.776  23.050  -7.113  0.00  0.00     0.001 A 
HETATM    9  C   UNK N   1      25.601  23.931  -8.181  0.00  0.00     0.000 A 
HETATM   10  C   UNK N   1      25.739  25.308  -7.981  0.00  0.00     0.001 A 
HETATM   11  C   UNK N   1      26.058  25.805  -6.712  0.00  0.00     0.010 A 
ENDBRANCH   5   6
BRANCH   5  12
HETATM   12  C   UNK N   1      27.405  24.495  -3.331  0.00  0.00     0.286 C 
HETATM   13  O   UNK N   1      26.808  23.827  -2.500  0.00  0.00    -0.263 OA
BRANCH  12  14
HETATM   14  O   UNK N   1      28.756  24.384  -3.453  0.00  0.00    -0.314 OA
BRANCH  14  15
HETATM   15  C   UNK N   1      29.423  23.168  -3.491  0.00  0.00     0.132 C 
HETATM   16  C   UNK N   1      29.591  22.720  -4.925  0.00  0.00     0.032 C 
HETATM   17  C   UNK N   1      30.905  23.320  -5.380  0.00  0.00     0.002 C 
HETATM   18  C   UNK N   1      31.764  23.439  -4.136  0.00  0.00     0.002 C 
HETATM   19  C   UNK N   1      30.842  23.257  -2.946  0.00  0.00     0.032 C 
ENDBRANCH  14  15
ENDBRANCH  12  14
ENDBRANCH   5  12
ENDBRANCH   3   5
BRANCH   1  20
HETATM   20  C   UNK N   1      27.382  29.076  -3.733  0.00  0.00     0.116 C 
BRANCH  20  21
HETATM   21  C   UNK N   1      27.338  29.792  -5.086  0.00  0.00     0.021 C 
BRANCH  21  22
HETATM   22  C   UNK N   1      28.553  29.548  -5.984  0.00  0.00    -0.022 C 
HETATM   23  C   UNK N   1      29.093  30.890  -6.432  0.00  0.00     0.009 C 
HETATM   24  C   UNK N   1      28.196  28.759  -7.232  0.00  0.00     0.009 C 
ENDBRANCH  21  22
ENDBRANCH  20  21
BRANCH  20  25
HETATM   25  C   UNK N   1      28.276  29.575  -2.588  0.00  0.00     0.225 C 
BRANCH  25  26
HETATM   26  C   UNK N   1      29.660  28.972  -2.560  0.00  0.00     0.270 C 
HETATM   27  O   UNK N   1      29.913  27.980  -3.230  0.00  0.00    -0.268 OA
HETATM   28  N   UNK N   1      30.640  29.516  -1.800  0.00  0.00    -0.235 N 
HETATM   29  H   UNK N   1      31.539  29.117  -1.812  0.00  0.00     0.197 HD
BRANCH  28  30
HETATM   30  O   UNK N   1      30.407  30.591  -1.030  0.00  0.00    -0.287 OA
HETATM   31  H   UNK N   1      30.964  31.230  -0.557  0.00  0.00     0.244 HD
ENDBRANCH  28  30
ENDBRANCH  25  26
BRANCH  25  32
HETATM   32  O   UNK N   1      27.632  29.340  -1.369  0.00  0.00    -0.385 OA
HETATM   33  H   UNK N   1      27.497  28.431  -1.058  0.00  0.00     0.210 HD
ENDBRANCH  25  32
ENDBRANCH  20  25
ENDBRANCH   1  20
TORSDOF 12
ENDMDL
MODEL 9
REMARK VINA RESULT:      -6.5      2.747      6.664
REMARK  12 active torsions:
REMARK  status: ('A' for Active; 'I' for Inactive)
REMARK    1  A    between atoms: C_2  and  C_4 
REMARK    2  A    between atoms: C_5  and  C_4 
REMARK    3  A    between atoms: C_5  and  C_6 
REMARK    4  A    between atoms: C_5  and  C_12 
REMARK    5  A    between atoms: C_6  and  C_7 
REMARK    6  A    between atoms: C_6  and  O_11 
REMARK       I    between atoms: C_7  and  N_9 
REMARK    7  A    between atoms: N_9  and  O_10 
REMARK       I    between atoms: C_12  and  N_14 
REMARK    8  A    between atoms: C_15  and  N_14 
REMARK    9  A    between atoms: C_15  and  C_16 
REMARK   10  A    between atoms: C_15  and  C_22 
REMARK   11  A    between atoms: C_22  and  O_24 
REMARK   12  A    between atoms: O_24  and  C_25 
ROOT
HETATM    1  C   UNK N   1      22.237  15.773   3.297  0.00  0.00     0.225 C 
HETATM    2  O   UNK N   1      22.744  15.040   4.135  0.00  0.00    -0.273 OA
HETATM    3  N   UNK N   1      22.214  17.115   3.474  0.00  0.00    -0.343 N 
HETATM    4  H   UNK N   1      21.804  17.682   2.781  0.00  0.00     0.163 HD
ENDROOT
BRANCH   3   5
HETATM    5  C   UNK N   1      22.772  17.736   4.650  0.00  0.00     0.217 C 
BRANCH   5   6
HETATM    6  C   UNK N   1      23.907  18.644   4.245  0.00  0.00    -0.026 A 
HETATM    7  C   UNK N   1      25.183  18.365   4.757  0.00  0.00     0.010 A 
HETATM    8  C   UNK N   1      26.272  19.178   4.438  0.00  0.00     0.001 A 
HETATM    9  C   UNK N   1      26.095  20.278   3.597  0.00  0.00     0.000 A 
HETATM   10  C   UNK N   1      24.830  20.564   3.078  0.00  0.00     0.001 A 
HETATM   11  C   UNK N   1      23.737  19.752   3.403  0.00  0.00     0.010 A 
ENDBRANCH   5   6
BRANCH   5  12
HETATM   12  C   UNK N   1      21.663  18.256   5.539  0.00  0.00     0.286 C 
HETATM   13  O   UNK N   1      20.907  19.101   5.084  0.00  0.00    -0.263 OA
BRANCH  12  14
HETATM   14  O   UNK N   1      21.466  17.769   6.795  0.00  0.00    -0.314 OA
BRANCH  14  15
HETATM   15  C   UNK N   1      20.300  17.132   7.194  0.00  0.00     0.132 C 
HETATM   16  C   UNK N   1      20.139  15.836   6.433  0.00  0.00     0.032 C 
HETATM   17  C   UNK N   1      20.854  14.791   7.266  0.00  0.00     0.002 C 
HETATM   18  C   UNK N   1      20.759  15.265   8.703  0.00  0.00     0.002 C 
HETATM   19  C   UNK N   1      20.326  16.718   8.659  0.00  0.00     0.032 C 
ENDBRANCH  14  15
ENDBRANCH  12  14
ENDBRANCH   5  12
ENDBRANCH   3   5
BRANCH   1  20
HETATM   20  C   UNK N   1      21.645  15.194   2.053  0.00  0.00     0.116 C 
BRANCH  20  21
HETATM   21  C   UNK N   1      22.583  14.559   1.023  0.00  0.00     0.021 C 
BRANCH  21  22
HETATM   22  C   UNK N   1      22.234  13.120   0.635  0.00  0.00    -0.022 C 
HETATM   23  C   UNK N   1      22.123  12.297   1.901  0.00  0.00     0.009 C 
HETATM   24  C   UNK N   1      23.305  12.482  -0.234  0.00  0.00     0.009 C 
ENDBRANCH  21  22
ENDBRANCH  20  21
BRANCH  20  25
HETATM   25  C   UNK N   1      20.164  15.454   1.739  0.00  0.00     0.225 C 
BRANCH  25  26
HETATM   26  C   UNK N   1      19.893  16.743   1.001  0.00  0.00     0.270 C 
HETATM   27  O   UNK N   1      20.085  16.814  -0.206  0.00  0.00    -0.268 OA
HETATM   28  N   UNK N   1      19.432  17.835   1.656  0.00  0.00    -0.235 N 
HETATM   29  H   UNK N   1      19.245  18.659   1.150  0.00  0.00     0.197 HD
BRANCH  28  30
HETATM   30  O   UNK N   1      19.225  17.815   2.982  0.00  0.00    -0.287 OA
HETATM   31  H   UNK N   1      19.415  17.186   3.696  0.00  0.00     0.244 HD
ENDBRANCH  28  30
ENDBRANCH  25  26
BRANCH  25  32
HETATM   32  O   UNK N   1      19.432  15.428   2.931  0.00  0.00    -0.385 OA
HETATM   33  H   UNK N   1      18.747  14.754   3.065  0.00  0.00     0.210 HD
ENDBRANCH  25  32
ENDBRANCH  20  25
ENDBRANCH   1  20
TORSDOF 12
ENDMDL
