MODEL 1
REMARK VINA RESULT:      -6.9      0.000      0.000
REMARK  2 active torsions:
REMARK  status: ('A' for Active; 'I' for Inactive)
REMARK    1  A    between atoms: C_5  and  C_11 
REMARK       I    between atoms: C_11  and  N_13 
REMARK    2  A    between atoms: C_14  and  N_13 
ROOT
HETATM    1  C   UNK N   1      35.872  15.392  10.789  0.00  0.00     0.259 C 
HETATM    2  O   UNK N   1      36.826  16.142  10.694  0.00  0.00    -0.267 OA
HETATM    3  N   UNK N   1      34.943  15.308   9.800  0.00  0.00    -0.350 N 
HETATM    4  H   UNK N   1      34.220  14.650   9.914  0.00  0.00     0.163 HD
ENDROOT
BRANCH   1   5
HETATM    5  C   UNK N   1      35.697  14.550  11.981  0.00  0.00     0.074 A 
HETATM    6  C   UNK N   1      36.258  14.814  13.239  0.00  0.00     0.037 A 
HETATM    7  C   UNK N   1      35.945  13.808  14.187  0.00  0.00    -0.016 A 
HETATM    8  C   UNK N   1      36.372  13.789  15.513  0.00  0.00     0.013 A 
HETATM    9  C   UNK N   1      35.148  12.779  13.687  0.00  0.00     0.037 A 
HETATM   10  C   UNK N   1      35.982  12.716  16.332  0.00  0.00     0.003 A 
HETATM   11  C   UNK N   1      35.171  11.682  15.821  0.00  0.00     0.025 A 
HETATM   12  C   UNK N   1      34.744  11.709  14.483  0.00  0.00     0.052 A 
HETATM   13 Cl   UNK N   1      33.735  10.421  13.853  0.00  0.00    -0.083 Cl
HETATM   14  S   UNK N   1      34.848  13.116  12.091  0.00  0.00    -0.082 SA
ENDBRANCH   1   5
BRANCH   3  15
HETATM   15  C   UNK N   1      34.930  16.108   8.596  0.00  0.00     0.117 C 
HETATM   16  C   UNK N   1      34.181  17.421   8.921  0.00  0.00     0.297 C 
HETATM   17  N   UNK N   1      32.964  17.571   8.099  0.00  0.00     0.090 N 
HETATM   18  C   UNK N   1      33.365  17.653   6.684  0.00  0.00     0.273 C 
HETATM   19  C   UNK N   1      32.089  16.396   8.287  0.00  0.00     0.273 C 
HETATM   20  C   UNK N   1      34.165  16.402   6.254  0.00  0.00     0.037 C 
HETATM   21  C   UNK N   1      34.223  15.404   7.419  0.00  0.00     0.013 C 
HETATM   22  C   UNK N   1      32.780  15.095   7.828  0.00  0.00     0.037 C 
ENDBRANCH   3  15
TORSDOF 2
ENDMDL
MODEL 2
REMARK VINA RESULT:      -6.8      1.730      2.010
REMARK  2 active torsions:
REMARK  status: ('A' for Active; 'I' for Inactive)
REMARK    1  A    between atoms: C_5  and  C_11 
REMARK       I    between atoms: C_11  and  N_13 
REMARK    2  A    between atoms: C_14  and  N_13 
ROOT
HETATM    1  C   UNK N   1      35.308  16.141  10.339  0.00  0.00     0.259 C 
HETATM    2  O   UNK N   1      35.721  17.282  10.440  0.00  0.00    -0.267 OA
HETATM    3  N   UNK N   1      34.394  15.807   9.390  0.00  0.00    -0.350 N 
HETATM    4  H   UNK N   1      34.133  14.860   9.328  0.00  0.00     0.163 HD
ENDROOT
BRANCH   1   5
HETATM    5  C   UNK N   1      35.789  15.087  11.243  0.00  0.00     0.074 A 
HETATM    6  C   UNK N   1      35.817  15.182  12.642  0.00  0.00     0.037 A 
HETATM    7  C   UNK N   1      36.366  14.022  13.246  0.00  0.00    -0.016 A 
HETATM    8  C   UNK N   1      36.535  13.831  14.616  0.00  0.00     0.013 A 
HETATM    9  C   UNK N   1      36.754  13.035  12.342  0.00  0.00     0.037 A 
HETATM   10  C   UNK N   1      37.101  12.626  15.063  0.00  0.00     0.003 A 
HETATM   11  C   UNK N   1      37.486  11.629  14.143  0.00  0.00     0.025 A 
HETATM   12  C   UNK N   1      37.311  11.830  12.763  0.00  0.00     0.052 A 
HETATM   13 Cl   UNK N   1      37.790  10.587  11.624  0.00  0.00    -0.083 Cl
HETATM   14  S   UNK N   1      36.425  13.602  10.818  0.00  0.00    -0.082 SA
ENDBRANCH   1   5
BRANCH   3  15
HETATM   15  C   UNK N   1      33.772  16.730   8.467  0.00  0.00     0.117 C 
HETATM   16  C   UNK N   1      32.260  16.410   8.440  0.00  0.00     0.297 C 
HETATM   17  N   UNK N   1      31.817  15.987   7.098  0.00  0.00     0.090 N 
HETATM   18  C   UNK N   1      32.027  17.108   6.165  0.00  0.00     0.273 C 
HETATM   19  C   UNK N   1      32.616  14.828   6.652  0.00  0.00     0.273 C 
HETATM   20  C   UNK N   1      33.510  17.546   6.138  0.00  0.00     0.037 C 
HETATM   21  C   UNK N   1      34.336  16.613   7.036  0.00  0.00     0.013 C 
HETATM   22  C   UNK N   1      34.113  15.183   6.536  0.00  0.00     0.037 C 
ENDBRANCH   3  15
TORSDOF 2
ENDMDL
MODEL 3
REMARK VINA RESULT:      -6.7      3.289      7.869
REMARK  2 active torsions:
REMARK  status: ('A' for Active; 'I' for Inactive)
REMARK    1  A    between atoms: C_5  and  C_11 
REMARK       I    between atoms: C_11  and  N_13 
REMARK    2  A    between atoms: C_14  and  N_13 
ROOT
HETATM    1  C   UNK N   1      34.776  16.544   9.437  0.00  0.00     0.259 C 
HETATM    2  O   UNK N   1      35.322  17.491   9.973  0.00  0.00    -0.267 OA
HETATM    3  N   UNK N   1      35.004  15.272   9.857  0.00  0.00    -0.350 N 
HETATM    4  H   UNK N   1      34.498  14.552   9.414  0.00  0.00     0.163 HD
ENDROOT
BRANCH   1   5
HETATM    5  C   UNK N   1      33.850  16.751   8.314  0.00  0.00     0.074 A 
HETATM    6  C   UNK N   1      34.236  17.058   7.001  0.00  0.00     0.037 A 
HETATM    7  C   UNK N   1      33.122  17.234   6.143  0.00  0.00    -0.016 A 
HETATM    8  C   UNK N   1      33.192  17.559   4.790  0.00  0.00     0.013 A 
HETATM    9  C   UNK N   1      31.887  17.062   6.765  0.00  0.00     0.037 A 
HETATM   10  C   UNK N   1      31.995  17.707   4.069  0.00  0.00     0.003 A 
HETATM   11  C   UNK N   1      30.748  17.525   4.704  0.00  0.00     0.025 A 
HETATM   12  C   UNK N   1      30.687  17.197   6.069  0.00  0.00     0.052 A 
HETATM   13 Cl   UNK N   1      29.136  16.971   6.854  0.00  0.00    -0.083 Cl
HETATM   14  S   UNK N   1      32.181  16.704   8.358  0.00  0.00    -0.082 SA
ENDBRANCH   1   5
BRANCH   3  15
HETATM   15  C   UNK N   1      35.930  14.889  10.899  0.00  0.00     0.117 C 
HETATM   16  C   UNK N   1      37.141  14.212  10.217  0.00  0.00     0.297 C 
HETATM   17  N   UNK N   1      37.292  12.808  10.646  0.00  0.00     0.090 N 
HETATM   18  C   UNK N   1      37.560  12.791  12.095  0.00  0.00     0.273 C 
HETATM   19  C   UNK N   1      36.044  12.067  10.376  0.00  0.00     0.273 C 
HETATM   20  C   UNK N   1      36.426  13.484  12.884  0.00  0.00     0.037 C 
HETATM   21  C   UNK N   1      35.312  13.907  11.915  0.00  0.00     0.013 C 
HETATM   22  C   UNK N   1      34.855  12.650  11.168  0.00  0.00     0.037 C 
ENDBRANCH   3  15
TORSDOF 2
ENDMDL
MODEL 4
REMARK VINA RESULT:      -6.6      2.900      4.000
REMARK  2 active torsions:
REMARK  status: ('A' for Active; 'I' for Inactive)
REMARK    1  A    between atoms: C_5  and  C_11 
REMARK       I    between atoms: C_11  and  N_13 
REMARK    2  A    between atoms: C_14  and  N_13 
ROOT
HETATM    1  C   UNK N   1      34.771  11.869  12.977  0.00  0.00     0.259 C 
HETATM    2  O   UNK N   1      34.689  10.828  12.350  0.00  0.00    -0.267 OA
HETATM    3  N   UNK N   1      34.777  13.071  12.343  0.00  0.00    -0.350 N 
HETATM    4  H   UNK N   1      34.798  13.878  12.907  0.00  0.00     0.163 HD
ENDROOT
BRANCH   1   5
HETATM    5  C   UNK N   1      34.865  11.855  14.443  0.00  0.00     0.074 A 
HETATM    6  C   UNK N   1      34.932  12.998  15.253  0.00  0.00     0.037 A 
HETATM    7  C   UNK N   1      35.052  12.674  16.628  0.00  0.00    -0.016 A 
HETATM    8  C   UNK N   1      35.153  13.596  17.667  0.00  0.00     0.013 A 
HETATM    9  C   UNK N   1      35.072  11.306  16.894  0.00  0.00     0.037 A 
HETATM   10  C   UNK N   1      35.274  13.119  18.983  0.00  0.00     0.003 A 
HETATM   11  C   UNK N   1      35.287  11.733  19.245  0.00  0.00     0.025 A 
HETATM   12  C   UNK N   1      35.184  10.810  18.191  0.00  0.00     0.052 A 
HETATM   13 Cl   UNK N   1      35.200   9.088  18.522  0.00  0.00    -0.083 Cl
HETATM   14  S   UNK N   1      34.950  10.517  15.440  0.00  0.00    -0.082 SA
ENDBRANCH   1   5
BRANCH   3  15
HETATM   15  C   UNK N   1      34.756  13.261  10.910  0.00  0.00     0.117 C 
HETATM   16  C   UNK N   1      36.221  13.223  10.416  0.00  0.00     0.297 C 
HETATM   17  N   UNK N   1      36.619  14.500   9.795  0.00  0.00     0.090 N 
HETATM   18  C   UNK N   1      35.778  14.721   8.605  0.00  0.00     0.273 C 
HETATM   19  C   UNK N   1      36.406  15.606  10.750  0.00  0.00     0.273 C 
HETATM   20  C   UNK N   1      34.277  14.737   8.973  0.00  0.00     0.037 C 
HETATM   21  C   UNK N   1      34.121  14.604  10.495  0.00  0.00     0.013 C 
HETATM   22  C   UNK N   1      34.919  15.743  11.137  0.00  0.00     0.037 C 
ENDBRANCH   3  15
TORSDOF 2
ENDMDL
MODEL 5
REMARK VINA RESULT:      -6.6     16.775     19.289
REMARK  2 active torsions:
REMARK  status: ('A' for Active; 'I' for Inactive)
REMARK    1  A    between atoms: C_5  and  C_11 
REMARK       I    between atoms: C_11  and  N_13 
REMARK    2  A    between atoms: C_14  and  N_13 
ROOT
HETATM    1  C   UNK N   1      28.381  23.631  -3.247  0.00  0.00     0.259 C 
HETATM    2  O   UNK N   1      27.820  23.512  -2.173  0.00  0.00    -0.267 OA
HETATM    3  N   UNK N   1      27.929  24.508  -4.182  0.00  0.00    -0.350 N 
HETATM    4  H   UNK N   1      28.452  24.593  -5.012  0.00  0.00     0.163 HD
ENDROOT
BRANCH   1   5
HETATM    5  C   UNK N   1      29.570  22.827  -3.565  0.00  0.00     0.074 A 
HETATM    6  C   UNK N   1      30.619  22.559  -2.674  0.00  0.00     0.037 A 
HETATM    7  C   UNK N   1      31.646  21.786  -3.272  0.00  0.00    -0.016 A 
HETATM    8  C   UNK N   1      32.818  21.377  -2.639  0.00  0.00     0.013 A 
HETATM    9  C   UNK N   1      31.405  21.447  -4.602  0.00  0.00     0.037 A 
HETATM   10  C   UNK N   1      33.747  20.617  -3.369  0.00  0.00     0.003 A 
HETATM   11  C   UNK N   1      33.495  20.273  -4.713  0.00  0.00     0.025 A 
HETATM   12  C   UNK N   1      32.310  20.689  -5.343  0.00  0.00     0.052 A 
HETATM   13 Cl   UNK N   1      32.000  20.258  -7.014  0.00  0.00    -0.083 Cl
HETATM   14  S   UNK N   1      29.944  22.107  -5.025  0.00  0.00    -0.082 SA
ENDBRANCH   1   5
BRANCH   3  15
HETATM   15  C   UNK N   1      26.743  25.325  -4.058  0.00  0.00     0.117 C 
HETATM   16  C   UNK N   1      25.831  25.005  -5.265  0.00  0.00     0.297 C 
HETATM   17  N   UNK N   1      25.612  26.193  -6.111  0.00  0.00     0.090 N 
HETATM   18  C   UNK N   1      24.910  27.212  -5.311  0.00  0.00     0.273 C 
HETATM   19  C   UNK N   1      26.913  26.737  -6.553  0.00  0.00     0.273 C 
HETATM   20  C   UNK N   1      25.715  27.583  -4.044  0.00  0.00     0.037 C 
HETATM   21  C   UNK N   1      27.056  26.835  -4.050  0.00  0.00     0.013 C 
HETATM   22  C   UNK N   1      27.772  27.194  -5.355  0.00  0.00     0.037 C 
ENDBRANCH   3  15
TORSDOF 2
ENDMDL
MODEL 6
REMARK VINA RESULT:      -6.4     17.102     20.085
REMARK  2 active torsions:
REMARK  status: ('A' for Active; 'I' for Inactive)
REMARK    1  A    between atoms: C_5  and  C_11 
REMARK       I    between atoms: C_11  and  N_13 
REMARK    2  A    between atoms: C_14  and  N_13 
ROOT
HETATM    1  C   UNK N   1      30.436  24.039  -3.421  0.00  0.00     0.259 C 
HETATM    2  O   UNK N   1      30.623  23.922  -2.223  0.00  0.00    -0.267 OA
HETATM    3  N   UNK N   1      31.280  23.470  -4.322  0.00  0.00    -0.350 N 
HETATM    4  H   UNK N   1      31.050  23.560  -5.275  0.00  0.00     0.163 HD
ENDROOT
BRANCH   1   5
HETATM    5  C   UNK N   1      29.287  24.801  -3.929  0.00  0.00     0.074 A 
HETATM    6  C   UNK N   1      28.014  24.265  -4.172  0.00  0.00     0.037 A 
HETATM    7  C   UNK N   1      27.116  25.231  -4.693  0.00  0.00    -0.016 A 
HETATM    8  C   UNK N   1      25.790  24.992  -5.044  0.00  0.00     0.013 A 
HETATM    9  C   UNK N   1      27.670  26.500  -4.849  0.00  0.00     0.037 A 
HETATM   10  C   UNK N   1      25.025  26.054  -5.555  0.00  0.00     0.003 A 
HETATM   11  C   UNK N   1      25.591  27.337  -5.705  0.00  0.00     0.025 A 
HETATM   12  C   UNK N   1      26.929  27.570  -5.347  0.00  0.00     0.052 A 
HETATM   13 Cl   UNK N   1      27.627  29.168  -5.534  0.00  0.00    -0.083 Cl
HETATM   14  S   UNK N   1      29.251  26.416  -4.353  0.00  0.00    -0.082 SA
ENDBRANCH   1   5
BRANCH   3  15
HETATM   15  C   UNK N   1      32.488  22.745  -3.995  0.00  0.00     0.117 C 
HETATM   16  C   UNK N   1      33.251  22.498  -5.316  0.00  0.00     0.297 C 
HETATM   17  N   UNK N   1      33.395  21.057  -5.599  0.00  0.00     0.090 N 
HETATM   18  C   UNK N   1      34.202  20.450  -4.526  0.00  0.00     0.273 C 
HETATM   19  C   UNK N   1      32.063  20.419  -5.624  0.00  0.00     0.273 C 
HETATM   20  C   UNK N   1      33.551  20.673  -3.141  0.00  0.00     0.037 C 
HETATM   21  C   UNK N   1      32.205  21.390  -3.316  0.00  0.00     0.013 C 
HETATM   22  C   UNK N   1      31.353  20.537  -4.260  0.00  0.00     0.037 C 
ENDBRANCH   3  15
TORSDOF 2
ENDMDL
MODEL 7
REMARK VINA RESULT:      -6.2      6.269     10.292
REMARK  2 active torsions:
REMARK  status: ('A' for Active; 'I' for Inactive)
REMARK    1  A    between atoms: C_5  and  C_11 
REMARK       I    between atoms: C_11  and  N_13 
REMARK    2  A    between atoms: C_14  and  N_13 
ROOT
HETATM    1  C   UNK N   1      29.380  17.589   7.863  0.00  0.00     0.259 C 
HETATM    2  O   UNK N   1      28.975  17.268   8.965  0.00  0.00    -0.267 OA
HETATM    3  N   UNK N   1      30.707  17.568   7.569  0.00  0.00    -0.350 N 
HETATM    4  H   UNK N   1      30.969  17.793   6.647  0.00  0.00     0.163 HD
ENDROOT
BRANCH   1   5
HETATM    5  C   UNK N   1      28.442  18.010   6.813  0.00  0.00     0.074 A 
HETATM    6  C   UNK N   1      28.010  19.329   6.605  0.00  0.00     0.037 A 
HETATM    7  C   UNK N   1      27.078  19.425   5.541  0.00  0.00    -0.016 A 
HETATM    8  C   UNK N   1      26.465  20.600   5.112  0.00  0.00     0.013 A 
HETATM    9  C   UNK N   1      26.791  18.211   4.920  0.00  0.00     0.037 A 
HETATM   10  C   UNK N   1      25.555  20.534   4.043  0.00  0.00     0.003 A 
HETATM   11  C   UNK N   1      25.274  19.303   3.416  0.00  0.00     0.025 A 
HETATM   12  C   UNK N   1      25.897  18.123   3.855  0.00  0.00     0.052 A 
HETATM   13 Cl   UNK N   1      25.545  16.595   3.071  0.00  0.00    -0.083 Cl
HETATM   14  S   UNK N   1      27.676  17.039   5.691  0.00  0.00    -0.082 SA
ENDBRANCH   1   5
BRANCH   3  15
HETATM   15  C   UNK N   1      31.764  17.242   8.500  0.00  0.00     0.117 C 
HETATM   16  C   UNK N   1      32.886  18.290   8.311  0.00  0.00     0.297 C 
HETATM   17  N   UNK N   1      34.146  17.663   7.870  0.00  0.00     0.090 N 
HETATM   18  C   UNK N   1      34.603  16.742   8.924  0.00  0.00     0.273 C 
HETATM   19  C   UNK N   1      33.914  16.899   6.627  0.00  0.00     0.273 C 
HETATM   20  C   UNK N   1      33.535  15.666   9.231  0.00  0.00     0.037 C 
HETATM   21  C   UNK N   1      32.348  15.833   8.271  0.00  0.00     0.013 C 
HETATM   22  C   UNK N   1      32.900  15.757   6.845  0.00  0.00     0.037 C 
ENDBRANCH   3  15
TORSDOF 2
ENDMDL
MODEL 8
REMARK VINA RESULT:      -6.1      6.283     10.362
REMARK  2 active torsions:
REMARK  status: ('A' for Active; 'I' for Inactive)
REMARK    1  A    between atoms: C_5  and  C_11 
REMARK       I    between atoms: C_11  and  N_13 
REMARK    2  A    between atoms: C_14  and  N_13 
ROOT
HETATM    1  C   UNK N   1      29.895  16.140   6.036  0.00  0.00     0.259 C 
HETATM    2  O   UNK N   1      29.841  14.955   5.761  0.00  0.00    -0.267 OA
HETATM    3  N   UNK N   1      30.959  16.658   6.703  0.00  0.00    -0.350 N 
HETATM    4  H   UNK N   1      30.966  17.631   6.856  0.00  0.00     0.163 HD
ENDROOT
BRANCH   1   5
HETATM    5  C   UNK N   1      28.805  17.048   5.653  0.00  0.00     0.074 A 
HETATM    6  C   UNK N   1      27.917  16.832   4.588  0.00  0.00     0.037 A 
HETATM    7  C   UNK N   1      26.993  17.897   4.436  0.00  0.00    -0.016 A 
HETATM    8  C   UNK N   1      26.003  17.970   3.459  0.00  0.00     0.013 A 
HETATM    9  C   UNK N   1      27.146  18.923   5.366  0.00  0.00     0.037 A 
HETATM   10  C   UNK N   1      25.164  19.097   3.433  0.00  0.00     0.003 A 
HETATM   11  C   UNK N   1      25.320  20.129   4.381  0.00  0.00     0.025 A 
HETATM   12  C   UNK N   1      26.321  20.046   5.364  0.00  0.00     0.052 A 
HETATM   13 Cl   UNK N   1      26.510  21.332   6.541  0.00  0.00    -0.083 Cl
HETATM   14  S   UNK N   1      28.414  18.514   6.353  0.00  0.00    -0.082 SA
ENDBRANCH   1   5
BRANCH   3  15
HETATM   15  C   UNK N   1      32.081  15.898   7.208  0.00  0.00     0.117 C 
HETATM   16  C   UNK N   1      32.352  16.378   8.653  0.00  0.00     0.297 C 
HETATM   17  N   UNK N   1      33.697  16.969   8.785  0.00  0.00     0.090 N 
HETATM   18  C   UNK N   1      34.696  15.926   8.492  0.00  0.00     0.273 C 
HETATM   19  C   UNK N   1      33.853  18.074   7.818  0.00  0.00     0.273 C 
HETATM   20  C   UNK N   1      34.494  15.338   7.076  0.00  0.00     0.037 C 
HETATM   21  C   UNK N   1      33.359  16.089   6.366  0.00  0.00     0.013 C 
HETATM   22  C   UNK N   1      33.726  17.576   6.363  0.00  0.00     0.037 C 
ENDBRANCH   3  15
TORSDOF 2
ENDMDL
MODEL 9
REMARK VINA RESULT:      -6.0      8.637     11.001
REMARK  2 active torsions:
REMARK  status: ('A' for Active; 'I' for Inactive)
REMARK    1  A    between atoms: C_5  and  C_11 
REMARK       I    between atoms: C_11  and  N_13 
REMARK    2  A    between atoms: C_14  and  N_13 
ROOT
HETATM    1  C   UNK N   1      25.012  15.243   6.073  0.00  0.00     0.259 C 
HETATM    2  O   UNK N   1      24.661  15.107   4.915  0.00  0.00    -0.267 OA
HETATM    3  N   UNK N   1      26.076  16.023   6.397  0.00  0.00    -0.350 N 
HETATM    4  H   UNK N   1      26.283  16.131   7.354  0.00  0.00     0.163 HD
ENDROOT
BRANCH   1   5
HETATM    5  C   UNK N   1      24.290  14.564   7.159  0.00  0.00     0.074 A 
HETATM    6  C   UNK N   1      22.896  14.548   7.308  0.00  0.00     0.037 A 
HETATM    7  C   UNK N   1      22.489  13.844   8.469  0.00  0.00    -0.016 A 
HETATM    8  C   UNK N   1      21.171  13.672   8.887  0.00  0.00     0.013 A 
HETATM    9  C   UNK N   1      23.541  13.312   9.212  0.00  0.00     0.037 A 
HETATM   10  C   UNK N   1      20.927  12.952  10.068  0.00  0.00     0.003 A 
HETATM   11  C   UNK N   1      21.996  12.411  10.812  0.00  0.00     0.025 A 
HETATM   12  C   UNK N   1      23.322  12.588  10.383  0.00  0.00     0.052 A 
HETATM   13 Cl   UNK N   1      24.647  11.912  11.311  0.00  0.00    -0.083 Cl
HETATM   14  S   UNK N   1      24.951  13.719   8.439  0.00  0.00    -0.082 SA
ENDBRANCH   1   5
BRANCH   3  15
HETATM   15  C   UNK N   1      26.931  16.706   5.452  0.00  0.00     0.117 C 
HETATM   16  C   UNK N   1      28.197  15.839   5.261  0.00  0.00     0.297 C 
HETATM   17  N   UNK N   1      29.415  16.553   5.688  0.00  0.00     0.090 N 
HETATM   18  C   UNK N   1      29.584  17.740   4.832  0.00  0.00     0.273 C 
HETATM   19  C   UNK N   1      29.271  16.987   7.093  0.00  0.00     0.273 C 
HETATM   20  C   UNK N   1      28.350  18.668   4.910  0.00  0.00     0.037 C 
HETATM   21  C   UNK N   1      27.351  18.110   5.934  0.00  0.00     0.013 C 
HETATM   22  C   UNK N   1      28.094  17.970   7.265  0.00  0.00     0.037 C 
ENDBRANCH   3  15
TORSDOF 2
ENDMDL
