REMARK  6 active torsions:
REMARK  status: ('A' for Active; 'I' for Inactive)
REMARK    1  A    between atoms: C_4  and  C_7 
REMARK       I    between atoms: C_7  and  N_9 
REMARK    2  A    between atoms: C_10  and  N_9 
REMARK    3  A    between atoms: C_12  and  C_19 
REMARK       I    between atoms: N_13  and  C_15 
REMARK    4  A    between atoms: C_15  and  C_17 
REMARK    5  A    between atoms: C_17  and  N_18 
REMARK    6  A    between atoms: C_19  and  O_21 
ROOT
HETATM    1  C   UNK N   1       1.333   4.913   0.467  0.00  0.00     0.105 C 
HETATM    2  C   UNK N   1       1.841   3.987   1.570  0.00  0.00     0.063 C 
HETATM    3  C   UNK N   1       1.610   2.578   1.039  0.00  0.00     0.187 C 
HETATM    4  N   UNK N   1       0.470   2.743   0.179  0.00  0.00    -0.334 N 
HETATM    5  C   UNK N   1       0.211   4.109  -0.199  0.00  0.00     0.152 C 
HETATM    6  C   UNK N   1      -0.339   1.698  -0.162  0.00  0.00     0.237 C 
HETATM    7  O   UNK N   1      -0.079   0.567   0.219  0.00  0.00    -0.272 OA
ENDROOT
BRANCH   1   8
HETATM    8  N   UNK N   1       2.437   5.116  -0.442  0.00  0.00    -0.351 N 
HETATM    9  C   UNK N   1       3.048   6.305  -0.696  0.00  0.00     0.252 C 
HETATM   10  O   UNK N   1       4.100   6.287  -1.318  0.00  0.00    -0.268 OA
HETATM   11  H   UNK N   1       2.777   4.325  -0.919  0.00  0.00     0.163 HD
BRANCH   9  12
HETATM   12  C   UNK N   1       2.520   7.625  -0.239  0.00  0.00     0.032 A 
HETATM   13  C   UNK N   1       3.345   8.759  -0.332  0.00  0.00     0.017 A 
HETATM   14  C   UNK N   1       2.872  10.019   0.045  0.00  0.00     0.001 A 
HETATM   15  C   UNK N   1       1.559  10.164   0.496  0.00  0.00     0.000 A 
HETATM   16  C   UNK N   1       0.725   9.047   0.583  0.00  0.00     0.001 A 
HETATM   17  C   UNK N   1       1.204   7.783   0.222  0.00  0.00     0.017 A 
ENDBRANCH   9  12
ENDBRANCH   1   8
BRANCH   3  18
HETATM   18  C   UNK N   1       2.788   2.043   0.250  0.00  0.00     0.163 C 
HETATM   19  O   UNK N   1       2.714   0.950  -0.288  0.00  0.00    -0.648 OA
BRANCH  18  20
HETATM   20  O   UNK N   1       3.925   2.759   0.134  0.00  0.00    -0.775 OA
HETATM   21  H   UNK N   1       4.751   2.324   0.054  0.00  0.00     0.167 HD
ENDBRANCH  18  20
ENDBRANCH   3  18
BRANCH   6  22
HETATM   22  C   UNK N   1      -1.574   1.913  -0.985  0.00  0.00     0.215 C 
BRANCH  22  23
HETATM   23  N   UNK N   1      -2.740   1.468  -0.239  0.00  0.00    -0.422 N 
HETATM   24  H   UNK N   1      -3.420   2.020   0.283  0.00  0.00     0.150 HD
HETATM   25  H   UNK N   1      -2.902   0.460  -0.239  0.00  0.00     0.150 HD
ENDBRANCH  22  23
ENDBRANCH   6  22
TORSDOF 6
