REMARK  3 active torsions:
REMARK  status: ('A' for Active; 'I' for Inactive)
REMARK    1  A    between atoms: C_4  and  C_7 
REMARK    2  A    between atoms: C_7  and  C_8 
REMARK       I    between atoms: C_8  and  N_10 
REMARK    3  A    between atoms: C_11  and  N_10 
ROOT
HETATM    1  C   UNK N   1       2.802  -0.836  -0.188  0.00  0.00     0.222 C 
HETATM    2  O   UNK N   1       3.366  -0.912  -1.271  0.00  0.00    -0.273 OA
HETATM    3  N   UNK N   1       3.284  -0.030   0.793  0.00  0.00    -0.348 N 
HETATM    4  H   UNK N   1       2.759   0.057   1.621  0.00  0.00     0.163 HD
ENDROOT
BRANCH   3   5
HETATM    5  C   UNK N   1       4.528   0.712   0.692  0.00  0.00     0.177 C 
HETATM    6  C   UNK N   1       4.527   1.745  -0.425  0.00  0.00     0.044 C 
HETATM    7  C   UNK N   1       5.864   2.491  -0.425  0.00  0.00     0.106 C 
HETATM    8  C   UNK N   1       7.039   1.540  -0.367  0.00  0.00     0.224 C 
HETATM    9  O   UNK N   1       8.134   1.925  -0.740  0.00  0.00    -0.273 OA
HETATM   10  N   UNK N   1       6.896   0.267   0.082  0.00  0.00    -0.296 N 
HETATM   11  C   UNK N   1       5.719  -0.209   0.559  0.00  0.00     0.247 C 
HETATM   12  H   UNK N   1       7.676  -0.334   0.061  0.00  0.00     0.171 HD
HETATM   13  O   UNK N   1       5.633  -1.380   0.891  0.00  0.00    -0.271 OA
ENDBRANCH   3   5
BRANCH   1  14
HETATM   14  C   UNK N   1       1.619  -1.705   0.100  0.00  0.00     0.141 C 
BRANCH  14  15
HETATM   15  C   UNK N   1       2.002  -3.150  -0.003  0.00  0.00    -0.050 A 
HETATM   16  C   UNK N   1       1.305  -3.993  -0.874  0.00  0.00     0.007 A 
HETATM   17  C   UNK N   1       1.671  -5.338  -0.991  0.00  0.00     0.001 A 
HETATM   18  C   UNK N   1       2.741  -5.841  -0.244  0.00  0.00     0.000 A 
HETATM   19  C   UNK N   1       3.439  -5.002   0.630  0.00  0.00     0.001 A 
HETATM   20  C   UNK N   1       3.068  -3.661   0.754  0.00  0.00     0.007 A 
ENDBRANCH  14  15
ENDBRANCH   1  14
TORSDOF 3
