REMARK  6 active torsions:
REMARK  status: ('A' for Active; 'I' for Inactive)
REMARK    1  A    between atoms: C_2  and  N_3 
REMARK    2  A    between atoms: N_3  and  C_4 
REMARK    3  A    between atoms: C_4  and  C_36 
REMARK    4  A    between atoms: N_7  and  C_10 
REMARK    5  A    between atoms: N_18  and  C_29 
REMARK    6  A    between atoms: C_19  and  C_22 
REMARK       I    between atoms: C_36  and  N_38 
ROOT
HETATM    1  C   UNK N   1       1.653  -0.570   0.320  0.00  0.00     0.135 C 
HETATM    2  C   UNK N   1       0.494   0.083  -0.074  0.00  0.00     0.123 A 
HETATM    3  C   UNK N   1       0.497   1.393  -0.343  0.00  0.00     0.146 A 
HETATM    4  N   UNK N   1       1.645   2.114  -0.369  0.00  0.00    -0.336 N 
ATOM      5  HN  UNK N   1       1.631   3.116  -0.562  1.00  0.00     0.168 HD
HETATM    6  C   UNK N   1       2.828   1.455  -0.126  0.00  0.00     0.183 C 
HETATM    7  N   UNK N   1       2.827   0.128   0.254  0.00  0.00    -0.337 N 
ATOM      8  HN  UNK N   1       3.706  -0.334   0.486  1.00  0.00     0.168 HD
HETATM    9  N   UNK N   1      -0.783   1.823  -0.451  0.00  0.00    -0.281 N 
HETATM   10  C   UNK N   1      -1.537   0.675  -0.321  0.00  0.00     0.126 A 
HETATM   11  N   UNK N   1      -0.751  -0.394  -0.097  0.00  0.00    -0.335 N 
ATOM     12  HN  UNK N   1      -1.045  -1.362   0.028  1.00  0.00     0.168 HD
ENDROOT
BRANCH   1  13
HETATM   13  N   UNK N   1       1.562  -1.852   0.945  0.00  0.00    -0.365 N 
HETATM   14  C   UNK N   1       0.291  -2.275   1.485  0.00  0.00     0.127 C 
HETATM   15  C   UNK N   1      -0.161  -3.525   0.768  0.00  0.00     0.060 C 
HETATM   16  C   UNK N   1       1.010  -4.429   0.332  0.00  0.00     0.110 C 
HETATM   17  C   UNK N   1       2.206  -4.190   1.301  0.00  0.00     0.060 C 
HETATM   18  C   UNK N   1       2.701  -2.715   1.188  0.00  0.00     0.127 C 
BRANCH  16  19
HETATM   19  N   UNK N   1       1.408  -4.030  -1.036  0.00  0.00    -0.405 N 
HETATM   20  H   UNK N   1       1.050  -3.191  -1.493  0.00  0.00     0.154 HD
BRANCH  19  21
HETATM   21  C   UNK N   1       2.361  -4.942  -1.680  0.00  0.00     0.110 C 
HETATM   22  C   UNK N   1       3.761  -4.832  -1.095  0.00  0.00     0.026 C 
ENDBRANCH  19  21
ENDBRANCH  16  19
BRANCH  16  23
HETATM   23  C   UNK N   1       0.492  -5.863   0.368  0.00  0.00     0.243 C 
HETATM   24  O   UNK N   1      -0.682  -6.096   0.627  0.00  0.00    -0.271 OA
HETATM   25  N   UNK N   1       1.316  -6.894   0.105  0.00  0.00    -0.368 N 
HETATM   26  H   UNK N   1       0.965  -7.794  -0.087  0.00  0.00     0.159 HD
HETATM   27  H   UNK N   1       2.290  -6.746   0.105  0.00  0.00     0.159 HD
ENDBRANCH  16  23
ENDBRANCH   1  13
BRANCH   9  28
HETATM   28  C   UNK N   1      -1.211   3.198  -0.452  0.00  0.00     0.043 A 
HETATM   29  C   UNK N   1      -2.449   3.583  -0.984  0.00  0.00     0.032 A 
HETATM   30  C   UNK N   1      -2.987   4.837  -0.687  0.00  0.00     0.026 A 
HETATM   31  C   UNK N   1      -2.293   5.711   0.154  0.00  0.00     0.034 A 
HETATM   32  C   UNK N   1      -1.032   5.362   0.636  0.00  0.00     0.026 A 
HETATM   33 Cl   UNK N   1      -3.027   7.218   0.650  0.00  0.00    -0.084 Cl
HETATM   34  C   UNK N   1      -0.492   4.114   0.329  0.00  0.00     0.032 A 
ENDBRANCH   9  28
BRANCH  10  35
HETATM   35  C   UNK N   1      -3.016   0.525  -0.135  0.00  0.00     0.030 A 
HETATM   36  C   UNK N   1      -3.777   1.596   0.345  0.00  0.00     0.017 A 
HETATM   37  C   UNK N   1      -5.134   1.459   0.629  0.00  0.00     0.001 A 
HETATM   38  C   UNK N   1      -5.759   0.229   0.453  0.00  0.00     0.002 A 
HETATM   39  C   UNK N   1      -5.028  -0.860  -0.014  0.00  0.00     0.025 A 
HETATM   40  C   UNK N   1      -3.666  -0.733  -0.304  0.00  0.00     0.048 A 
HETATM   41 Cl   UNK N   1      -2.846  -2.175  -0.897  0.00  0.00    -0.083 Cl
ENDBRANCH  10  35
TORSDOF 6
