MODEL 1
REMARK VINA RESULT:      -6.9      0.000      0.000
REMARK  10 active torsions:
REMARK  status: ('A' for Active; 'I' for Inactive)
REMARK    1  A    between atoms: C_5  and  C_8 
REMARK       I    between atoms: C_8  and  N_10 
REMARK    2  A    between atoms: N_10  and  C_11 
REMARK    3  A    between atoms: N_10  and  C_15 
REMARK    4  A    between atoms: C_11  and  C_12 
REMARK    5  A    between atoms: C_12  and  C_13 
REMARK    6  A    between atoms: C_13  and  N_14 
REMARK    7  A    between atoms: C_15  and  C_16 
REMARK    8  A    between atoms: C_15  and  C_36 
REMARK    9  A    between atoms: N_28  and  C_29 
REMARK   10  A    between atoms: C_29  and  C_30 
ROOT
HETATM    1  C   UNK N   1      21.966  15.219   4.119  0.00  0.00     0.111 A 
HETATM    2  N   UNK N   1      23.060  16.028   4.152  0.00  0.00    -0.336 N 
ATOM      3  HN  UNK N   1      23.973  15.635   4.384  1.00  0.00     0.168 HD
HETATM    4  C   UNK N   1      22.947  17.334   3.884  0.00  0.00     0.110 A 
HETATM    5  C   UNK N   1      21.763  17.933   3.561  0.00  0.00     0.090 A 
HETATM    6  C   UNK N   1      21.911  19.352   3.340  0.00  0.00     0.030 A 
HETATM    7  N   UNK N   1      23.185  19.833   3.504  0.00  0.00    -0.328 N 
ATOM      8  HN  UNK N   1      23.507  20.796   3.400  1.00  0.00     0.174 HD
HETATM    9  S   UNK N   1      24.080  18.508   3.906  0.00  0.00     0.005 SA
HETATM   10  C   UNK N   1      20.789  20.256   2.969  0.00  0.00     0.070 C 
HETATM   11  C   UNK N   1      20.620  17.136   3.514  0.00  0.00     0.264 A 
HETATM   12  O   UNK N   1      19.540  17.648   3.274  0.00  0.00    -0.267 OA
HETATM   13  N   UNK N   1      20.721  15.768   3.793  0.00  0.00    -0.297 N 
ENDROOT
BRANCH   1  14
HETATM   14  C   UNK N   1      22.134  13.740   4.524  0.00  0.00     0.159 C 
BRANCH  14  15
HETATM   15  N   UNK N   1      22.545  13.456   5.927  0.00  0.00    -0.336 N 
HETATM   16  C   UNK N   1      21.600  13.035   6.847  0.00  0.00     0.254 C 
HETATM   17  O   UNK N   1      20.433  12.949   6.492  0.00  0.00    -0.267 OA
BRANCH  16  18
HETATM   18  C   UNK N   1      21.908  12.656   8.280  0.00  0.00     0.032 A 
HETATM   19  C   UNK N   1      22.837  11.662   8.634  0.00  0.00     0.017 A 
HETATM   20  C   UNK N   1      23.123  11.372   9.968  0.00  0.00     0.007 A 
HETATM   21  C   UNK N   1      22.471  12.065  10.984  0.00  0.00    -0.062 A 
HETATM   22  C   UNK N   1      22.779  11.761  12.407  0.00  0.00     0.048 C 
HETATM   23  C   UNK N   1      21.531  13.048  10.662  0.00  0.00     0.007 A 
HETATM   24  C   UNK N   1      21.258  13.345   9.321  0.00  0.00     0.017 A 
ENDBRANCH  16  18
BRANCH  15  25
HETATM   25  C   UNK N   1      23.960  13.468   6.270  0.00  0.00     0.129 C 
BRANCH  25  26
HETATM   26  C   UNK N   1      24.346  14.772   6.969  0.00  0.00     0.039 C 
BRANCH  26  27
HETATM   27  C   UNK N   1      25.824  15.036   6.773  0.00  0.00     0.112 C 
BRANCH  27  28
HETATM   28  N   UNK N   1      26.023  16.427   6.413  0.00  0.00    -0.430 N 
HETATM   29  H   UNK N   1      25.314  17.152   6.299  0.00  0.00     0.149 HD
HETATM   30  H   UNK N   1      26.989  16.715   6.254  0.00  0.00     0.149 HD
ENDBRANCH  27  28
ENDBRANCH  26  27
ENDBRANCH  25  26
ENDBRANCH  15  25
ENDBRANCH  14  15
BRANCH  14  31
HETATM   31  C   UNK N   1      22.886  12.888   3.482  0.00  0.00     0.008 C 
HETATM   32  C   UNK N   1      22.744  13.474   2.090  0.00  0.00     0.012 C 
HETATM   33  C   UNK N   1      22.496  11.419   3.481  0.00  0.00     0.012 C 
ENDBRANCH  14  31
ENDBRANCH   1  14
BRANCH  13  34
HETATM   34  C   UNK N   1      19.496  14.944   3.871  0.00  0.00     0.172 C 
BRANCH  34  35
HETATM   35  C   UNK N   1      19.223  13.972   2.739  0.00  0.00    -0.040 A 
HETATM   36  C   UNK N   1      19.008  12.604   2.968  0.00  0.00     0.009 A 
HETATM   37  C   UNK N   1      18.893  11.708   1.900  0.00  0.00     0.001 A 
HETATM   38  C   UNK N   1      19.020  12.168   0.587  0.00  0.00     0.000 A 
HETATM   39  C   UNK N   1      19.248  13.526   0.347  0.00  0.00     0.001 A 
HETATM   40  C   UNK N   1      19.354  14.421   1.418  0.00  0.00     0.009 A 
ENDBRANCH  34  35
ENDBRANCH  13  34
TORSDOF 10
ENDMDL
MODEL 2
REMARK VINA RESULT:      -6.9      2.634      4.556
REMARK  10 active torsions:
REMARK  status: ('A' for Active; 'I' for Inactive)
REMARK    1  A    between atoms: C_5  and  C_8 
REMARK       I    between atoms: C_8  and  N_10 
REMARK    2  A    between atoms: N_10  and  C_11 
REMARK    3  A    between atoms: N_10  and  C_15 
REMARK    4  A    between atoms: C_11  and  C_12 
REMARK    5  A    between atoms: C_12  and  C_13 
REMARK    6  A    between atoms: C_13  and  N_14 
REMARK    7  A    between atoms: C_15  and  C_16 
REMARK    8  A    between atoms: C_15  and  C_36 
REMARK    9  A    between atoms: N_28  and  C_29 
REMARK   10  A    between atoms: C_29  and  C_30 
ROOT
HETATM    1  C   UNK N   1      23.741  16.111   5.256  0.00  0.00     0.111 A 
HETATM    2  N   UNK N   1      24.906  15.409   5.188  0.00  0.00    -0.336 N 
ATOM      3  HN  UNK N   1      24.894  14.395   5.300  1.00  0.00     0.168 HD
HETATM    4  C   UNK N   1      26.068  16.040   4.977  0.00  0.00     0.110 A 
HETATM    5  C   UNK N   1      26.166  17.392   4.812  0.00  0.00     0.090 A 
HETATM    6  C   UNK N   1      27.531  17.821   4.621  0.00  0.00     0.030 A 
HETATM    7  N   UNK N   1      28.463  16.815   4.651  0.00  0.00    -0.328 N 
ATOM      8  HN  UNK N   1      29.475  16.897   4.541  1.00  0.00     0.174 HD
HETATM    9  S   UNK N   1      27.584  15.443   4.904  0.00  0.00     0.005 SA
HETATM   10  C   UNK N   1      27.935  19.238   4.412  0.00  0.00     0.070 C 
HETATM   11  C   UNK N   1      24.994  18.144   4.873  0.00  0.00     0.264 A 
HETATM   12  O   UNK N   1      25.054  19.358   4.777  0.00  0.00    -0.267 OA
HETATM   13  N   UNK N   1      23.771  17.500   5.095  0.00  0.00    -0.297 N 
ENDROOT
BRANCH   1  14
HETATM   14  C   UNK N   1      22.444  15.347   5.591  0.00  0.00     0.159 C 
BRANCH  14  15
HETATM   15  N   UNK N   1      22.265  14.884   6.995  0.00  0.00    -0.336 N 
HETATM   16  C   UNK N   1      22.908  13.735   7.426  0.00  0.00     0.254 C 
HETATM   17  O   UNK N   1      23.577  13.101   6.623  0.00  0.00    -0.267 OA
BRANCH  16  18
HETATM   18  C   UNK N   1      22.854  13.203   8.842  0.00  0.00     0.032 A 
HETATM   19  C   UNK N   1      21.656  12.889   9.506  0.00  0.00     0.017 A 
HETATM   20  C   UNK N   1      21.653  12.360  10.797  0.00  0.00     0.007 A 
HETATM   21  C   UNK N   1      22.857  12.146  11.462  0.00  0.00    -0.062 A 
HETATM   22  C   UNK N   1      22.855  11.578  12.837  0.00  0.00     0.048 C 
HETATM   23  C   UNK N   1      24.064  12.464  10.833  0.00  0.00     0.007 A 
HETATM   24  C   UNK N   1      24.061  12.980   9.531  0.00  0.00     0.017 A 
ENDBRANCH  16  18
BRANCH  15  25
HETATM   25  C   UNK N   1      21.549  15.730   7.939  0.00  0.00     0.129 C 
BRANCH  25  26
HETATM   26  C   UNK N   1      20.198  16.168   7.371  0.00  0.00     0.039 C 
BRANCH  26  27
HETATM   27  C   UNK N   1      19.263  16.531   8.506  0.00  0.00     0.112 C 
BRANCH  27  28
HETATM   28  N   UNK N   1      19.432  17.932   8.842  0.00  0.00    -0.430 N 
HETATM   29  H   UNK N   1      19.993  18.332   9.594  0.00  0.00     0.149 HD
HETATM   30  H   UNK N   1      18.929  18.597   8.254  0.00  0.00     0.149 HD
ENDBRANCH  27  28
ENDBRANCH  26  27
ENDBRANCH  25  26
ENDBRANCH  15  25
ENDBRANCH  14  15
BRANCH  14  31
HETATM   31  C   UNK N   1      22.054  14.286   4.543  0.00  0.00     0.008 C 
HETATM   32  C   UNK N   1      22.323  14.783   3.135  0.00  0.00     0.012 C 
HETATM   33  C   UNK N   1      20.624  13.786   4.665  0.00  0.00     0.012 C 
ENDBRANCH  14  31
ENDBRANCH   1  14
BRANCH  13  34
HETATM   34  C   UNK N   1      22.545  18.302   5.288  0.00  0.00     0.172 C 
BRANCH  34  35
HETATM   35  C   UNK N   1      21.698  18.606   4.067  0.00  0.00    -0.040 A 
HETATM   36  C   UNK N   1      21.979  19.687   3.218  0.00  0.00     0.009 A 
HETATM   37  C   UNK N   1      21.107  20.027   2.178  0.00  0.00     0.001 A 
HETATM   38  C   UNK N   1      19.926  19.303   1.993  0.00  0.00     0.000 A 
HETATM   39  C   UNK N   1      19.629  18.233   2.842  0.00  0.00     0.001 A 
HETATM   40  C   UNK N   1      20.508  17.891   3.876  0.00  0.00     0.009 A 
ENDBRANCH  34  35
ENDBRANCH  13  34
TORSDOF 10
ENDMDL
MODEL 3
REMARK VINA RESULT:      -6.7      3.194      7.641
REMARK  10 active torsions:
REMARK  status: ('A' for Active; 'I' for Inactive)
REMARK    1  A    between atoms: C_5  and  C_8 
REMARK       I    between atoms: C_8  and  N_10 
REMARK    2  A    between atoms: N_10  and  C_11 
REMARK    3  A    between atoms: N_10  and  C_15 
REMARK    4  A    between atoms: C_11  and  C_12 
REMARK    5  A    between atoms: C_12  and  C_13 
REMARK    6  A    between atoms: C_13  and  N_14 
REMARK    7  A    between atoms: C_15  and  C_16 
REMARK    8  A    between atoms: C_15  and  C_36 
REMARK    9  A    between atoms: N_28  and  C_29 
REMARK   10  A    between atoms: C_29  and  C_30 
ROOT
HETATM    1  C   UNK N   1      21.736  15.309   7.109  0.00  0.00     0.111 A 
HETATM    2  N   UNK N   1      22.801  14.504   7.381  0.00  0.00    -0.336 N 
ATOM      3  HN  UNK N   1      23.631  14.547   6.790  1.00  0.00     0.168 HD
HETATM    4  C   UNK N   1      22.764  13.657   8.417  0.00  0.00     0.110 A 
HETATM    5  C   UNK N   1      21.692  13.545   9.255  0.00  0.00     0.090 A 
HETATM    6  C   UNK N   1      21.900  12.545  10.275  0.00  0.00     0.030 A 
HETATM    7  N   UNK N   1      23.105  11.895  10.212  0.00  0.00    -0.328 N 
ATOM      8  HN  UNK N   1      23.450  11.158  10.827  1.00  0.00     0.174 HD
HETATM    9  S   UNK N   1      23.872  12.568   8.916  0.00  0.00     0.005 SA
HETATM   10  C   UNK N   1      20.901  12.214  11.329  0.00  0.00     0.070 C 
HETATM   11  C   UNK N   1      20.584  14.355   9.010  0.00  0.00     0.264 A 
HETATM   12  O   UNK N   1      19.594  14.246   9.712  0.00  0.00    -0.267 OA
HETATM   13  N   UNK N   1      20.606  15.246   7.930  0.00  0.00    -0.297 N 
ENDROOT
BRANCH   1  14
HETATM   14  C   UNK N   1      21.793  16.201   5.852  0.00  0.00     0.159 C 
BRANCH  14  15
HETATM   15  N   UNK N   1      21.061  15.730   4.643  0.00  0.00    -0.336 N 
HETATM   16  C   UNK N   1      21.156  14.403   4.258  0.00  0.00     0.254 C 
HETATM   17  O   UNK N   1      21.880  13.655   4.900  0.00  0.00    -0.267 OA
BRANCH  16  18
HETATM   18  C   UNK N   1      20.410  13.795   3.090  0.00  0.00     0.032 A 
HETATM   19  C   UNK N   1      20.840  13.902   1.756  0.00  0.00     0.017 A 
HETATM   20  C   UNK N   1      20.145  13.290   0.713  0.00  0.00     0.007 A 
HETATM   21  C   UNK N   1      18.988  12.564   0.982  0.00  0.00    -0.062 A 
HETATM   22  C   UNK N   1      18.249  11.906  -0.129  0.00  0.00     0.048 C 
HETATM   23  C   UNK N   1      18.527  12.453   2.297  0.00  0.00     0.007 A 
HETATM   24  C   UNK N   1      19.238  13.057   3.342  0.00  0.00     0.017 A 
ENDBRANCH  16  18
BRANCH  15  25
HETATM   25  C   UNK N   1      20.130  16.630   3.979  0.00  0.00     0.129 C 
BRANCH  25  26
HETATM   26  C   UNK N   1      20.808  17.373   2.827  0.00  0.00     0.039 C 
BRANCH  26  27
HETATM   27  C   UNK N   1      19.755  17.947   1.903  0.00  0.00     0.112 C 
BRANCH  27  28
HETATM   28  N   UNK N   1      19.998  17.488   0.549  0.00  0.00    -0.430 N 
HETATM   29  H   UNK N   1      20.136  16.529   0.228  0.00  0.00     0.149 HD
HETATM   30  H   UNK N   1      20.036  18.211  -0.170  0.00  0.00     0.149 HD
ENDBRANCH  27  28
ENDBRANCH  26  27
ENDBRANCH  25  26
ENDBRANCH  15  25
ENDBRANCH  14  15
BRANCH  14  31
HETATM   31  C   UNK N   1      23.199  16.751   5.540  0.00  0.00     0.008 C 
HETATM   32  C   UNK N   1      23.176  18.261   5.394  0.00  0.00     0.012 C 
HETATM   33  C   UNK N   1      23.863  16.112   4.331  0.00  0.00     0.012 C 
ENDBRANCH  14  31
ENDBRANCH   1  14
BRANCH  13  34
HETATM   34  C   UNK N   1      19.389  16.013   7.589  0.00  0.00     0.172 C 
BRANCH  34  35
HETATM   35  C   UNK N   1      18.954  17.111   8.539  0.00  0.00    -0.040 A 
HETATM   36  C   UNK N   1      19.827  18.133   8.944  0.00  0.00     0.009 A 
HETATM   37  C   UNK N   1      19.445  19.055   9.924  0.00  0.00     0.001 A 
HETATM   38  C   UNK N   1      18.191  18.948  10.532  0.00  0.00     0.000 A 
HETATM   39  C   UNK N   1      17.319  17.926  10.147  0.00  0.00     0.001 A 
HETATM   40  C   UNK N   1      17.702  17.010   9.160  0.00  0.00     0.009 A 
ENDBRANCH  34  35
ENDBRANCH  13  34
TORSDOF 10
ENDMDL
MODEL 4
REMARK VINA RESULT:      -6.5      2.513      4.070
REMARK  10 active torsions:
REMARK  status: ('A' for Active; 'I' for Inactive)
REMARK    1  A    between atoms: C_5  and  C_8 
REMARK       I    between atoms: C_8  and  N_10 
REMARK    2  A    between atoms: N_10  and  C_11 
REMARK    3  A    between atoms: N_10  and  C_15 
REMARK    4  A    between atoms: C_11  and  C_12 
REMARK    5  A    between atoms: C_12  and  C_13 
REMARK    6  A    between atoms: C_13  and  N_14 
REMARK    7  A    between atoms: C_15  and  C_16 
REMARK    8  A    between atoms: C_15  and  C_36 
REMARK    9  A    between atoms: N_28  and  C_29 
REMARK   10  A    between atoms: C_29  and  C_30 
ROOT
HETATM    1  C   UNK N   1      24.180  15.941   4.611  0.00  0.00     0.111 A 
HETATM    2  N   UNK N   1      25.422  15.503   4.262  0.00  0.00    -0.336 N 
ATOM      3  HN  UNK N   1      25.589  14.505   4.135  1.00  0.00     0.168 HD
HETATM    4  C   UNK N   1      26.424  16.373   4.086  0.00  0.00     0.110 A 
HETATM    5  C   UNK N   1      26.278  17.723   4.233  0.00  0.00     0.090 A 
HETATM    6  C   UNK N   1      27.514  18.433   4.009  0.00  0.00     0.030 A 
HETATM    7  N   UNK N   1      28.591  17.639   3.707  0.00  0.00    -0.328 N 
ATOM      8  HN  UNK N   1      29.550  17.933   3.516  1.00  0.00     0.174 HD
HETATM    9  S   UNK N   1      27.991  16.103   3.721  0.00  0.00     0.005 SA
HETATM   10  C   UNK N   1      27.650  19.913   4.095  0.00  0.00     0.070 C 
HETATM   11  C   UNK N   1      25.020  18.209   4.588  0.00  0.00     0.264 A 
HETATM   12  O   UNK N   1      24.869  19.405   4.772  0.00  0.00    -0.267 OA
HETATM   13  N   UNK N   1      23.962  17.312   4.777  0.00  0.00    -0.297 N 
ENDROOT
BRANCH   1  14
HETATM   14  C   UNK N   1      23.085  14.891   4.891  0.00  0.00     0.159 C 
BRANCH  14  15
HETATM   15  N   UNK N   1      23.231  14.056   6.115  0.00  0.00    -0.336 N 
HETATM   16  C   UNK N   1      22.713  14.505   7.318  0.00  0.00     0.254 C 
HETATM   17  O   UNK N   1      22.182  15.606   7.354  0.00  0.00    -0.267 OA
BRANCH  16  18
HETATM   18  C   UNK N   1      22.743  13.719   8.611  0.00  0.00     0.032 A 
HETATM   19  C   UNK N   1      23.932  13.295   9.231  0.00  0.00     0.017 A 
HETATM   20  C   UNK N   1      23.917  12.608  10.446  0.00  0.00     0.007 A 
HETATM   21  C   UNK N   1      22.703  12.316  11.063  0.00  0.00    -0.062 A 
HETATM   22  C   UNK N   1      22.687  11.589  12.360  0.00  0.00     0.048 C 
HETATM   23  C   UNK N   1      21.506  12.712  10.462  0.00  0.00     0.007 A 
HETATM   24  C   UNK N   1      21.527  13.414   9.250  0.00  0.00     0.017 A 
ENDBRANCH  16  18
BRANCH  15  25
HETATM   25  C   UNK N   1      23.773  12.710   5.998  0.00  0.00     0.129 C 
BRANCH  25  26
HETATM   26  C   UNK N   1      25.302  12.729   5.996  0.00  0.00     0.039 C 
BRANCH  26  27
HETATM   27  C   UNK N   1      25.823  11.658   5.061  0.00  0.00     0.112 C 
BRANCH  27  28
HETATM   28  N   UNK N   1      25.729  12.126   3.691  0.00  0.00    -0.430 N 
HETATM   29  H   UNK N   1      26.480  12.480   3.097  0.00  0.00     0.149 HD
HETATM   30  H   UNK N   1      24.800  12.096   3.269  0.00  0.00     0.149 HD
ENDBRANCH  27  28
ENDBRANCH  26  27
ENDBRANCH  25  26
ENDBRANCH  15  25
ENDBRANCH  14  15
BRANCH  14  31
HETATM   31  C   UNK N   1      22.660  14.085   3.648  0.00  0.00     0.008 C 
HETATM   32  C   UNK N   1      22.888  14.880   2.375  0.00  0.00     0.012 C 
HETATM   33  C   UNK N   1      21.233  13.565   3.700  0.00  0.00     0.012 C 
ENDBRANCH  14  31
ENDBRANCH   1  14
BRANCH  13  34
HETATM   34  C   UNK N   1      22.662  17.808   5.277  0.00  0.00     0.172 C 
BRANCH  34  35
HETATM   35  C   UNK N   1      21.610  18.193   4.254  0.00  0.00    -0.040 A 
HETATM   36  C   UNK N   1      21.560  19.475   3.686  0.00  0.00     0.009 A 
HETATM   37  C   UNK N   1      20.502  19.847   2.849  0.00  0.00     0.001 A 
HETATM   38  C   UNK N   1      19.466  18.946   2.593  0.00  0.00     0.000 A 
HETATM   39  C   UNK N   1      19.498  17.671   3.164  0.00  0.00     0.001 A 
HETATM   40  C   UNK N   1      20.562  17.300   3.995  0.00  0.00     0.009 A 
ENDBRANCH  34  35
ENDBRANCH  13  34
TORSDOF 10
ENDMDL
MODEL 5
REMARK VINA RESULT:      -6.5      2.108      3.129
REMARK  10 active torsions:
REMARK  status: ('A' for Active; 'I' for Inactive)
REMARK    1  A    between atoms: C_5  and  C_8 
REMARK       I    between atoms: C_8  and  N_10 
REMARK    2  A    between atoms: N_10  and  C_11 
REMARK    3  A    between atoms: N_10  and  C_15 
REMARK    4  A    between atoms: C_11  and  C_12 
REMARK    5  A    between atoms: C_12  and  C_13 
REMARK    6  A    between atoms: C_13  and  N_14 
REMARK    7  A    between atoms: C_15  and  C_16 
REMARK    8  A    between atoms: C_15  and  C_36 
REMARK    9  A    between atoms: N_28  and  C_29 
REMARK   10  A    between atoms: C_29  and  C_30 
ROOT
HETATM    1  C   UNK N   1      22.493  14.432   4.316  0.00  0.00     0.111 A 
HETATM    2  N   UNK N   1      22.796  15.592   4.961  0.00  0.00    -0.336 N 
ATOM      3  HN  UNK N   1      23.532  15.601   5.667  1.00  0.00     0.168 HD
HETATM    4  C   UNK N   1      22.133  16.720   4.676  0.00  0.00     0.110 A 
HETATM    5  C   UNK N   1      21.140  16.789   3.741  0.00  0.00     0.090 A 
HETATM    6  C   UNK N   1      20.575  18.114   3.643  0.00  0.00     0.030 A 
HETATM    7  N   UNK N   1      21.119  19.040   4.496  0.00  0.00    -0.328 N 
ATOM      8  HN  UNK N   1      20.867  20.024   4.591  1.00  0.00     0.174 HD
HETATM    9  S   UNK N   1      22.270  18.207   5.332  0.00  0.00     0.005 SA
HETATM   10  C   UNK N   1      19.481  18.482   2.703  0.00  0.00     0.070 C 
HETATM   11  C   UNK N   1      20.804  15.621   3.058  0.00  0.00     0.264 A 
HETATM   12  O   UNK N   1      19.890  15.640   2.251  0.00  0.00    -0.267 OA
HETATM   13  N   UNK N   1      21.486  14.433   3.346  0.00  0.00    -0.297 N 
ENDROOT
BRANCH   1  14
HETATM   14  C   UNK N   1      23.223  13.142   4.745  0.00  0.00     0.159 C 
BRANCH  14  15
HETATM   15  N   UNK N   1      23.009  12.666   6.140  0.00  0.00    -0.336 N 
HETATM   16  C   UNK N   1      23.618  13.329   7.193  0.00  0.00     0.254 C 
HETATM   17  O   UNK N   1      24.357  14.271   6.944  0.00  0.00    -0.267 OA
BRANCH  16  18
HETATM   18  C   UNK N   1      23.425  12.980   8.653  0.00  0.00     0.032 A 
HETATM   19  C   UNK N   1      22.193  13.097   9.319  0.00  0.00     0.017 A 
HETATM   20  C   UNK N   1      22.047  12.723  10.656  0.00  0.00     0.007 A 
HETATM   21  C   UNK N   1      23.143  12.234  11.363  0.00  0.00    -0.062 A 
HETATM   22  C   UNK N   1      22.988  11.831  12.786  0.00  0.00     0.048 C 
HETATM   23  C   UNK N   1      24.384  12.122  10.730  0.00  0.00     0.007 A 
HETATM   24  C   UNK N   1      24.520  12.484   9.384  0.00  0.00     0.017 A 
ENDBRANCH  16  18
BRANCH  15  25
HETATM   25  C   UNK N   1      22.036  11.613   6.392  0.00  0.00     0.129 C 
BRANCH  25  26
HETATM   26  C   UNK N   1      22.549  10.259   5.898  0.00  0.00     0.039 C 
BRANCH  26  27
HETATM   27  C   UNK N   1      23.540   9.696   6.895  0.00  0.00     0.112 C 
BRANCH  27  28
HETATM   28  N   UNK N   1      23.355   8.261   7.001  0.00  0.00    -0.430 N 
HETATM   29  H   UNK N   1      24.035   7.526   6.805  0.00  0.00     0.149 HD
HETATM   30  H   UNK N   1      22.434   7.949   7.310  0.00  0.00     0.149 HD
ENDBRANCH  27  28
ENDBRANCH  26  27
ENDBRANCH  25  26
ENDBRANCH  15  25
ENDBRANCH  14  15
BRANCH  14  31
HETATM   31  C   UNK N   1      24.695  13.078   4.297  0.00  0.00     0.008 C 
HETATM   32  C   UNK N   1      25.004  14.158   3.276  0.00  0.00     0.012 C 
HETATM   33  C   UNK N   1      25.130  11.718   3.778  0.00  0.00     0.012 C 
ENDBRANCH  14  31
ENDBRANCH   1  14
BRANCH  13  34
HETATM   34  C   UNK N   1      21.048  13.167   2.719  0.00  0.00     0.172 C 
BRANCH  34  35
HETATM   35  C   UNK N   1      21.906  12.594   1.608  0.00  0.00    -0.040 A 
HETATM   36  C   UNK N   1      22.209  11.225   1.533  0.00  0.00     0.009 A 
HETATM   37  C   UNK N   1      23.110  10.742   0.578  0.00  0.00     0.001 A 
HETATM   38  C   UNK N   1      23.741  11.630  -0.297  0.00  0.00     0.000 A 
HETATM   39  C   UNK N   1      23.458  12.996  -0.223  0.00  0.00     0.001 A 
HETATM   40  C   UNK N   1      22.549  13.475   0.728  0.00  0.00     0.009 A 
ENDBRANCH  34  35
ENDBRANCH  13  34
TORSDOF 10
ENDMDL
MODEL 6
REMARK VINA RESULT:      -6.4      2.738      4.871
REMARK  10 active torsions:
REMARK  status: ('A' for Active; 'I' for Inactive)
REMARK    1  A    between atoms: C_5  and  C_8 
REMARK       I    between atoms: C_8  and  N_10 
REMARK    2  A    between atoms: N_10  and  C_11 
REMARK    3  A    between atoms: N_10  and  C_15 
REMARK    4  A    between atoms: C_11  and  C_12 
REMARK    5  A    between atoms: C_12  and  C_13 
REMARK    6  A    between atoms: C_13  and  N_14 
REMARK    7  A    between atoms: C_15  and  C_16 
REMARK    8  A    between atoms: C_15  and  C_36 
REMARK    9  A    between atoms: N_28  and  C_29 
REMARK   10  A    between atoms: C_29  and  C_30 
ROOT
HETATM    1  C   UNK N   1      21.896  12.880   3.948  0.00  0.00     0.111 A 
HETATM    2  N   UNK N   1      21.815  11.532   4.128  0.00  0.00    -0.336 N 
ATOM      3  HN  UNK N   1      21.295  11.158   4.921  1.00  0.00     0.168 HD
HETATM    4  C   UNK N   1      22.415  10.697   3.271  0.00  0.00     0.110 A 
HETATM    5  C   UNK N   1      23.125  11.120   2.184  0.00  0.00     0.090 A 
HETATM    6  C   UNK N   1      23.687  10.021   1.437  0.00  0.00     0.030 A 
HETATM    7  N   UNK N   1      23.422   8.777   1.950  0.00  0.00    -0.328 N 
ATOM      8  HN  UNK N   1      23.724   7.873   1.584  1.00  0.00     0.174 HD
HETATM    9  S   UNK N   1      22.509   9.068   3.292  0.00  0.00     0.005 SA
HETATM   10  C   UNK N   1      24.503  10.187   0.203  0.00  0.00     0.070 C 
HETATM   11  C   UNK N   1      23.228  12.494   1.967  0.00  0.00     0.264 A 
HETATM   12  O   UNK N   1      23.893  12.905   1.031  0.00  0.00    -0.267 OA
HETATM   13  N   UNK N   1      22.607  13.381   2.854  0.00  0.00    -0.297 N 
ENDROOT
BRANCH   1  14
HETATM   14  C   UNK N   1      21.264  13.800   5.013  0.00  0.00     0.159 C 
BRANCH  14  15
HETATM   15  N   UNK N   1      21.787  13.699   6.404  0.00  0.00    -0.336 N 
HETATM   16  C   UNK N   1      21.371  12.659   7.219  0.00  0.00     0.254 C 
HETATM   17  O   UNK N   1      20.543  11.869   6.787  0.00  0.00    -0.267 OA
BRANCH  16  18
HETATM   18  C   UNK N   1      21.880  12.415   8.624  0.00  0.00     0.032 A 
HETATM   19  C   UNK N   1      23.126  11.830   8.903  0.00  0.00     0.017 A 
HETATM   20  C   UNK N   1      23.577  11.661  10.214  0.00  0.00     0.007 A 
HETATM   21  C   UNK N   1      22.777  12.065  11.280  0.00  0.00    -0.062 A 
HETATM   22  C   UNK N   1      23.258  11.890  12.676  0.00  0.00     0.048 C 
HETATM   23  C   UNK N   1      21.526  12.635  11.032  0.00  0.00     0.007 A 
HETATM   24  C   UNK N   1      21.085  12.815   9.714  0.00  0.00     0.017 A 
ENDBRANCH  16  18
BRANCH  15  25
HETATM   25  C   UNK N   1      22.849  14.597   6.833  0.00  0.00     0.129 C 
BRANCH  25  26
HETATM   26  C   UNK N   1      22.565  16.035   6.397  0.00  0.00     0.039 C 
BRANCH  26  27
HETATM   27  C   UNK N   1      23.768  16.591   5.664  0.00  0.00     0.112 C 
BRANCH  27  28
HETATM   28  N   UNK N   1      23.602  18.020   5.478  0.00  0.00    -0.430 N 
HETATM   29  H   UNK N   1      24.236  18.766   5.762  0.00  0.00     0.149 HD
HETATM   30  H   UNK N   1      22.747  18.314   5.004  0.00  0.00     0.149 HD
ENDBRANCH  27  28
ENDBRANCH  26  27
ENDBRANCH  25  26
ENDBRANCH  15  25
ENDBRANCH  14  15
BRANCH  14  31
HETATM   31  C   UNK N   1      19.727  13.875   4.942  0.00  0.00     0.008 C 
HETATM   32  C   UNK N   1      19.215  13.377   3.603  0.00  0.00     0.012 C 
HETATM   33  C   UNK N   1      19.155  15.249   5.250  0.00  0.00     0.012 C 
ENDBRANCH  14  31
ENDBRANCH   1  14
BRANCH  13  34
HETATM   34  C   UNK N   1      22.819  14.837   2.702  0.00  0.00     0.172 C 
BRANCH  34  35
HETATM   35  C   UNK N   1      21.655  15.673   2.205  0.00  0.00    -0.040 A 
HETATM   36  C   UNK N   1      20.974  15.369   1.016  0.00  0.00     0.009 A 
HETATM   37  C   UNK N   1      19.995  16.231   0.510  0.00  0.00     0.001 A 
HETATM   38  C   UNK N   1      19.705  17.424   1.177  0.00  0.00     0.000 A 
HETATM   39  C   UNK N   1      20.387  17.745   2.354  0.00  0.00     0.001 A 
HETATM   40  C   UNK N   1      21.360  16.876   2.861  0.00  0.00     0.009 A 
ENDBRANCH  34  35
ENDBRANCH  13  34
TORSDOF 10
ENDMDL
MODEL 7
REMARK VINA RESULT:      -6.3      4.112      6.740
REMARK  10 active torsions:
REMARK  status: ('A' for Active; 'I' for Inactive)
REMARK    1  A    between atoms: C_5  and  C_8 
REMARK       I    between atoms: C_8  and  N_10 
REMARK    2  A    between atoms: N_10  and  C_11 
REMARK    3  A    between atoms: N_10  and  C_15 
REMARK    4  A    between atoms: C_11  and  C_12 
REMARK    5  A    between atoms: C_12  and  C_13 
REMARK    6  A    between atoms: C_13  and  N_14 
REMARK    7  A    between atoms: C_15  and  C_16 
REMARK    8  A    between atoms: C_15  and  C_36 
REMARK    9  A    between atoms: N_28  and  C_29 
REMARK   10  A    between atoms: C_29  and  C_30 
ROOT
HETATM    1  C   UNK N   1      27.325  15.680   4.124  0.00  0.00     0.111 A 
HETATM    2  N   UNK N   1      28.191  14.793   3.560  0.00  0.00    -0.336 N 
ATOM      3  HN  UNK N   1      27.844  13.904   3.202  1.00  0.00     0.168 HD
HETATM    4  C   UNK N   1      29.496  15.082   3.473  0.00  0.00     0.110 A 
HETATM    5  C   UNK N   1      30.037  16.252   3.923  0.00  0.00     0.090 A 
HETATM    6  C   UNK N   1      31.466  16.303   3.730  0.00  0.00     0.030 A 
HETATM    7  N   UNK N   1      32.012  15.186   3.151  0.00  0.00    -0.328 N 
ATOM      8  HN  UNK N   1      32.993  15.013   2.929  1.00  0.00     0.174 HD
HETATM    9  S   UNK N   1      30.729  14.182   2.895  0.00  0.00     0.005 SA
HETATM   10  C   UNK N   1      32.316  17.460   4.121  0.00  0.00     0.070 C 
HETATM   11  C   UNK N   1      29.179  17.185   4.506  0.00  0.00     0.264 A 
HETATM   12  O   UNK N   1      29.638  18.219   4.959  0.00  0.00    -0.267 OA
HETATM   13  N   UNK N   1      27.813  16.899   4.606  0.00  0.00    -0.297 N 
ENDROOT
BRANCH   1  14
HETATM   14  C   UNK N   1      25.848  15.262   4.282  0.00  0.00     0.159 C 
BRANCH  14  15
HETATM   15  N   UNK N   1      25.514  14.335   5.399  0.00  0.00    -0.336 N 
HETATM   16  C   UNK N   1      24.662  14.756   6.408  0.00  0.00     0.254 C 
HETATM   17  O   UNK N   1      24.238  15.902   6.377  0.00  0.00    -0.267 OA
BRANCH  16  18
HETATM   18  C   UNK N   1      24.200  13.886   7.557  0.00  0.00     0.032 A 
HETATM   19  C   UNK N   1      25.037  13.491   8.614  0.00  0.00     0.017 A 
HETATM   20  C   UNK N   1      24.559  12.724   9.677  0.00  0.00     0.007 A 
HETATM   21  C   UNK N   1      23.227  12.318   9.696  0.00  0.00    -0.062 A 
HETATM   22  C   UNK N   1      22.715  11.504  10.831  0.00  0.00     0.048 C 
HETATM   23  C   UNK N   1      22.375  12.682   8.650  0.00  0.00     0.007 A 
HETATM   24  C   UNK N   1      22.857  13.466   7.593  0.00  0.00     0.017 A 
ENDBRANCH  16  18
BRANCH  15  25
HETATM   25  C   UNK N   1      25.956  12.950   5.332  0.00  0.00     0.129 C 
BRANCH  25  26
HETATM   26  C   UNK N   1      24.858  12.048   4.770  0.00  0.00     0.039 C 
BRANCH  26  27
HETATM   27  C   UNK N   1      24.857  10.726   5.509  0.00  0.00     0.112 C 
BRANCH  27  28
HETATM   28  N   UNK N   1      23.500  10.391   5.897  0.00  0.00    -0.430 N 
HETATM   29  H   UNK N   1      22.747  11.029   6.156  0.00  0.00     0.149 HD
HETATM   30  H   UNK N   1      23.271   9.397   5.914  0.00  0.00     0.149 HD
ENDBRANCH  27  28
ENDBRANCH  26  27
ENDBRANCH  25  26
ENDBRANCH  15  25
ENDBRANCH  14  15
BRANCH  14  31
HETATM   31  C   UNK N   1      25.158  14.893   2.955  0.00  0.00     0.008 C 
HETATM   32  C   UNK N   1      25.791  15.625   1.786  0.00  0.00     0.012 C 
HETATM   33  C   UNK N   1      23.652  15.101   2.958  0.00  0.00     0.012 C 
ENDBRANCH  14  31
ENDBRANCH   1  14
BRANCH  13  34
HETATM   34  C   UNK N   1      26.922  17.826   5.335  0.00  0.00     0.172 C 
BRANCH  34  35
HETATM   35  C   UNK N   1      26.121  18.825   4.522  0.00  0.00    -0.040 A 
HETATM   36  C   UNK N   1      24.730  18.714   4.368  0.00  0.00     0.009 A 
HETATM   37  C   UNK N   1      24.034  19.567   3.505  0.00  0.00     0.001 A 
HETATM   38  C   UNK N   1      24.728  20.526   2.764  0.00  0.00     0.000 A 
HETATM   39  C   UNK N   1      26.115  20.637   2.898  0.00  0.00     0.001 A 
HETATM   40  C   UNK N   1      26.807  19.787   3.769  0.00  0.00     0.009 A 
ENDBRANCH  34  35
ENDBRANCH  13  34
TORSDOF 10
ENDMDL
MODEL 8
REMARK VINA RESULT:      -6.3      3.485      6.214
REMARK  10 active torsions:
REMARK  status: ('A' for Active; 'I' for Inactive)
REMARK    1  A    between atoms: C_5  and  C_8 
REMARK       I    between atoms: C_8  and  N_10 
REMARK    2  A    between atoms: N_10  and  C_11 
REMARK    3  A    between atoms: N_10  and  C_15 
REMARK    4  A    between atoms: C_11  and  C_12 
REMARK    5  A    between atoms: C_12  and  C_13 
REMARK    6  A    between atoms: C_13  and  N_14 
REMARK    7  A    between atoms: C_15  and  C_16 
REMARK    8  A    between atoms: C_15  and  C_36 
REMARK    9  A    between atoms: N_28  and  C_29 
REMARK   10  A    between atoms: C_29  and  C_30 
ROOT
HETATM    1  C   UNK N   1      23.127  16.004   5.797  0.00  0.00     0.111 A 
HETATM    2  N   UNK N   1      22.620  15.030   6.601  0.00  0.00    -0.336 N 
ATOM      3  HN  UNK N   1      23.004  14.086   6.557  1.00  0.00     0.168 HD
HETATM    4  C   UNK N   1      21.619  15.301   7.448  0.00  0.00     0.110 A 
HETATM    5  C   UNK N   1      21.055  16.539   7.570  0.00  0.00     0.090 A 
HETATM    6  C   UNK N   1      19.983  16.557   8.536  0.00  0.00     0.030 A 
HETATM    7  N   UNK N   1      19.723  15.352   9.136  0.00  0.00    -0.328 N 
ATOM      8  HN  UNK N   1      19.013  15.144   9.839  1.00  0.00     0.174 HD
HETATM    9  S   UNK N   1      20.815  14.312   8.467  0.00  0.00     0.005 SA
HETATM   10  C   UNK N   1      19.194  17.773   8.877  0.00  0.00     0.070 C 
HETATM   11  C   UNK N   1      21.550  17.563   6.763  0.00  0.00     0.264 A 
HETATM   12  O   UNK N   1      21.037  18.668   6.815  0.00  0.00    -0.267 OA
HETATM   13  N   UNK N   1      22.595  17.296   5.871  0.00  0.00    -0.297 N 
ENDROOT
BRANCH   1  14
HETATM   14  C   UNK N   1      24.216  15.619   4.775  0.00  0.00     0.159 C 
BRANCH  14  15
HETATM   15  N   UNK N   1      25.588  16.153   5.001  0.00  0.00    -0.336 N 
HETATM   16  C   UNK N   1      26.372  15.623   6.012  0.00  0.00     0.254 C 
HETATM   17  O   UNK N   1      25.898  14.752   6.728  0.00  0.00    -0.267 OA
BRANCH  16  18
HETATM   18  C   UNK N   1      27.800  16.037   6.295  0.00  0.00     0.032 A 
HETATM   19  C   UNK N   1      28.907  15.520   5.601  0.00  0.00     0.017 A 
HETATM   20  C   UNK N   1      30.205  15.961   5.864  0.00  0.00     0.007 A 
HETATM   21  C   UNK N   1      30.425  16.925   6.844  0.00  0.00    -0.062 A 
HETATM   22  C   UNK N   1      31.808  17.399   7.121  0.00  0.00     0.048 C 
HETATM   23  C   UNK N   1      29.345  17.446   7.562  0.00  0.00     0.007 A 
HETATM   24  C   UNK N   1      28.043  17.010   7.283  0.00  0.00     0.017 A 
ENDBRANCH  16  18
BRANCH  15  25
HETATM   25  C   UNK N   1      26.144  17.109   4.056  0.00  0.00     0.129 C 
BRANCH  25  26
HETATM   26  C   UNK N   1      26.128  18.526   4.630  0.00  0.00     0.039 C 
BRANCH  26  27
HETATM   27  C   UNK N   1      27.150  19.379   3.910  0.00  0.00     0.112 C 
BRANCH  27  28
HETATM   28  N   UNK N   1      28.479  18.850   4.154  0.00  0.00    -0.430 N 
HETATM   29  H   UNK N   1      29.346  19.086   3.670  0.00  0.00     0.149 HD
HETATM   30  H   UNK N   1      28.556  18.159   4.901  0.00  0.00     0.149 HD
ENDBRANCH  27  28
ENDBRANCH  26  27
ENDBRANCH  25  26
ENDBRANCH  15  25
ENDBRANCH  14  15
BRANCH  14  31
HETATM   31  C   UNK N   1      23.757  15.714   3.307  0.00  0.00     0.008 C 
HETATM   32  C   UNK N   1      22.380  15.105   3.123  0.00  0.00     0.012 C 
HETATM   33  C   UNK N   1      24.737  15.120   2.308  0.00  0.00     0.012 C 
ENDBRANCH  14  31
ENDBRANCH   1  14
BRANCH  13  34
HETATM   34  C   UNK N   1      23.036  18.343   4.926  0.00  0.00     0.172 C 
BRANCH  34  35
HETATM   35  C   UNK N   1      22.037  18.835   3.897  0.00  0.00    -0.040 A 
HETATM   36  C   UNK N   1      20.902  18.088   3.546  0.00  0.00     0.009 A 
HETATM   37  C   UNK N   1      20.069  18.499   2.499  0.00  0.00     0.001 A 
HETATM   38  C   UNK N   1      20.379  19.652   1.773  0.00  0.00     0.000 A 
HETATM   39  C   UNK N   1      21.515  20.396   2.104  0.00  0.00     0.001 A 
HETATM   40  C   UNK N   1      22.341  19.986   3.157  0.00  0.00     0.009 A 
ENDBRANCH  34  35
ENDBRANCH  13  34
TORSDOF 10
ENDMDL
MODEL 9
REMARK VINA RESULT:      -6.3      2.370      3.884
REMARK  10 active torsions:
REMARK  status: ('A' for Active; 'I' for Inactive)
REMARK    1  A    between atoms: C_5  and  C_8 
REMARK       I    between atoms: C_8  and  N_10 
REMARK    2  A    between atoms: N_10  and  C_11 
REMARK    3  A    between atoms: N_10  and  C_15 
REMARK    4  A    between atoms: C_11  and  C_12 
REMARK    5  A    between atoms: C_12  and  C_13 
REMARK    6  A    between atoms: C_13  and  N_14 
REMARK    7  A    between atoms: C_15  and  C_16 
REMARK    8  A    between atoms: C_15  and  C_36 
REMARK    9  A    between atoms: N_28  and  C_29 
REMARK   10  A    between atoms: C_29  and  C_30 
ROOT
HETATM    1  C   UNK N   1      22.852  15.061   3.389  0.00  0.00     0.111 A 
HETATM    2  N   UNK N   1      22.301  16.300   3.268  0.00  0.00    -0.336 N 
ATOM      3  HN  UNK N   1      22.690  17.080   3.798  1.00  0.00     0.168 HD
HETATM    4  C   UNK N   1      21.253  16.501   2.460  0.00  0.00     0.110 A 
HETATM    5  C   UNK N   1      20.680  15.511   1.715  0.00  0.00     0.090 A 
HETATM    6  C   UNK N   1      19.554  15.987   0.948  0.00  0.00     0.030 A 
HETATM    7  N   UNK N   1      19.263  17.317   1.111  0.00  0.00    -0.328 N 
ATOM      8  HN  UNK N   1      18.513  17.851   0.670  1.00  0.00     0.174 HD
HETATM    9  S   UNK N   1      20.393  17.860   2.182  0.00  0.00     0.005 SA
HETATM   10  C   UNK N   1      18.743  15.127   0.043  0.00  0.00     0.070 C 
HETATM   11  C   UNK N   1      21.218  14.228   1.812  0.00  0.00     0.264 A 
HETATM   12  O   UNK N   1      20.700  13.312   1.195  0.00  0.00    -0.267 OA
HETATM   13  N   UNK N   1      22.313  14.000   2.653  0.00  0.00    -0.297 N 
ENDROOT
BRANCH   1  14
HETATM   14  C   UNK N   1      23.999  14.863   4.401  0.00  0.00     0.159 C 
BRANCH  14  15
HETATM   15  N   UNK N   1      23.625  14.572   5.813  0.00  0.00    -0.336 N 
HETATM   16  C   UNK N   1      24.039  13.388   6.402  0.00  0.00     0.254 C 
HETATM   17  O   UNK N   1      24.669  12.586   5.727  0.00  0.00    -0.267 OA
BRANCH  16  18
HETATM   18  C   UNK N   1      23.777  13.012   7.844  0.00  0.00     0.032 A 
HETATM   19  C   UNK N   1      22.563  12.464   8.292  0.00  0.00     0.017 A 
HETATM   20  C   UNK N   1      22.377  12.091   9.624  0.00  0.00     0.007 A 
HETATM   21  C   UNK N   1      23.405  12.273  10.546  0.00  0.00    -0.062 A 
HETATM   22  C   UNK N   1      23.210  11.871  11.964  0.00  0.00     0.048 C 
HETATM   23  C   UNK N   1      24.618  12.831  10.132  0.00  0.00     0.007 A 
HETATM   24  C   UNK N   1      24.803  13.189   8.790  0.00  0.00     0.017 A 
ENDBRANCH  16  18
BRANCH  15  25
HETATM   25  C   UNK N   1      22.971  15.604   6.603  0.00  0.00     0.129 C 
BRANCH  25  26
HETATM   26  C   UNK N   1      21.455  15.404   6.623  0.00  0.00     0.039 C 
BRANCH  26  27
HETATM   27  C   UNK N   1      20.782  16.665   7.125  0.00  0.00     0.112 C 
BRANCH  27  28
HETATM   28  N   UNK N   1      19.395  16.380   7.440  0.00  0.00    -0.430 N 
HETATM   29  H   UNK N   1      18.956  15.467   7.566  0.00  0.00     0.149 HD
HETATM   30  H   UNK N   1      18.785  17.190   7.550  0.00  0.00     0.149 HD
ENDBRANCH  27  28
ENDBRANCH  26  27
ENDBRANCH  25  26
ENDBRANCH  15  25
ENDBRANCH  14  15
BRANCH  14  31
HETATM   31  C   UNK N   1      25.133  15.899   4.270  0.00  0.00     0.008 C 
HETATM   32  C   UNK N   1      25.722  15.892   2.872  0.00  0.00     0.012 C 
HETATM   33  C   UNK N   1      26.232  15.754   5.309  0.00  0.00     0.012 C 
ENDBRANCH  14  31
ENDBRANCH   1  14
BRANCH  13  34
HETATM   34  C   UNK N   1      22.806  12.621   2.856  0.00  0.00     0.172 C 
BRANCH  34  35
HETATM   35  C   UNK N   1      21.992  11.702   3.746  0.00  0.00    -0.040 A 
HETATM   36  C   UNK N   1      21.046  12.195   4.658  0.00  0.00     0.009 A 
HETATM   37  C   UNK N   1      20.406  11.339   5.561  0.00  0.00     0.001 A 
HETATM   38  C   UNK N   1      20.727   9.979   5.578  0.00  0.00     0.000 A 
HETATM   39  C   UNK N   1      21.678   9.479   4.685  0.00  0.00     0.001 A 
HETATM   40  C   UNK N   1      22.309  10.337   3.777  0.00  0.00     0.009 A 
ENDBRANCH  34  35
ENDBRANCH  13  34
TORSDOF 10
ENDMDL
