REMARK  2 active torsions:
REMARK  status: ('A' for Active; 'I' for Inactive)
REMARK    1  A    between atoms: C_23  and  C_24 
REMARK    2  A    between atoms: C_33  and  O_41 
ROOT
HETATM    1  C   UNK N   1       2.103  -4.911   0.191  0.00  0.00     0.153 C 
HETATM    2  N   UNK N   1       2.866  -3.759  -0.252  0.00  0.00    -0.350 N 
HETATM    3  C   UNK N   1       2.340  -2.978  -1.346  0.00  0.00     0.151 C 
HETATM    4  C   UNK N   1       0.876  -2.583  -1.133  0.00  0.00     0.187 C 
HETATM    5  O   UNK N   1       0.709  -1.852   0.046  0.00  0.00    -0.388 OA
HETATM    6  C   UNK N   1      -0.459  -2.359   0.630  0.00  0.00     0.183 C 
HETATM    7  C   UNK N   1      -1.616  -1.373   0.484  0.00  0.00     0.134 C 
HETATM    8  N   UNK N   1      -1.255  -0.096   1.075  0.00  0.00    -0.195 NA
HETATM    9  S   UNK N   1      -1.619   1.206  -0.063  0.00  0.00     0.305 S 
HETATM   10  O   UNK N   1      -2.690   0.811  -1.093  0.00  0.00    -0.188 OA
HETATM   11  O   UNK N   1      -2.107   2.470   0.671  0.00  0.00    -0.188 OA
HETATM   12  N   UNK N   1      -0.095   1.509  -0.855  0.00  0.00    -0.237 N 
HETATM   13  C   UNK N   1       0.784   2.366  -0.303  0.00  0.00     0.266 C 
HETATM   14  O   UNK N   1       0.437   3.100   0.613  0.00  0.00    -0.267 OA
HETATM   15  C   UNK N   1       2.200   2.309  -0.641  0.00  0.00     0.035 A 
HETATM   16  C   UNK N   1       2.966   3.453  -0.358  0.00  0.00     0.018 A 
HETATM   17  C   UNK N   1       4.348   3.396  -0.345  0.00  0.00     0.015 A 
HETATM   18  C   UNK N   1       4.938   2.162  -0.540  0.00  0.00    -0.000 A 
HETATM   19  C   UNK N   1       4.228   1.024  -0.827  0.00  0.00     0.047 A 
HETATM   20  C   UNK N   1       2.830   1.063  -0.923  0.00  0.00     0.047 A 
HETATM   21  N   UNK N   1       5.062  -0.045  -0.873  0.00  0.00    -0.340 N 
HETATM   22  C   UNK N   1       6.303   0.430  -0.573  0.00  0.00     0.054 A 
HETATM   23  C   UNK N   1       6.245   1.815  -0.385  0.00  0.00    -0.014 A 
HETATM   24  C   UNK N   1       7.531  -0.368  -0.348  0.00  0.00     0.002 A 
HETATM   25  C   UNK N   1       8.764   0.300  -0.432  0.00  0.00     0.017 A 
HETATM   26  C   UNK N   1       9.957  -0.315  -0.080  0.00  0.00     0.037 A 
HETATM   27  C   UNK N   1       9.949  -1.618   0.394  0.00  0.00     0.069 A 
HETATM   28  C   UNK N   1       8.730  -2.312   0.475  0.00  0.00     0.049 A 
HETATM   29  C   UNK N   1       7.518  -1.713   0.097  0.00  0.00    -0.020 A 
HETATM   30  C   UNK N   1       6.310  -2.529   0.338  0.00  0.00     0.027 C 
HETATM   31  C   UNK N   1       5.052  -2.434  -0.135  0.00  0.00     0.029 C 
HETATM   32  C   UNK N   1       4.703  -1.427  -1.196  0.00  0.00     0.174 C 
HETATM   33  C   UNK N   1       4.099  -3.526   0.318  0.00  0.00     0.251 C 
HETATM   34  O   UNK N   1       4.480  -4.270   1.207  0.00  0.00    -0.268 OA
HETATM   35  C   UNK N   1      -1.930   0.102   2.343  0.00  0.00     0.131 C 
HETATM   36  H   UNK N   1       0.121   1.056  -1.701  0.00  0.00     0.183 HD
ENDROOT
BRANCH  23  37
HETATM   37  C   UNK N   1       7.340   2.731   0.092  0.00  0.00     0.022 C 
HETATM   38  C   UNK N   1       6.907   3.614   1.281  0.00  0.00     0.009 C 
HETATM   39  C   UNK N   1       6.865   5.093   0.892  0.00  0.00     0.001 C 
HETATM   40  C   UNK N   1       8.241   5.564   0.402  0.00  0.00     0.000 C 
HETATM   41  C   UNK N   1       8.996   4.507  -0.422  0.00  0.00     0.001 C 
HETATM   42  C   UNK N   1       8.035   3.492  -1.035  0.00  0.00     0.009 C 
ENDBRANCH  23  37
BRANCH  27  43
HETATM   43  O   UNK N   1      11.117  -2.174   0.791  0.00  0.00    -0.356 OA
HETATM   44  C   UNK N   1      11.202  -3.421   1.364  0.00  0.00     0.210 C 
ENDBRANCH  27  43
TORSDOF 2
