REMARK  5 active torsions:
REMARK  status: ('A' for Active; 'I' for Inactive)
REMARK    1  A    between atoms: C_2  and  N_4 
REMARK    2  A    between atoms: N_4  and  P_5 
REMARK    3  A    between atoms: P_5  and  O_7 
REMARK    4  A    between atoms: P_5  and  O_9 
REMARK    5  A    between atoms: O_9  and  C_10 
ROOT
HETATM    1  P   UNK N   1       0.347   3.334   0.063  0.00  0.00     0.289 P 
HETATM    2  S   UNK N   1      -0.175   2.856  -1.567  0.00  0.00    -0.015 SA
ENDROOT
BRANCH   1   3
HETATM    3  N   UNK N   1      -1.087   3.853   1.051  0.00  0.00    -0.346 N 
HETATM    4  H   UNK N   1      -1.295   3.452   1.965  0.00  0.00     0.163 HD
BRANCH   3   5
HETATM    5  C   UNK N   1      -1.925   4.893   0.436  0.00  0.00     0.076 C 
HETATM    6  C   UNK N   1      -2.967   4.302  -0.492  0.00  0.00     0.032 C 
HETATM    7  C   UNK N   1      -1.153   6.028  -0.218  0.00  0.00     0.032 C 
ENDBRANCH   3   5
ENDBRANCH   1   3
BRANCH   1   8
HETATM    8  O   UNK N   1       1.444   4.682  -0.083  0.00  0.00    -0.324 OA
HETATM    9  C   UNK N   1       2.677   4.137  -0.444  0.00  0.00     0.212 C 
ENDBRANCH   1   8
BRANCH   1  10
HETATM   10  O   UNK N   1       1.130   2.029   0.889  0.00  0.00    -0.275 OA
BRANCH  10  11
HETATM   11  C   UNK N   1       1.184   0.734   0.488  0.00  0.00     0.100 A 
HETATM   12  C   UNK N   1       2.440   0.118   0.429  0.00  0.00     0.040 A 
HETATM   13  C   UNK N   1       2.562  -1.222   0.055  0.00  0.00     0.026 A 
HETATM   14  C   UNK N   1       1.423  -1.965  -0.254  0.00  0.00     0.035 A 
HETATM   15  C   UNK N   1       0.162  -1.373  -0.180  0.00  0.00     0.050 A 
HETATM   16 Cl   UNK N   1       1.574  -3.650  -0.707  0.00  0.00    -0.084 Cl
HETATM   17  C   UNK N   1       0.027  -0.029   0.189  0.00  0.00     0.069 A 
HETATM   18 Cl   UNK N   1      -1.601   0.611   0.347  0.00  0.00    -0.081 Cl
ENDBRANCH  10  11
ENDBRANCH   1  10
TORSDOF 5
