MODEL 1
REMARK VINA RESULT:      -7.8      0.000      0.000
REMARK  11 active torsions:
REMARK  status: ('A' for Active; 'I' for Inactive)
REMARK    1  A    between atoms: C_2  and  O_3 
REMARK    2  A    between atoms: O_3  and  C_4 
REMARK    3  A    between atoms: C_9  and  N_10 
REMARK       I    between atoms: N_10  and  C_11 
REMARK    4  A    between atoms: C_11  and  C_13 
REMARK    5  A    between atoms: C_14  and  C_15 
REMARK    6  A    between atoms: C_15  and  N_16 
REMARK    7  A    between atoms: C_19  and  N_26 
REMARK    8  A    between atoms: N_26  and  C_27 
REMARK    9  A    between atoms: C_30  and  O_34 
REMARK   10  A    between atoms: O_34  and  C_35 
REMARK   11  A    between atoms: C_35  and  C_36 
ROOT
HETATM    1  C   UNK N   1      21.596  19.091   4.783  0.00  0.00     0.097 C 
HETATM    2  C   UNK N   1      21.165  18.293   5.863  0.00  0.00     0.069 C 
HETATM    3  C   UNK N   1      21.859  17.162   6.217  0.00  0.00     0.047 A 
HETATM    4  C   UNK N   1      22.962  16.811   5.469  0.00  0.00     0.021 A 
HETATM    5  C   UNK N   1      23.511  17.698   4.567  0.00  0.00     0.048 C 
HETATM    6  C   UNK N   1      22.901  18.873   4.222  0.00  0.00     0.069 C 
HETATM    7  C   UNK N   1      23.469  15.544   5.558  0.00  0.00     0.067 A 
HETATM    8  C   UNK N   1      22.953  14.649   6.524  0.00  0.00     0.087 A 
HETATM    9  C   UNK N   1      21.910  15.081   7.350  0.00  0.00     0.113 A 
HETATM   10  N   UNK N   1      21.363  16.312   7.151  0.00  0.00    -0.364 N 
ATOM     11  HN  UNK N   1      20.564  16.600   7.716  1.00  0.00     0.165 HD
HETATM   12  C   UNK N   1      23.458  13.303   6.617  0.00  0.00     0.103 C 
HETATM   13  N   UNK N   1      23.943  12.260   6.588  0.00  0.00    -0.191 NA
ENDROOT
BRANCH   7  14
HETATM   14  N   UNK N   1      24.438  15.192   4.592  0.00  0.00    -0.354 N 
HETATM   15  H   UNK N   1      24.157  14.799   3.734  0.00  0.00     0.166 HD
BRANCH  14  16
HETATM   16  C   UNK N   1      25.779  15.400   4.852  0.00  0.00     0.034 A 
HETATM   17  C   UNK N   1      26.210  15.612   6.158  0.00  0.00     0.032 A 
HETATM   18  C   UNK N   1      27.515  16.017   6.358  0.00  0.00     0.041 A 
HETATM   19  C   UNK N   1      28.364  16.215   5.248  0.00  0.00     0.091 A 
HETATM   20  C   UNK N   1      27.933  15.907   3.955  0.00  0.00     0.069 A 
HETATM   21  C   UNK N   1      26.645  15.504   3.773  0.00  0.00     0.056 A 
HETATM   22 Cl   UNK N   1      28.951  16.108   2.537  0.00  0.00    -0.081 Cl
BRANCH  19  23
HETATM   23  O   UNK N   1      29.563  16.776   5.411  0.00  0.00    -0.344 OA
BRANCH  23  24
HETATM   24  C   UNK N   1      30.636  15.972   5.697  0.00  0.00     0.232 C 
BRANCH  24  25
HETATM   25  C   UNK N   1      31.649  16.737   6.490  0.00  0.00     0.033 A 
HETATM   26  C   UNK N   1      32.915  16.927   5.944  0.00  0.00     0.027 A 
HETATM   27  C   UNK N   1      33.874  17.640   6.660  0.00  0.00     0.003 A 
HETATM   28  C   UNK N   1      33.558  18.164   7.913  0.00  0.00     0.017 A 
HETATM   29  C   UNK N   1      32.284  17.945   8.442  0.00  0.00     0.088 A 
HETATM   30  N   UNK N   1      31.361  17.238   7.730  0.00  0.00    -0.367 N 
ATOM     31  HN  UNK N   1      30.436  17.078   8.131  1.00  0.00     0.165 HD
ENDBRANCH  24  25
ENDBRANCH  23  24
ENDBRANCH  19  23
ENDBRANCH  14  16
ENDBRANCH   7  14
BRANCH   6  32
HETATM   32  N   UNK N   1      23.633  19.555   3.204  0.00  0.00    -0.321 N 
HETATM   33  C   UNK N   1      24.756  20.224   2.857  0.00  0.00     0.245 C 
HETATM   34  O   UNK N   1      24.812  20.696   1.733  0.00  0.00    -0.268 OA
HETATM   35  H   UNK N   1      23.070  19.526   2.396  0.00  0.00     0.169 HD
BRANCH  33  36
HETATM   36  C   UNK N   1      25.842  20.524   3.773  0.00  0.00     0.072 C 
HETATM   37  C   UNK N   1      26.817  19.674   3.985  0.00  0.00     0.008 C 
BRANCH  37  38
HETATM   38  C   UNK N   1      27.791  19.917   5.072  0.00  0.00     0.299 C 
BRANCH  38  39
HETATM   39  N   UNK N   1      27.095  19.913   6.346  0.00  0.00     0.083 N 
HETATM   40  C   UNK N   1      26.885  21.288   6.753  0.00  0.00     0.309 C 
HETATM   41  C   UNK N   1      28.022  19.362   7.308  0.00  0.00     0.309 C 
ENDBRANCH  38  39
ENDBRANCH  37  38
ENDBRANCH  33  36
ENDBRANCH   6  32
BRANCH   1  42
HETATM   42  O   UNK N   1      20.678  19.878   4.217  0.00  0.00    -0.349 OA
BRANCH  42  43
HETATM   43  C   UNK N   1      20.333  19.642   2.889  0.00  0.00     0.171 C 
HETATM   44  C   UNK N   1      19.556  18.343   2.721  0.00  0.00     0.034 C 
ENDBRANCH  42  43
ENDBRANCH   1  42
TORSDOF 11
ENDMDL
MODEL 2
REMARK VINA RESULT:      -7.7      2.662      5.203
REMARK  11 active torsions:
REMARK  status: ('A' for Active; 'I' for Inactive)
REMARK    1  A    between atoms: C_2  and  O_3 
REMARK    2  A    between atoms: O_3  and  C_4 
REMARK    3  A    between atoms: C_9  and  N_10 
REMARK       I    between atoms: N_10  and  C_11 
REMARK    4  A    between atoms: C_11  and  C_13 
REMARK    5  A    between atoms: C_14  and  C_15 
REMARK    6  A    between atoms: C_15  and  N_16 
REMARK    7  A    between atoms: C_19  and  N_26 
REMARK    8  A    between atoms: N_26  and  C_27 
REMARK    9  A    between atoms: C_30  and  O_34 
REMARK   10  A    between atoms: O_34  and  C_35 
REMARK   11  A    between atoms: C_35  and  C_36 
ROOT
HETATM    1  C   UNK N   1      19.830  16.632   8.286  0.00  0.00     0.097 C 
HETATM    2  C   UNK N   1      19.971  15.527   9.151  0.00  0.00     0.069 C 
HETATM    3  C   UNK N   1      20.937  14.578   8.921  0.00  0.00     0.047 A 
HETATM    4  C   UNK N   1      21.738  14.717   7.808  0.00  0.00     0.021 A 
HETATM    5  C   UNK N   1      21.752  15.898   7.095  0.00  0.00     0.048 C 
HETATM    6  C   UNK N   1      20.859  16.908   7.321  0.00  0.00     0.069 C 
HETATM    7  C   UNK N   1      22.462  13.650   7.353  0.00  0.00     0.067 A 
HETATM    8  C   UNK N   1      22.501  12.456   8.111  0.00  0.00     0.087 A 
HETATM    9  C   UNK N   1      21.770  12.392   9.300  0.00  0.00     0.113 A 
HETATM   10  N   UNK N   1      20.976  13.439   9.657  0.00  0.00    -0.364 N 
ATOM     11  HN  UNK N   1      20.398  13.366  10.495  1.00  0.00     0.165 HD
HETATM   12  C   UNK N   1      23.239  11.314   7.636  0.00  0.00     0.103 C 
HETATM   13  N   UNK N   1      23.860  10.476   7.149  0.00  0.00    -0.191 NA
ENDROOT
BRANCH   7  14
HETATM   14  N   UNK N   1      23.060  13.800   6.082  0.00  0.00    -0.354 N 
HETATM   15  H   UNK N   1      22.551  13.578   5.269  0.00  0.00     0.166 HD
BRANCH  14  16
HETATM   16  C   UNK N   1      24.360  14.259   5.981  0.00  0.00     0.034 A 
HETATM   17  C   UNK N   1      25.113  14.474   7.131  0.00  0.00     0.032 A 
HETATM   18  C   UNK N   1      26.327  15.122   7.006  0.00  0.00     0.041 A 
HETATM   19  C   UNK N   1      26.761  15.555   5.735  0.00  0.00     0.091 A 
HETATM   20  C   UNK N   1      26.028  15.245   4.586  0.00  0.00     0.069 A 
HETATM   21  C   UNK N   1      24.835  14.601   4.724  0.00  0.00     0.056 A 
HETATM   22 Cl   UNK N   1      26.530  15.733   2.975  0.00  0.00    -0.081 Cl
BRANCH  19  23
HETATM   23  O   UNK N   1      27.836  16.336   5.622  0.00  0.00    -0.344 OA
BRANCH  23  24
HETATM   24  C   UNK N   1      28.141  17.194   6.647  0.00  0.00     0.232 C 
BRANCH  24  25
HETATM   25  C   UNK N   1      27.754  18.591   6.272  0.00  0.00     0.033 A 
HETATM   26  C   UNK N   1      27.900  18.987   4.946  0.00  0.00     0.027 A 
HETATM   27  C   UNK N   1      27.542  20.280   4.570  0.00  0.00     0.003 A 
HETATM   28  C   UNK N   1      27.037  21.166   5.521  0.00  0.00     0.017 A 
HETATM   29  C   UNK N   1      26.916  20.745   6.848  0.00  0.00     0.088 A 
HETATM   30  N   UNK N   1      27.278  19.478   7.198  0.00  0.00    -0.367 N 
ATOM     31  HN  UNK N   1      27.192  19.185   8.172  1.00  0.00     0.165 HD
ENDBRANCH  24  25
ENDBRANCH  23  24
ENDBRANCH  19  23
ENDBRANCH  14  16
ENDBRANCH   7  14
BRANCH   6  32
HETATM   32  N   UNK N   1      21.035  17.973   6.388  0.00  0.00    -0.321 N 
HETATM   33  C   UNK N   1      21.118  18.356   5.093  0.00  0.00     0.245 C 
HETATM   34  O   UNK N   1      21.378  19.526   4.862  0.00  0.00    -0.268 OA
HETATM   35  H   UNK N   1      21.147  18.792   6.924  0.00  0.00     0.169 HD
BRANCH  33  36
HETATM   36  C   UNK N   1      21.043  17.443   3.966  0.00  0.00     0.072 C 
HETATM   37  C   UNK N   1      19.953  16.762   3.705  0.00  0.00     0.008 C 
BRANCH  37  38
HETATM   38  C   UNK N   1      19.973  15.692   2.684  0.00  0.00     0.299 C 
BRANCH  38  39
HETATM   39  N   UNK N   1      20.801  16.111   1.569  0.00  0.00     0.083 N 
HETATM   40  C   UNK N   1      19.930  16.532   0.489  0.00  0.00     0.309 C 
HETATM   41  C   UNK N   1      21.464  14.920   1.089  0.00  0.00     0.309 C 
ENDBRANCH  38  39
ENDBRANCH  37  38
ENDBRANCH  33  36
ENDBRANCH   6  32
BRANCH   1  42
HETATM   42  O   UNK N   1      18.643  17.244   8.287  0.00  0.00    -0.349 OA
BRANCH  42  43
HETATM   43  C   UNK N   1      17.732  16.918   9.288  0.00  0.00     0.171 C 
HETATM   44  C   UNK N   1      17.471  18.087  10.229  0.00  0.00     0.034 C 
ENDBRANCH  42  43
ENDBRANCH   1  42
TORSDOF 11
ENDMDL
MODEL 3
REMARK VINA RESULT:      -7.6      7.038     11.576
REMARK  11 active torsions:
REMARK  status: ('A' for Active; 'I' for Inactive)
REMARK    1  A    between atoms: C_2  and  O_3 
REMARK    2  A    between atoms: O_3  and  C_4 
REMARK    3  A    between atoms: C_9  and  N_10 
REMARK       I    between atoms: N_10  and  C_11 
REMARK    4  A    between atoms: C_11  and  C_13 
REMARK    5  A    between atoms: C_14  and  C_15 
REMARK    6  A    between atoms: C_15  and  N_16 
REMARK    7  A    between atoms: C_19  and  N_26 
REMARK    8  A    between atoms: N_26  and  C_27 
REMARK    9  A    between atoms: C_30  and  O_34 
REMARK   10  A    between atoms: O_34  and  C_35 
REMARK   11  A    between atoms: C_35  and  C_36 
ROOT
HETATM    1  C   UNK N   1      32.404  16.069   6.766  0.00  0.00     0.097 C 
HETATM    2  C   UNK N   1      33.440  15.284   6.218  0.00  0.00     0.069 C 
HETATM    3  C   UNK N   1      34.401  14.730   7.028  0.00  0.00     0.047 A 
HETATM    4  C   UNK N   1      34.345  14.991   8.380  0.00  0.00     0.021 A 
HETATM    5  C   UNK N   1      33.221  15.562   8.941  0.00  0.00     0.048 C 
HETATM    6  C   UNK N   1      32.199  16.072   8.189  0.00  0.00     0.069 C 
HETATM    7  C   UNK N   1      35.442  14.759   9.164  0.00  0.00     0.067 A 
HETATM    8  C   UNK N   1      36.574  14.117   8.611  0.00  0.00     0.087 A 
HETATM    9  C   UNK N   1      36.550  13.758   7.260  0.00  0.00     0.113 A 
HETATM   10  N   UNK N   1      35.480  14.107   6.492  0.00  0.00    -0.364 N 
ATOM     11  HN  UNK N   1      35.492  13.896   5.494  1.00  0.00     0.165 HD
HETATM   12  C   UNK N   1      37.748  13.886   9.414  0.00  0.00     0.103 C 
HETATM   13  N   UNK N   1      38.619  13.763  10.156  0.00  0.00    -0.191 NA
ENDROOT
BRANCH   7  14
HETATM   14  N   UNK N   1      35.387  15.273  10.478  0.00  0.00    -0.354 N 
HETATM   15  H   UNK N   1      35.238  16.235  10.625  0.00  0.00     0.166 HD
BRANCH  14  16
HETATM   16  C   UNK N   1      35.543  14.425  11.558  0.00  0.00     0.034 A 
HETATM   17  C   UNK N   1      34.903  13.189  11.571  0.00  0.00     0.032 A 
HETATM   18  C   UNK N   1      34.914  12.460  12.744  0.00  0.00     0.041 A 
HETATM   19  C   UNK N   1      35.554  12.983  13.887  0.00  0.00     0.091 A 
HETATM   20  C   UNK N   1      36.268  14.183  13.821  0.00  0.00     0.069 A 
HETATM   21  C   UNK N   1      36.253  14.890  12.656  0.00  0.00     0.056 A 
HETATM   22 Cl   UNK N   1      37.107  14.871  15.202  0.00  0.00    -0.081 Cl
BRANCH  19  23
HETATM   23  O   UNK N   1      35.420  12.378  15.069  0.00  0.00    -0.344 OA
BRANCH  23  24
HETATM   24  C   UNK N   1      34.642  12.970  16.030  0.00  0.00     0.232 C 
BRANCH  24  25
HETATM   25  C   UNK N   1      34.985  12.414  17.376  0.00  0.00     0.033 A 
HETATM   26  C   UNK N   1      35.075  13.291  18.453  0.00  0.00     0.027 A 
HETATM   27  C   UNK N   1      35.389  12.798  19.718  0.00  0.00     0.003 A 
HETATM   28  C   UNK N   1      35.604  11.432  19.898  0.00  0.00     0.017 A 
HETATM   29  C   UNK N   1      35.521  10.578  18.796  0.00  0.00     0.088 A 
HETATM   30  N   UNK N   1      35.221  11.080  17.564  0.00  0.00    -0.367 N 
ATOM     31  HN  UNK N   1      35.171  10.447  16.765  1.00  0.00     0.165 HD
ENDBRANCH  24  25
ENDBRANCH  23  24
ENDBRANCH  19  23
ENDBRANCH  14  16
ENDBRANCH   7  14
BRANCH   6  32
HETATM   32  N   UNK N   1      31.208  16.685   9.013  0.00  0.00    -0.321 N 
HETATM   33  C   UNK N   1      30.012  17.312   9.087  0.00  0.00     0.245 C 
HETATM   34  O   UNK N   1      29.652  17.724  10.178  0.00  0.00    -0.268 OA
HETATM   35  H   UNK N   1      31.544  16.626   9.937  0.00  0.00     0.169 HD
BRANCH  33  36
HETATM   36  C   UNK N   1      29.189  17.637   7.935  0.00  0.00     0.072 C 
HETATM   37  C   UNK N   1      28.579  18.794   7.831  0.00  0.00     0.008 C 
BRANCH  37  38
HETATM   38  C   UNK N   1      27.587  19.016   6.756  0.00  0.00     0.299 C 
BRANCH  38  39
HETATM   39  N   UNK N   1      27.769  20.346   6.205  0.00  0.00     0.083 N 
HETATM   40  C   UNK N   1      26.562  21.109   6.454  0.00  0.00     0.309 C 
HETATM   41  C   UNK N   1      27.834  20.181   4.770  0.00  0.00     0.309 C 
ENDBRANCH  38  39
ENDBRANCH  37  38
ENDBRANCH  33  36
ENDBRANCH   6  32
BRANCH   1  42
HETATM   42  O   UNK N   1      31.796  16.921   5.937  0.00  0.00    -0.349 OA
BRANCH  42  43
HETATM   43  C   UNK N   1      32.544  17.492   4.911  0.00  0.00     0.171 C 
HETATM   44  C   UNK N   1      31.911  17.262   3.544  0.00  0.00     0.034 C 
ENDBRANCH  42  43
ENDBRANCH   1  42
TORSDOF 11
ENDMDL
MODEL 4
REMARK VINA RESULT:      -7.4      2.036      2.531
REMARK  11 active torsions:
REMARK  status: ('A' for Active; 'I' for Inactive)
REMARK    1  A    between atoms: C_2  and  O_3 
REMARK    2  A    between atoms: O_3  and  C_4 
REMARK    3  A    between atoms: C_9  and  N_10 
REMARK       I    between atoms: N_10  and  C_11 
REMARK    4  A    between atoms: C_11  and  C_13 
REMARK    5  A    between atoms: C_14  and  C_15 
REMARK    6  A    between atoms: C_15  and  N_16 
REMARK    7  A    between atoms: C_19  and  N_26 
REMARK    8  A    between atoms: N_26  and  C_27 
REMARK    9  A    between atoms: C_30  and  O_34 
REMARK   10  A    between atoms: O_34  and  C_35 
REMARK   11  A    between atoms: C_35  and  C_36 
ROOT
HETATM    1  C   UNK N   1      20.330  17.715   3.184  0.00  0.00     0.097 C 
HETATM    2  C   UNK N   1      19.816  16.593   3.868  0.00  0.00     0.069 C 
HETATM    3  C   UNK N   1      20.482  16.067   4.947  0.00  0.00     0.047 A 
HETATM    4  C   UNK N   1      21.679  16.640   5.320  0.00  0.00     0.021 A 
HETATM    5  C   UNK N   1      22.066  17.859   4.802  0.00  0.00     0.048 C 
HETATM    6  C   UNK N   1      21.405  18.467   3.771  0.00  0.00     0.069 C 
HETATM    7  C   UNK N   1      22.532  15.959   6.144  0.00  0.00     0.067 A 
HETATM    8  C   UNK N   1      22.117  14.740   6.728  0.00  0.00     0.087 A 
HETATM    9  C   UNK N   1      20.846  14.247   6.421  0.00  0.00     0.113 A 
HETATM   10  N   UNK N   1      20.074  14.901   5.509  0.00  0.00    -0.364 N 
ATOM     11  HN  UNK N   1      19.172  14.507   5.243  1.00  0.00     0.165 HD
HETATM   12  C   UNK N   1      23.010  13.997   7.581  0.00  0.00     0.103 C 
HETATM   13  N   UNK N   1      23.814  13.501   8.238  0.00  0.00    -0.191 NA
ENDROOT
BRANCH   7  14
HETATM   14  N   UNK N   1      23.829  16.502   6.283  0.00  0.00    -0.354 N 
HETATM   15  H   UNK N   1      23.971  17.298   6.847  0.00  0.00     0.166 HD
BRANCH  14  16
HETATM   16  C   UNK N   1      24.896  15.917   5.629  0.00  0.00     0.034 A 
HETATM   17  C   UNK N   1      26.004  15.486   6.352  0.00  0.00     0.032 A 
HETATM   18  C   UNK N   1      27.130  15.097   5.652  0.00  0.00     0.041 A 
HETATM   19  C   UNK N   1      27.133  15.157   4.242  0.00  0.00     0.091 A 
HETATM   20  C   UNK N   1      25.977  15.507   3.539  0.00  0.00     0.069 A 
HETATM   21  C   UNK N   1      24.872  15.883   4.242  0.00  0.00     0.056 A 
HETATM   22 Cl   UNK N   1      25.911  15.575   1.785  0.00  0.00    -0.081 Cl
BRANCH  19  23
HETATM   23  O   UNK N   1      28.264  14.959   3.564  0.00  0.00    -0.344 OA
BRANCH  23  24
HETATM   24  C   UNK N   1      29.370  14.511   4.239  0.00  0.00     0.232 C 
BRANCH  24  25
HETATM   25  C   UNK N   1      30.514  15.451   4.021  0.00  0.00     0.033 A 
HETATM   26  C   UNK N   1      30.475  16.698   4.636  0.00  0.00     0.027 A 
HETATM   27  C   UNK N   1      31.530  17.590   4.454  0.00  0.00     0.003 A 
HETATM   28  C   UNK N   1      32.620  17.225   3.663  0.00  0.00     0.017 A 
HETATM   29  C   UNK N   1      32.625  15.971   3.047  0.00  0.00     0.088 A 
HETATM   30  N   UNK N   1      31.579  15.116   3.231  0.00  0.00    -0.367 N 
ATOM     31  HN  UNK N   1      31.591  14.206   2.768  1.00  0.00     0.165 HD
ENDBRANCH  24  25
ENDBRANCH  23  24
ENDBRANCH  19  23
ENDBRANCH  14  16
ENDBRANCH   7  14
BRANCH   6  32
HETATM   32  N   UNK N   1      22.066  19.667   3.370  0.00  0.00    -0.321 N 
HETATM   33  C   UNK N   1      23.234  20.295   3.107  0.00  0.00     0.245 C 
HETATM   34  O   UNK N   1      23.192  21.485   2.839  0.00  0.00    -0.268 OA
HETATM   35  H   UNK N   1      21.356  20.332   3.217  0.00  0.00     0.169 HD
BRANCH  33  36
HETATM   36  C   UNK N   1      24.541  19.677   3.247  0.00  0.00     0.072 C 
HETATM   37  C   UNK N   1      25.563  20.335   3.742  0.00  0.00     0.008 C 
BRANCH  37  38
HETATM   38  C   UNK N   1      26.921  19.752   3.679  0.00  0.00     0.299 C 
BRANCH  38  39
HETATM   39  N   UNK N   1      27.626  20.047   4.913  0.00  0.00     0.083 N 
HETATM   40  C   UNK N   1      27.549  18.881   5.769  0.00  0.00     0.309 C 
HETATM   41  C   UNK N   1      26.853  21.070   5.582  0.00  0.00     0.309 C 
ENDBRANCH  38  39
ENDBRANCH  37  38
ENDBRANCH  33  36
ENDBRANCH   6  32
BRANCH   1  42
HETATM   42  O   UNK N   1      19.912  17.893   1.929  0.00  0.00    -0.349 OA
BRANCH  42  43
HETATM   43  C   UNK N   1      20.454  17.088   0.931  0.00  0.00     0.171 C 
HETATM   44  C   UNK N   1      19.378  16.413   0.090  0.00  0.00     0.034 C 
ENDBRANCH  42  43
ENDBRANCH   1  42
TORSDOF 11
ENDMDL
MODEL 5
REMARK VINA RESULT:      -7.3      2.265      3.721
REMARK  11 active torsions:
REMARK  status: ('A' for Active; 'I' for Inactive)
REMARK    1  A    between atoms: C_2  and  O_3 
REMARK    2  A    between atoms: O_3  and  C_4 
REMARK    3  A    between atoms: C_9  and  N_10 
REMARK       I    between atoms: N_10  and  C_11 
REMARK    4  A    between atoms: C_11  and  C_13 
REMARK    5  A    between atoms: C_14  and  C_15 
REMARK    6  A    between atoms: C_15  and  N_16 
REMARK    7  A    between atoms: C_19  and  N_26 
REMARK    8  A    between atoms: N_26  and  C_27 
REMARK    9  A    between atoms: C_30  and  O_34 
REMARK   10  A    between atoms: O_34  and  C_35 
REMARK   11  A    between atoms: C_35  and  C_36 
ROOT
HETATM    1  C   UNK N   1      19.821  16.299   8.280  0.00  0.00     0.097 C 
HETATM    2  C   UNK N   1      20.049  15.300   9.249  0.00  0.00     0.069 C 
HETATM    3  C   UNK N   1      21.041  14.367   9.070  0.00  0.00     0.047 A 
HETATM    4  C   UNK N   1      21.780  14.412   7.908  0.00  0.00     0.021 A 
HETATM    5  C   UNK N   1      21.712  15.509   7.074  0.00  0.00     0.048 C 
HETATM    6  C   UNK N   1      20.790  16.506   7.238  0.00  0.00     0.069 C 
HETATM    7  C   UNK N   1      22.523  13.328   7.531  0.00  0.00     0.067 A 
HETATM    8  C   UNK N   1      22.648  12.225   8.408  0.00  0.00     0.087 A 
HETATM    9  C   UNK N   1      21.979  12.265   9.635  0.00  0.00     0.113 A 
HETATM   10  N   UNK N   1      21.162  13.316   9.920  0.00  0.00    -0.364 N 
ATOM     11  HN  UNK N   1      20.629  13.313  10.791  1.00  0.00     0.165 HD
HETATM   12  C   UNK N   1      23.408  11.065   8.019  0.00  0.00     0.103 C 
HETATM   13  N   UNK N   1      24.037  10.202   7.592  0.00  0.00    -0.191 NA
ENDROOT
BRANCH   7  14
HETATM   14  N   UNK N   1      23.053  13.361   6.222  0.00  0.00    -0.354 N 
HETATM   15  H   UNK N   1      22.542  12.972   5.475  0.00  0.00     0.166 HD
BRANCH  14  16
HETATM   16  C   UNK N   1      24.286  13.938   5.990  0.00  0.00     0.034 A 
HETATM   17  C   UNK N   1      25.129  14.231   7.058  0.00  0.00     0.032 A 
HETATM   18  C   UNK N   1      26.257  14.989   6.811  0.00  0.00     0.041 A 
HETATM   19  C   UNK N   1      26.518  15.451   5.503  0.00  0.00     0.091 A 
HETATM   20  C   UNK N   1      25.705  15.066   4.434  0.00  0.00     0.069 A 
HETATM   21  C   UNK N   1      24.598  14.314   4.691  0.00  0.00     0.056 A 
HETATM   22 Cl   UNK N   1      25.992  15.586   2.782  0.00  0.00    -0.081 Cl
BRANCH  19  23
HETATM   23  O   UNK N   1      27.498  16.329   5.283  0.00  0.00    -0.344 OA
BRANCH  23  24
HETATM   24  C   UNK N   1      28.766  16.021   5.702  0.00  0.00     0.232 C 
BRANCH  24  25
HETATM   25  C   UNK N   1      29.171  16.937   6.815  0.00  0.00     0.033 A 
HETATM   26  C   UNK N   1      30.416  16.752   7.408  0.00  0.00     0.027 A 
HETATM   27  C   UNK N   1      30.818  17.594   8.443  0.00  0.00     0.003 A 
HETATM   28  C   UNK N   1      29.975  18.619   8.873  0.00  0.00     0.017 A 
HETATM   29  C   UNK N   1      28.725  18.772   8.268  0.00  0.00     0.088 A 
HETATM   30  N   UNK N   1      28.346  17.933   7.262  0.00  0.00    -0.367 N 
ATOM     31  HN  UNK N   1      27.427  18.050   6.833  1.00  0.00     0.165 HD
ENDBRANCH  24  25
ENDBRANCH  23  24
ENDBRANCH  19  23
ENDBRANCH  14  16
ENDBRANCH   7  14
BRANCH   6  32
HETATM   32  N   UNK N   1      20.877  17.468   6.189  0.00  0.00    -0.321 N 
HETATM   33  C   UNK N   1      21.667  18.169   5.343  0.00  0.00     0.245 C 
HETATM   34  O   UNK N   1      21.134  19.001   4.626  0.00  0.00    -0.268 OA
HETATM   35  H   UNK N   1      19.952  17.746   5.994  0.00  0.00     0.169 HD
BRANCH  33  36
HETATM   36  C   UNK N   1      23.116  18.086   5.325  0.00  0.00     0.072 C 
HETATM   37  C   UNK N   1      23.846  18.945   4.653  0.00  0.00     0.008 C 
BRANCH  37  38
HETATM   38  C   UNK N   1      25.297  18.714   4.483  0.00  0.00     0.299 C 
BRANCH  38  39
HETATM   39  N   UNK N   1      25.943  19.965   4.134  0.00  0.00     0.083 N 
HETATM   40  C   UNK N   1      25.461  20.377   2.830  0.00  0.00     0.309 C 
HETATM   41  C   UNK N   1      27.343  19.657   3.949  0.00  0.00     0.309 C 
ENDBRANCH  38  39
ENDBRANCH  37  38
ENDBRANCH  33  36
ENDBRANCH   6  32
BRANCH   1  42
HETATM   42  O   UNK N   1      18.612  16.866   8.279  0.00  0.00    -0.349 OA
BRANCH  42  43
HETATM   43  C   UNK N   1      18.220  17.590   9.402  0.00  0.00     0.171 C 
HETATM   44  C   UNK N   1      19.227  18.673   9.767  0.00  0.00     0.034 C 
ENDBRANCH  42  43
ENDBRANCH   1  42
TORSDOF 11
ENDMDL
MODEL 6
REMARK VINA RESULT:      -7.3      7.774     14.040
REMARK  11 active torsions:
REMARK  status: ('A' for Active; 'I' for Inactive)
REMARK    1  A    between atoms: C_2  and  O_3 
REMARK    2  A    between atoms: O_3  and  C_4 
REMARK    3  A    between atoms: C_9  and  N_10 
REMARK       I    between atoms: N_10  and  C_11 
REMARK    4  A    between atoms: C_11  and  C_13 
REMARK    5  A    between atoms: C_14  and  C_15 
REMARK    6  A    between atoms: C_15  and  N_16 
REMARK    7  A    between atoms: C_19  and  N_26 
REMARK    8  A    between atoms: N_26  and  C_27 
REMARK    9  A    between atoms: C_30  and  O_34 
REMARK   10  A    between atoms: O_34  and  C_35 
REMARK   11  A    between atoms: C_35  and  C_36 
ROOT
HETATM    1  C   UNK N   1      36.850  11.007  12.687  0.00  0.00     0.097 C 
HETATM    2  C   UNK N   1      37.015  10.458  11.399  0.00  0.00     0.069 C 
HETATM    3  C   UNK N   1      37.107  11.275  10.298  0.00  0.00     0.047 A 
HETATM    4  C   UNK N   1      36.999  12.636  10.484  0.00  0.00     0.021 A 
HETATM    5  C   UNK N   1      37.064  13.181  11.749  0.00  0.00     0.048 C 
HETATM    6  C   UNK N   1      37.043  12.418  12.884  0.00  0.00     0.069 C 
HETATM    7  C   UNK N   1      36.741  13.450   9.415  0.00  0.00     0.067 A 
HETATM    8  C   UNK N   1      36.734  12.909   8.108  0.00  0.00     0.087 A 
HETATM    9  C   UNK N   1      36.967  11.540   7.947  0.00  0.00     0.113 A 
HETATM   10  N   UNK N   1      37.109  10.749   9.047  0.00  0.00    -0.364 N 
ATOM     11  HN  UNK N   1      37.219   9.742   8.928  1.00  0.00     0.165 HD
HETATM   12  C   UNK N   1      36.442  13.746   6.973  0.00  0.00     0.103 C 
HETATM   13  N   UNK N   1      36.193  14.515   6.154  0.00  0.00    -0.191 NA
ENDROOT
BRANCH   7  14
HETATM   14  N   UNK N   1      36.407  14.789   9.719  0.00  0.00    -0.354 N 
HETATM   15  H   UNK N   1      37.093  15.397  10.078  0.00  0.00     0.166 HD
BRANCH  14  16
HETATM   16  C   UNK N   1      35.119  15.243   9.512  0.00  0.00     0.034 A 
HETATM   17  C   UNK N   1      34.042  14.374   9.657  0.00  0.00     0.032 A 
HETATM   18  C   UNK N   1      32.795  14.802   9.247  0.00  0.00     0.041 A 
HETATM   19  C   UNK N   1      32.647  16.090   8.687  0.00  0.00     0.091 A 
HETATM   20  C   UNK N   1      33.727  16.976   8.638  0.00  0.00     0.069 A 
HETATM   21  C   UNK N   1      34.951  16.541   9.051  0.00  0.00     0.056 A 
HETATM   22 Cl   UNK N   1      33.600  18.598   7.977  0.00  0.00    -0.081 Cl
BRANCH  19  23
HETATM   23  O   UNK N   1      31.493  16.449   8.124  0.00  0.00    -0.344 OA
BRANCH  23  24
HETATM   24  C   UNK N   1      31.002  15.700   7.086  0.00  0.00     0.232 C 
BRANCH  24  25
HETATM   25  C   UNK N   1      31.711  16.060   5.818  0.00  0.00     0.033 A 
HETATM   26  C   UNK N   1      31.509  17.329   5.283  0.00  0.00     0.027 A 
HETATM   27  C   UNK N   1      32.161  17.691   4.106  0.00  0.00     0.003 A 
HETATM   28  C   UNK N   1      33.015  16.785   3.476  0.00  0.00     0.017 A 
HETATM   29  C   UNK N   1      33.186  15.513   4.030  0.00  0.00     0.088 A 
HETATM   30  N   UNK N   1      32.533  15.174   5.178  0.00  0.00    -0.367 N 
ATOM     31  HN  UNK N   1      32.661  14.240   5.568  1.00  0.00     0.165 HD
ENDBRANCH  24  25
ENDBRANCH  23  24
ENDBRANCH  19  23
ENDBRANCH  14  16
ENDBRANCH   7  14
BRANCH   6  32
HETATM   32  N   UNK N   1      37.028  13.233  14.055  0.00  0.00    -0.321 N 
HETATM   33  C   UNK N   1      36.535  13.440  15.297  0.00  0.00     0.245 C 
HETATM   34  O   UNK N   1      36.867  14.461  15.877  0.00  0.00    -0.268 OA
HETATM   35  H   UNK N   1      37.655  13.973  13.882  0.00  0.00     0.169 HD
BRANCH  33  36
HETATM   36  C   UNK N   1      35.541  12.593  15.931  0.00  0.00     0.072 C 
HETATM   37  C   UNK N   1      35.884  11.551  16.651  0.00  0.00     0.008 C 
BRANCH  37  38
HETATM   38  C   UNK N   1      34.853  10.593  17.107  0.00  0.00     0.299 C 
BRANCH  38  39
HETATM   39  N   UNK N   1      35.269  10.009  18.369  0.00  0.00     0.083 N 
HETATM   40  C   UNK N   1      35.170  11.028  19.395  0.00  0.00     0.309 C 
HETATM   41  C   UNK N   1      36.681   9.730  18.237  0.00  0.00     0.309 C 
ENDBRANCH  38  39
ENDBRANCH  37  38
ENDBRANCH  33  36
ENDBRANCH   6  32
BRANCH   1  42
HETATM   42  O   UNK N   1      36.329  10.203  13.617  0.00  0.00    -0.349 OA
BRANCH  42  43
HETATM   43  C   UNK N   1      35.143   9.535  13.324  0.00  0.00     0.171 C 
HETATM   44  C   UNK N   1      33.924  10.437  13.474  0.00  0.00     0.034 C 
ENDBRANCH  42  43
ENDBRANCH   1  42
TORSDOF 11
ENDMDL
MODEL 7
REMARK VINA RESULT:      -7.2      2.484      4.871
REMARK  11 active torsions:
REMARK  status: ('A' for Active; 'I' for Inactive)
REMARK    1  A    between atoms: C_2  and  O_3 
REMARK    2  A    between atoms: O_3  and  C_4 
REMARK    3  A    between atoms: C_9  and  N_10 
REMARK       I    between atoms: N_10  and  C_11 
REMARK    4  A    between atoms: C_11  and  C_13 
REMARK    5  A    between atoms: C_14  and  C_15 
REMARK    6  A    between atoms: C_15  and  N_16 
REMARK    7  A    between atoms: C_19  and  N_26 
REMARK    8  A    between atoms: N_26  and  C_27 
REMARK    9  A    between atoms: C_30  and  O_34 
REMARK   10  A    between atoms: O_34  and  C_35 
REMARK   11  A    between atoms: C_35  and  C_36 
ROOT
HETATM    1  C   UNK N   1      20.194  17.751   3.096  0.00  0.00     0.097 C 
HETATM    2  C   UNK N   1      20.254  16.874   1.993  0.00  0.00     0.069 C 
HETATM    3  C   UNK N   1      21.110  15.800   2.000  0.00  0.00     0.047 A 
HETATM    4  C   UNK N   1      21.928  15.623   3.095  0.00  0.00     0.021 A 
HETATM    5  C   UNK N   1      21.714  16.337   4.255  0.00  0.00     0.048 C 
HETATM    6  C   UNK N   1      20.828  17.376   4.331  0.00  0.00     0.069 C 
HETATM    7  C   UNK N   1      23.014  14.796   3.006  0.00  0.00     0.067 A 
HETATM    8  C   UNK N   1      23.206  14.014   1.844  0.00  0.00     0.087 A 
HETATM    9  C   UNK N   1      22.286  14.130   0.797  0.00  0.00     0.113 A 
HETATM   10  N   UNK N   1      21.283  15.047   0.884  0.00  0.00    -0.364 N 
ATOM     11  HN  UNK N   1      20.649  15.171   0.095  1.00  0.00     0.165 HD
HETATM   12  C   UNK N   1      24.356  13.154   1.723  0.00  0.00     0.103 C 
HETATM   13  N   UNK N   1      25.311  12.513   1.748  0.00  0.00    -0.191 NA
ENDROOT
BRANCH   7  14
HETATM   14  N   UNK N   1      23.931  14.855   4.080  0.00  0.00    -0.354 N 
HETATM   15  H   UNK N   1      23.720  14.407   4.931  0.00  0.00     0.166 HD
BRANCH  14  16
HETATM   16  C   UNK N   1      25.121  15.542   3.934  0.00  0.00     0.034 A 
HETATM   17  C   UNK N   1      26.330  14.899   4.180  0.00  0.00     0.032 A 
HETATM   18  C   UNK N   1      27.480  15.663   4.225  0.00  0.00     0.041 A 
HETATM   19  C   UNK N   1      27.399  17.059   4.036  0.00  0.00     0.091 A 
HETATM   20  C   UNK N   1      26.186  17.666   3.701  0.00  0.00     0.069 A 
HETATM   21  C   UNK N   1      25.061  16.900   3.655  0.00  0.00     0.056 A 
HETATM   22 Cl   UNK N   1      26.028  19.394   3.428  0.00  0.00    -0.081 Cl
BRANCH  19  23
HETATM   23  O   UNK N   1      28.466  17.829   4.255  0.00  0.00    -0.344 OA
BRANCH  23  24
HETATM   24  C   UNK N   1      29.502  17.329   5.001  0.00  0.00     0.232 C 
BRANCH  24  25
HETATM   25  C   UNK N   1      29.328  17.715   6.436  0.00  0.00     0.033 A 
HETATM   26  C   UNK N   1      30.186  17.161   7.381  0.00  0.00     0.027 A 
HETATM   27  C   UNK N   1      30.048  17.508   8.724  0.00  0.00     0.003 A 
HETATM   28  C   UNK N   1      29.058  18.411   9.110  0.00  0.00     0.017 A 
HETATM   29  C   UNK N   1      28.202  18.940   8.141  0.00  0.00     0.088 A 
HETATM   30  N   UNK N   1      28.347  18.582   6.833  0.00  0.00    -0.367 N 
ATOM     31  HN  UNK N   1      27.710  18.969   6.136  1.00  0.00     0.165 HD
ENDBRANCH  24  25
ENDBRANCH  23  24
ENDBRANCH  19  23
ENDBRANCH  14  16
ENDBRANCH   7  14
BRANCH   6  32
HETATM   32  N   UNK N   1      20.869  17.999   5.614  0.00  0.00    -0.321 N 
HETATM   33  C   UNK N   1      20.706  17.874   6.951  0.00  0.00     0.245 C 
HETATM   34  O   UNK N   1      20.823  18.878   7.634  0.00  0.00    -0.268 OA
HETATM   35  H   UNK N   1      21.133  18.935   5.456  0.00  0.00     0.169 HD
BRANCH  33  36
HETATM   36  C   UNK N   1      20.278  16.652   7.609  0.00  0.00     0.072 C 
HETATM   37  C   UNK N   1      21.133  15.712   7.938  0.00  0.00     0.008 C 
BRANCH  37  38
HETATM   38  C   UNK N   1      20.645  14.399   8.414  0.00  0.00     0.299 C 
BRANCH  38  39
HETATM   39  N   UNK N   1      21.355  13.344   7.715  0.00  0.00     0.083 N 
HETATM   40  C   UNK N   1      22.693  13.816   7.418  0.00  0.00     0.309 C 
HETATM   41  C   UNK N   1      20.703  13.202   6.433  0.00  0.00     0.309 C 
ENDBRANCH  38  39
ENDBRANCH  37  38
ENDBRANCH  33  36
ENDBRANCH   6  32
BRANCH   1  42
HETATM   42  O   UNK N   1      19.713  18.974   2.862  0.00  0.00    -0.349 OA
BRANCH  42  43
HETATM   43  C   UNK N   1      20.610  20.038   2.805  0.00  0.00     0.171 C 
HETATM   44  C   UNK N   1      20.894  20.473   1.374  0.00  0.00     0.034 C 
ENDBRANCH  42  43
ENDBRANCH   1  42
TORSDOF 11
ENDMDL
MODEL 8
REMARK VINA RESULT:      -7.2      3.930     10.093
REMARK  11 active torsions:
REMARK  status: ('A' for Active; 'I' for Inactive)
REMARK    1  A    between atoms: C_2  and  O_3 
REMARK    2  A    between atoms: O_3  and  C_4 
REMARK    3  A    between atoms: C_9  and  N_10 
REMARK       I    between atoms: N_10  and  C_11 
REMARK    4  A    between atoms: C_11  and  C_13 
REMARK    5  A    between atoms: C_14  and  C_15 
REMARK    6  A    between atoms: C_15  and  N_16 
REMARK    7  A    between atoms: C_19  and  N_26 
REMARK    8  A    between atoms: N_26  and  C_27 
REMARK    9  A    between atoms: C_30  and  O_34 
REMARK   10  A    between atoms: O_34  and  C_35 
REMARK   11  A    between atoms: C_35  and  C_36 
ROOT
HETATM    1  C   UNK N   1      34.581  14.429   9.051  0.00  0.00     0.097 C 
HETATM    2  C   UNK N   1      34.720  13.087   8.638  0.00  0.00     0.069 C 
HETATM    3  C   UNK N   1      34.875  12.778   7.309  0.00  0.00     0.047 A 
HETATM    4  C   UNK N   1      34.857  13.807   6.392  0.00  0.00     0.021 A 
HETATM    5  C   UNK N   1      34.948  15.120   6.806  0.00  0.00     0.048 C 
HETATM    6  C   UNK N   1      34.866  15.487   8.121  0.00  0.00     0.069 C 
HETATM    7  C   UNK N   1      34.663  13.533   5.066  0.00  0.00     0.067 A 
HETATM    8  C   UNK N   1      34.632  12.189   4.625  0.00  0.00     0.087 A 
HETATM    9  C   UNK N   1      34.773  11.170   5.571  0.00  0.00     0.113 A 
HETATM   10  N   UNK N   1      34.853  11.487   6.893  0.00  0.00    -0.364 N 
ATOM     11  HN  UNK N   1      34.897  10.738   7.585  1.00  0.00     0.165 HD
HETATM   12  C   UNK N   1      34.405  11.881   3.236  0.00  0.00     0.103 C 
HETATM   13  N   UNK N   1      34.215  11.768   2.108  0.00  0.00    -0.191 NA
ENDROOT
BRANCH   7  14
HETATM   14  N   UNK N   1      34.417  14.645   4.231  0.00  0.00    -0.354 N 
HETATM   15  H   UNK N   1      35.149  15.029   3.693  0.00  0.00     0.166 HD
BRANCH  14  16
HETATM   16  C   UNK N   1      33.151  15.196   4.168  0.00  0.00     0.034 A 
HETATM   17  C   UNK N   1      32.996  16.571   4.026  0.00  0.00     0.032 A 
HETATM   18  C   UNK N   1      31.731  17.105   4.172  0.00  0.00     0.041 A 
HETATM   19  C   UNK N   1      30.643  16.256   4.470  0.00  0.00     0.091 A 
HETATM   20  C   UNK N   1      30.811  14.869   4.516  0.00  0.00     0.069 A 
HETATM   21  C   UNK N   1      32.064  14.356   4.365  0.00  0.00     0.056 A 
HETATM   22 Cl   UNK N   1      29.492  13.760   4.855  0.00  0.00    -0.081 Cl
BRANCH  19  23
HETATM   23  O   UNK N   1      29.456  16.772   4.790  0.00  0.00    -0.344 OA
BRANCH  23  24
HETATM   24  C   UNK N   1      28.625  17.194   3.784  0.00  0.00     0.232 C 
BRANCH  24  25
HETATM   25  C   UNK N   1      27.732  18.286   4.287  0.00  0.00     0.033 A 
HETATM   26  C   UNK N   1      28.299  19.519   4.592  0.00  0.00     0.027 A 
HETATM   27  C   UNK N   1      27.489  20.554   5.056  0.00  0.00     0.003 A 
HETATM   28  C   UNK N   1      26.117  20.348   5.207  0.00  0.00     0.017 A 
HETATM   29  C   UNK N   1      25.579  19.094   4.907  0.00  0.00     0.088 A 
HETATM   30  N   UNK N   1      26.389  18.092   4.461  0.00  0.00    -0.367 N 
ATOM     31  HN  UNK N   1      25.985  17.179   4.253  1.00  0.00     0.165 HD
ENDBRANCH  24  25
ENDBRANCH  23  24
ENDBRANCH  19  23
ENDBRANCH  14  16
ENDBRANCH   7  14
BRANCH   6  32
HETATM   32  N   UNK N   1      34.896  16.906   8.264  0.00  0.00    -0.321 N 
HETATM   33  C   UNK N   1      34.227  18.078   8.174  0.00  0.00     0.245 C 
HETATM   34  O   UNK N   1      34.852  19.107   8.374  0.00  0.00    -0.268 OA
HETATM   35  H   UNK N   1      35.808  17.133   8.558  0.00  0.00     0.169 HD
BRANCH  33  36
HETATM   36  C   UNK N   1      32.848  18.198   7.734  0.00  0.00     0.072 C 
HETATM   37  C   UNK N   1      31.848  17.822   8.495  0.00  0.00     0.008 C 
BRANCH  37  38
HETATM   38  C   UNK N   1      30.477  17.762   7.943  0.00  0.00     0.299 C 
BRANCH  38  39
HETATM   39  N   UNK N   1      29.658  18.772   8.586  0.00  0.00     0.083 N 
HETATM   40  C   UNK N   1      29.648  18.509  10.012  0.00  0.00     0.309 C 
HETATM   41  C   UNK N   1      28.303  18.535   8.140  0.00  0.00     0.309 C 
ENDBRANCH  38  39
ENDBRANCH  37  38
ENDBRANCH  33  36
ENDBRANCH   6  32
BRANCH   1  42
HETATM   42  O   UNK N   1      33.999  14.633  10.236  0.00  0.00    -0.349 OA
BRANCH  42  43
HETATM   43  C   UNK N   1      34.749  14.412  11.388  0.00  0.00     0.171 C 
HETATM   44  C   UNK N   1      35.687  15.573  11.693  0.00  0.00     0.034 C 
ENDBRANCH  42  43
ENDBRANCH   1  42
TORSDOF 11
ENDMDL
MODEL 9
REMARK VINA RESULT:      -7.2      3.212      6.706
REMARK  11 active torsions:
REMARK  status: ('A' for Active; 'I' for Inactive)
REMARK    1  A    between atoms: C_2  and  O_3 
REMARK    2  A    between atoms: O_3  and  C_4 
REMARK    3  A    between atoms: C_9  and  N_10 
REMARK       I    between atoms: N_10  and  C_11 
REMARK    4  A    between atoms: C_11  and  C_13 
REMARK    5  A    between atoms: C_14  and  C_15 
REMARK    6  A    between atoms: C_15  and  N_16 
REMARK    7  A    between atoms: C_19  and  N_26 
REMARK    8  A    between atoms: N_26  and  C_27 
REMARK    9  A    between atoms: C_30  and  O_34 
REMARK   10  A    between atoms: O_34  and  C_35 
REMARK   11  A    between atoms: C_35  and  C_36 
ROOT
HETATM    1  C   UNK N   1      21.848  12.372   9.106  0.00  0.00     0.097 C 
HETATM    2  C   UNK N   1      21.195  13.550   9.525  0.00  0.00     0.069 C 
HETATM    3  C   UNK N   1      20.939  14.562   8.633  0.00  0.00     0.047 A 
HETATM    4  C   UNK N   1      21.366  14.410   7.332  0.00  0.00     0.021 A 
HETATM    5  C   UNK N   1      21.798  13.183   6.872  0.00  0.00     0.048 C 
HETATM    6  C   UNK N   1      22.009  12.116   7.701  0.00  0.00     0.069 C 
HETATM    7  C   UNK N   1      21.445  15.501   6.510  0.00  0.00     0.067 A 
HETATM    8  C   UNK N   1      20.947  16.749   6.952  0.00  0.00     0.087 A 
HETATM    9  C   UNK N   1      20.409  16.838   8.239  0.00  0.00     0.113 A 
HETATM   10  N   UNK N   1      20.453  15.754   9.062  0.00  0.00    -0.364 N 
ATOM     11  HN  UNK N   1      20.113  15.840  10.020  1.00  0.00     0.165 HD
HETATM   12  C   UNK N   1      21.042  17.913   6.109  0.00  0.00     0.103 C 
HETATM   13  N   UNK N   1      21.179  18.763   5.346  0.00  0.00    -0.191 NA
ENDROOT
BRANCH   7  14
HETATM   14  N   UNK N   1      22.114  15.307   5.281  0.00  0.00    -0.354 N 
HETATM   15  H   UNK N   1      21.684  14.786   4.563  0.00  0.00     0.166 HD
BRANCH  14  16
HETATM   16  C   UNK N   1      23.371  15.846   5.087  0.00  0.00     0.034 A 
HETATM   17  C   UNK N   1      23.697  16.431   3.867  0.00  0.00     0.032 A 
HETATM   18  C   UNK N   1      25.015  16.774   3.636  0.00  0.00     0.041 A 
HETATM   19  C   UNK N   1      25.988  16.515   4.626  0.00  0.00     0.091 A 
HETATM   20  C   UNK N   1      25.619  16.012   5.876  0.00  0.00     0.069 A 
HETATM   21  C   UNK N   1      24.314  15.683   6.091  0.00  0.00     0.056 A 
HETATM   22 Cl   UNK N   1      26.779  15.694   7.156  0.00  0.00    -0.081 Cl
BRANCH  19  23
HETATM   23  O   UNK N   1      27.283  16.672   4.351  0.00  0.00    -0.344 OA
BRANCH  23  24
HETATM   24  C   UNK N   1      27.709  17.867   3.830  0.00  0.00     0.232 C 
BRANCH  24  25
HETATM   25  C   UNK N   1      27.534  18.955   4.843  0.00  0.00     0.033 A 
HETATM   26  C   UNK N   1      26.903  20.132   4.451  0.00  0.00     0.027 A 
HETATM   27  C   UNK N   1      26.724  21.158   5.376  0.00  0.00     0.003 A 
HETATM   28  C   UNK N   1      27.171  20.998   6.687  0.00  0.00     0.017 A 
HETATM   29  C   UNK N   1      27.814  19.811   7.048  0.00  0.00     0.088 A 
HETATM   30  N   UNK N   1      27.987  18.821   6.127  0.00  0.00    -0.367 N 
ATOM     31  HN  UNK N   1      28.465  17.962   6.400  1.00  0.00     0.165 HD
ENDBRANCH  24  25
ENDBRANCH  23  24
ENDBRANCH  19  23
ENDBRANCH  14  16
ENDBRANCH   7  14
BRANCH   6  32
HETATM   32  N   UNK N   1      22.540  11.003   6.984  0.00  0.00    -0.321 N 
HETATM   33  C   UNK N   1      23.529  10.513   6.202  0.00  0.00     0.245 C 
HETATM   34  O   UNK N   1      23.409   9.374   5.780  0.00  0.00    -0.268 OA
HETATM   35  H   UNK N   1      21.905  10.262   7.119  0.00  0.00     0.169 HD
BRANCH  33  36
HETATM   36  C   UNK N   1      24.658  11.295   5.730  0.00  0.00     0.072 C 
HETATM   37  C   UNK N   1      24.551  12.109   4.707  0.00  0.00     0.008 C 
BRANCH  37  38
HETATM   38  C   UNK N   1      25.760  12.730   4.123  0.00  0.00     0.299 C 
BRANCH  38  39
HETATM   39  N   UNK N   1      25.569  12.896   2.694  0.00  0.00     0.083 N 
HETATM   40  C   UNK N   1      25.839  11.626   2.049  0.00  0.00     0.309 C 
HETATM   41  C   UNK N   1      26.617  13.786   2.249  0.00  0.00     0.309 C 
ENDBRANCH  38  39
ENDBRANCH  37  38
ENDBRANCH  33  36
ENDBRANCH   6  32
BRANCH   1  42
HETATM   42  O   UNK N   1      22.456  11.656  10.055  0.00  0.00    -0.349 OA
BRANCH  42  43
HETATM   43  C   UNK N   1      23.372  12.298  10.884  0.00  0.00     0.171 C 
HETATM   44  C   UNK N   1      24.708  12.534  10.189  0.00  0.00     0.034 C 
ENDBRANCH  42  43
ENDBRANCH   1  42
TORSDOF 11
ENDMDL
