REMARK  4 active torsions:
REMARK  status: ('A' for Active; 'I' for Inactive)
REMARK    1  A    between atoms: C_10  and  O_29 
REMARK    2  A    between atoms: C_13  and  C_17 
REMARK       I    between atoms: C_17  and  N_19 
REMARK    3  A    between atoms: N_19  and  C_20 
REMARK    4  A    between atoms: C_20  and  C_21 
ROOT
HETATM    1  C   UNK N   1       6.096  -1.744  -0.723  0.00  0.00     0.034 C 
HETATM    2  C   UNK N   1       5.539  -0.749   0.279  0.00  0.00     0.110 C 
HETATM    3  C   UNK N   1       6.131   0.626   0.015  0.00  0.00     0.195 C 
HETATM    4  O   UNK N   1       5.082   1.582  -0.040  0.00  0.00    -0.363 OA
HETATM    5  C   UNK N   1       3.911   0.856  -0.332  0.00  0.00     0.244 C 
HETATM    6  N   UNK N   1       4.163  -0.498   0.043  0.00  0.00    -0.312 N 
HETATM    7  C   UNK N   1       3.149  -1.399   0.184  0.00  0.00     0.276 C 
HETATM    8  O   UNK N   1       3.385  -2.576   0.413  0.00  0.00    -0.266 OA
HETATM    9  C   UNK N   1       1.753  -0.888   0.116  0.00  0.00     0.141 A 
HETATM   10  C   UNK N   1       0.628  -1.734  -0.009  0.00  0.00     0.150 A 
HETATM   11  C   UNK N   1      -0.661  -1.170  -0.062  0.00  0.00     0.224 A 
HETATM   12  O   UNK N   1      -1.638  -1.891  -0.176  0.00  0.00    -0.284 OA
HETATM   13  C   UNK N   1      -0.808   0.229   0.014  0.00  0.00     0.100 A 
HETATM   14  C   UNK N   1       0.338   1.014   0.152  0.00  0.00     0.113 A 
HETATM   15  N   UNK N   1       1.572   0.470   0.203  0.00  0.00    -0.345 N 
HETATM   16  C   UNK N   1       2.707   1.372   0.429  0.00  0.00     0.182 C 
ENDROOT
BRANCH  13  17
HETATM   17  C   UNK N   1      -2.104   0.948  -0.035  0.00  0.00     0.257 C 
HETATM   18  O   UNK N   1      -3.170   0.358  -0.140  0.00  0.00    -0.267 OA
HETATM   19  N   UNK N   1      -2.061   2.298   0.030  0.00  0.00    -0.352 N 
HETATM   20  H   UNK N   1      -1.166   2.700   0.118  0.00  0.00     0.163 HD
BRANCH  19  21
HETATM   21  C   UNK N   1      -3.165   3.212  -0.014  0.00  0.00     0.164 C 
BRANCH  21  22
HETATM   22  C   UNK N   1      -2.652   4.639  -0.018  0.00  0.00    -0.002 A 
HETATM   23  C   UNK N   1      -3.595   5.673   0.016  0.00  0.00     0.015 A 
HETATM   24  C   UNK N   1      -3.187   7.011   0.014  0.00  0.00     0.043 A 
HETATM   25  C   UNK N   1      -1.828   7.331  -0.025  0.00  0.00     0.119 A 
HETATM   26  C   UNK N   1      -0.876   6.318  -0.062  0.00  0.00     0.085 A 
HETATM   27  F   UNK N   1      -1.431   8.626  -0.029  0.00  0.00    -0.206 F 
HETATM   28  C   UNK N   1      -1.268   4.979  -0.059  0.00  0.00     0.127 A 
HETATM   29  F   UNK N   1      -0.291   4.039  -0.100  0.00  0.00    -0.205 F 
ENDBRANCH  21  22
ENDBRANCH  19  21
ENDBRANCH  13  17
BRANCH  10  30
HETATM   30  O   UNK N   1       0.778  -3.070  -0.086  0.00  0.00    -0.355 OA
HETATM   31  H   UNK N   1       0.026  -3.626  -0.139  0.00  0.00     0.218 HD
ENDBRANCH  10  30
TORSDOF 4
