MODEL 1
REMARK VINA RESULT:      -9.6      0.000      0.000
REMARK  8 active torsions:
REMARK  status: ('A' for Active; 'I' for Inactive)
REMARK    1  A    between atoms: C_2  and  O_5 
REMARK    2  A    between atoms: O_5  and  C_6 
REMARK       I    between atoms: C_6  and  N_8 
REMARK    3  A    between atoms: C_9  and  N_8 
REMARK    4  A    between atoms: C_19  and  C_43 
REMARK    5  A    between atoms: C_25  and  O_30 
REMARK    6  A    between atoms: O_30  and  C_31 
REMARK       I    between atoms: C_31  and  N_33 
REMARK       I    between atoms: C_43  and  N_45 
REMARK    7  A    between atoms: N_45  and  S_46 
REMARK    8  A    between atoms: S_46  and  C_49 
ROOT
HETATM    1  C   UNK N   1      36.068  14.970  10.682  0.00  0.00     0.179 C 
HETATM    2  C   UNK N   1      36.613  13.765   9.923  0.00  0.00     0.035 C 
HETATM    3  C   UNK N   1      38.133  13.830   9.857  0.00  0.00     0.002 C 
HETATM    4  C   UNK N   1      38.737  12.444  10.072  0.00  0.00     0.000 C 
HETATM    5  C   UNK N   1      40.121  12.326   9.421  0.00  0.00     0.004 C 
HETATM    6  C   UNK N   1      40.036  11.965   7.932  0.00  0.00     0.027 C 
HETATM    7  C   UNK N   1      39.308  13.061   7.245  0.00  0.00    -0.030 C 
HETATM    8  C   UNK N   1      38.148  12.862   6.626  0.00  0.00    -0.023 C 
HETATM    9  C   UNK N   1      37.327  14.080   6.460  0.00  0.00     0.048 A 
HETATM   10  C   UNK N   1      37.031  14.564   5.180  0.00  0.00     0.053 A 
HETATM   11  C   UNK N   1      35.883  13.791   5.944  0.00  0.00     0.122 A 
HETATM   12  N   UNK N   1      35.234  14.384   7.101  0.00  0.00    -0.341 N 
HETATM   13  C   UNK N   1      33.970  14.177   7.551  0.00  0.00     0.241 C 
HETATM   14  O   UNK N   1      33.141  13.609   6.853  0.00  0.00    -0.271 OA
HETATM   15  C   UNK N   1      33.636  14.580   8.983  0.00  0.00     0.181 C 
HETATM   16  C   UNK N   1      32.136  14.787   9.176  0.00  0.00     0.069 C 
HETATM   17  C   UNK N   1      31.946  16.230   8.716  0.00  0.00     0.154 C 
HETATM   18  C   UNK N   1      33.265  16.962   8.941  0.00  0.00     0.159 C 
HETATM   19  N   UNK N   1      34.171  15.887   9.266  0.00  0.00    -0.334 N 
HETATM   20  C   UNK N   1      35.274  16.100  10.052  0.00  0.00     0.243 C 
HETATM   21  O   UNK N   1      35.604  17.243  10.326  0.00  0.00    -0.271 OA
HETATM   22  H   UNK N   1      35.778  15.017   7.622  0.00  0.00     0.163 HD
ENDROOT
BRANCH  17  23
HETATM   23  O   UNK N   1      30.806  16.866   9.188  0.00  0.00    -0.297 OA
BRANCH  23  24
HETATM   24  C   UNK N   1      30.081  17.958   8.777  0.00  0.00     0.363 C 
HETATM   25  O   UNK N   1      30.155  18.964   9.466  0.00  0.00    -0.238 OA
HETATM   26  N   UNK N   1      29.267  17.979   7.673  0.00  0.00    -0.319 N 
HETATM   27  C   UNK N   1      29.087  16.882   6.744  0.00  0.00     0.167 A 
HETATM   28  C   UNK N   1      28.455  19.152   7.365  0.00  0.00     0.170 A 
HETATM   29  C   UNK N   1      28.045  17.416   5.842  0.00  0.00    -0.029 A 
HETATM   30  C   UNK N   1      27.446  16.764   4.768  0.00  0.00     0.009 A 
HETATM   31  C   UNK N   1      27.685  18.686   6.193  0.00  0.00     0.006 A 
HETATM   32  C   UNK N   1      26.452  17.435   4.040  0.00  0.00     0.004 A 
HETATM   33  C   UNK N   1      26.074  18.741   4.401  0.00  0.00     0.043 A 
HETATM   34  C   UNK N   1      26.695  19.376   5.487  0.00  0.00     0.124 A 
HETATM   35  F   UNK N   1      26.330  20.631   5.845  0.00  0.00    -0.205 F 
ENDBRANCH  23  24
ENDBRANCH  17  23
BRANCH   1  36
HETATM   36  N   UNK N   1      35.869  14.823  12.109  0.00  0.00    -0.324 N 
HETATM   37  C   UNK N   1      35.282  13.748  12.696  0.00  0.00     0.362 C 
HETATM   38  O   UNK N   1      35.241  13.690  13.917  0.00  0.00    -0.238 OA
HETATM   39  H   UNK N   1      36.182  15.551  12.693  0.00  0.00     0.165 HD
BRANCH  37  40
HETATM   40  O   UNK N   1      34.725  12.759  11.942  0.00  0.00    -0.294 OA
BRANCH  40  41
HETATM   41  C   UNK N   1      34.964  11.399  12.093  0.00  0.00     0.061 C 
HETATM   42  C   UNK N   1      34.037  10.783  13.133  0.00  0.00     0.046 C 
HETATM   43  C   UNK N   1      34.703  10.708  10.772  0.00  0.00     0.046 C 
HETATM   44  C   UNK N   1      36.411  11.149  12.483  0.00  0.00     0.046 C 
ENDBRANCH  40  41
ENDBRANCH  37  40
ENDBRANCH   1  36
BRANCH  11  45
HETATM   45  C   UNK N   1      34.978  13.907   4.718  0.00  0.00     0.260 C 
HETATM   46  O   UNK N   1      34.825  12.945   3.970  0.00  0.00    -0.270 OA
HETATM   47  N   UNK N   1      34.344  15.075   4.452  0.00  0.00    -0.252 N 
HETATM   48  H   UNK N   1      34.527  15.854   5.026  0.00  0.00     0.181 HD
BRANCH  47  49
HETATM   49  S   UNK N   1      33.201  15.258   3.116  0.00  0.00     0.237 S 
HETATM   50  O   UNK N   1      32.201  14.123   3.375  0.00  0.00    -0.205 OA
HETATM   51  O   UNK N   1      33.912  14.698   1.874  0.00  0.00    -0.205 OA
BRANCH  49  52
HETATM   52  C   UNK N   1      32.254  16.795   2.821  0.00  0.00     0.130 A 
HETATM   53  C   UNK N   1      31.859  17.414   4.151  0.00  0.00     0.023 A 
HETATM   54  C   UNK N   1      30.833  16.670   3.331  0.00  0.00     0.023 A 
ENDBRANCH  49  52
ENDBRANCH  47  49
ENDBRANCH  11  45
TORSDOF 8
ENDMDL
MODEL 2
REMARK VINA RESULT:      -8.8      5.690     10.896
REMARK  8 active torsions:
REMARK  status: ('A' for Active; 'I' for Inactive)
REMARK    1  A    between atoms: C_2  and  O_5 
REMARK    2  A    between atoms: O_5  and  C_6 
REMARK       I    between atoms: C_6  and  N_8 
REMARK    3  A    between atoms: C_9  and  N_8 
REMARK    4  A    between atoms: C_19  and  C_43 
REMARK    5  A    between atoms: C_25  and  O_30 
REMARK    6  A    between atoms: O_30  and  C_31 
REMARK       I    between atoms: C_31  and  N_33 
REMARK       I    between atoms: C_43  and  N_45 
REMARK    7  A    between atoms: N_45  and  S_46 
REMARK    8  A    between atoms: S_46  and  C_49 
ROOT
HETATM    1  C   UNK N   1      28.157  13.336   3.036  0.00  0.00     0.179 C 
HETATM    2  C   UNK N   1      26.992  12.359   2.925  0.00  0.00     0.035 C 
HETATM    3  C   UNK N   1      26.990  11.698   1.553  0.00  0.00     0.002 C 
HETATM    4  C   UNK N   1      26.647  10.216   1.673  0.00  0.00     0.000 C 
HETATM    5  C   UNK N   1      26.033   9.672   0.377  0.00  0.00     0.004 C 
HETATM    6  C   UNK N   1      24.522   9.928   0.296  0.00  0.00     0.027 C 
HETATM    7  C   UNK N   1      24.314  11.397   0.311  0.00  0.00    -0.030 C 
HETATM    8  C   UNK N   1      23.642  12.008   1.282  0.00  0.00    -0.023 C 
HETATM    9  C   UNK N   1      23.958  13.443   1.434  0.00  0.00     0.048 A 
HETATM   10  C   UNK N   1      22.971  14.412   1.214  0.00  0.00     0.053 A 
HETATM   11  C   UNK N   1      23.339  14.084   2.716  0.00  0.00     0.122 A 
HETATM   12  N   UNK N   1      24.622  14.484   3.268  0.00  0.00    -0.341 N 
HETATM   13  C   UNK N   1      24.925  14.774   4.560  0.00  0.00     0.241 C 
HETATM   14  O   UNK N   1      24.040  14.955   5.386  0.00  0.00    -0.271 OA
HETATM   15  C   UNK N   1      26.392  14.775   4.976  0.00  0.00     0.181 C 
HETATM   16  C   UNK N   1      26.618  15.602   6.239  0.00  0.00     0.069 C 
HETATM   17  C   UNK N   1      26.768  17.014   5.680  0.00  0.00     0.154 C 
HETATM   18  C   UNK N   1      27.295  16.891   4.254  0.00  0.00     0.159 C 
HETATM   19  N   UNK N   1      27.183  15.475   3.998  0.00  0.00    -0.334 N 
HETATM   20  C   UNK N   1      28.013  14.846   3.105  0.00  0.00     0.243 C 
HETATM   21  O   UNK N   1      28.727  15.516   2.376  0.00  0.00    -0.271 OA
HETATM   22  H   UNK N   1      25.364  14.554   2.626  0.00  0.00     0.163 HD
ENDROOT
BRANCH  17  23
HETATM   23  O   UNK N   1      27.431  17.918   6.500  0.00  0.00    -0.297 OA
BRANCH  23  24
HETATM   24  C   UNK N   1      28.403  17.799   7.463  0.00  0.00     0.363 C 
HETATM   25  O   UNK N   1      28.060  17.976   8.622  0.00  0.00    -0.238 OA
HETATM   26  N   UNK N   1      29.723  17.529   7.205  0.00  0.00    -0.319 N 
HETATM   27  C   UNK N   1      30.285  17.273   5.894  0.00  0.00     0.167 A 
HETATM   28  C   UNK N   1      30.708  17.519   8.282  0.00  0.00     0.170 A 
HETATM   29  C   UNK N   1      31.726  17.157   6.200  0.00  0.00    -0.029 A 
HETATM   30  C   UNK N   1      32.764  16.950   5.296  0.00  0.00     0.009 A 
HETATM   31  C   UNK N   1      31.966  17.302   7.537  0.00  0.00     0.006 A 
HETATM   32  C   UNK N   1      34.080  16.891   5.781  0.00  0.00     0.004 A 
HETATM   33  C   UNK N   1      34.332  17.043   7.156  0.00  0.00     0.043 A 
HETATM   34  C   UNK N   1      33.267  17.250   8.046  0.00  0.00     0.124 A 
HETATM   35  F   UNK N   1      33.503  17.407   9.371  0.00  0.00    -0.205 F 
ENDBRANCH  23  24
ENDBRANCH  17  23
BRANCH   1  36
HETATM   36  N   UNK N   1      29.402  12.829   3.574  0.00  0.00    -0.324 N 
HETATM   37  C   UNK N   1      30.519  12.597   2.837  0.00  0.00     0.362 C 
HETATM   38  O   UNK N   1      31.542  12.249   3.408  0.00  0.00    -0.238 OA
HETATM   39  H   UNK N   1      29.442  12.642   4.539  0.00  0.00     0.165 HD
BRANCH  37  40
HETATM   40  O   UNK N   1      30.499  12.727   1.480  0.00  0.00    -0.294 OA
BRANCH  40  41
HETATM   41  C   UNK N   1      30.764  11.713   0.569  0.00  0.00     0.061 C 
HETATM   42  C   UNK N   1      30.376  10.350   1.126  0.00  0.00     0.046 C 
HETATM   43  C   UNK N   1      29.945  11.954  -0.681  0.00  0.00     0.046 C 
HETATM   44  C   UNK N   1      32.233  11.711   0.182  0.00  0.00     0.046 C 
ENDBRANCH  40  41
ENDBRANCH  37  40
ENDBRANCH   1  36
BRANCH  11  45
HETATM   45  C   UNK N   1      22.242  15.032   3.199  0.00  0.00     0.260 C 
HETATM   46  O   UNK N   1      21.111  14.607   3.416  0.00  0.00    -0.270 OA
HETATM   47  N   UNK N   1      22.516  16.347   3.386  0.00  0.00    -0.252 N 
HETATM   48  H   UNK N   1      23.409  16.681   3.147  0.00  0.00     0.181 HD
BRANCH  47  49
HETATM   49  S   UNK N   1      21.332  17.484   4.042  0.00  0.00     0.237 S 
HETATM   50  O   UNK N   1      22.187  18.728   4.326  0.00  0.00    -0.205 OA
HETATM   51  O   UNK N   1      21.060  17.024   5.483  0.00  0.00    -0.205 OA
BRANCH  49  52
HETATM   52  C   UNK N   1      19.845  18.013   3.119  0.00  0.00     0.130 A 
HETATM   53  C   UNK N   1      20.009  17.672   1.648  0.00  0.00     0.023 A 
HETATM   54  C   UNK N   1      20.179  19.097   2.116  0.00  0.00     0.023 A 
ENDBRANCH  49  52
ENDBRANCH  47  49
ENDBRANCH  11  45
TORSDOF 8
ENDMDL
MODEL 3
REMARK VINA RESULT:      -8.8      3.928      9.435
REMARK  8 active torsions:
REMARK  status: ('A' for Active; 'I' for Inactive)
REMARK    1  A    between atoms: C_2  and  O_5 
REMARK    2  A    between atoms: O_5  and  C_6 
REMARK       I    between atoms: C_6  and  N_8 
REMARK    3  A    between atoms: C_9  and  N_8 
REMARK    4  A    between atoms: C_19  and  C_43 
REMARK    5  A    between atoms: C_25  and  O_30 
REMARK    6  A    between atoms: O_30  and  C_31 
REMARK       I    between atoms: C_31  and  N_33 
REMARK       I    between atoms: C_43  and  N_45 
REMARK    7  A    between atoms: N_45  and  S_46 
REMARK    8  A    between atoms: S_46  and  C_49 
ROOT
HETATM    1  C   UNK N   1      32.567  16.151   8.269  0.00  0.00     0.179 C 
HETATM    2  C   UNK N   1      33.318  16.463   6.979  0.00  0.00     0.035 C 
HETATM    3  C   UNK N   1      32.359  16.444   5.796  0.00  0.00     0.002 C 
HETATM    4  C   UNK N   1      32.675  17.586   4.833  0.00  0.00     0.000 C 
HETATM    5  C   UNK N   1      32.210  17.265   3.407  0.00  0.00     0.004 C 
HETATM    6  C   UNK N   1      33.243  16.438   2.630  0.00  0.00     0.027 C 
HETATM    7  C   UNK N   1      33.417  15.150   3.347  0.00  0.00    -0.030 C 
HETATM    8  C   UNK N   1      34.582  14.786   3.875  0.00  0.00    -0.023 C 
HETATM    9  C   UNK N   1      34.475  13.784   4.957  0.00  0.00     0.048 A 
HETATM   10  C   UNK N   1      35.041  12.513   4.803  0.00  0.00     0.053 A 
HETATM   11  C   UNK N   1      35.817  13.543   5.716  0.00  0.00     0.122 A 
HETATM   12  N   UNK N   1      35.282  13.935   7.010  0.00  0.00    -0.341 N 
HETATM   13  C   UNK N   1      35.964  14.343   8.110  0.00  0.00     0.241 C 
HETATM   14  O   UNK N   1      37.176  14.192   8.188  0.00  0.00    -0.271 OA
HETATM   15  C   UNK N   1      35.199  15.079   9.204  0.00  0.00     0.181 C 
HETATM   16  C   UNK N   1      35.922  15.003  10.546  0.00  0.00     0.069 C 
HETATM   17  C   UNK N   1      35.440  13.665  11.099  0.00  0.00     0.154 C 
HETATM   18  C   UNK N   1      34.069  13.384  10.493  0.00  0.00     0.159 C 
HETATM   19  N   UNK N   1      33.957  14.405   9.479  0.00  0.00    -0.334 N 
HETATM   20  C   UNK N   1      32.734  14.877   9.077  0.00  0.00     0.243 C 
HETATM   21  O   UNK N   1      31.720  14.300   9.438  0.00  0.00    -0.271 OA
HETATM   22  H   UNK N   1      34.303  13.900   7.098  0.00  0.00     0.163 HD
ENDROOT
BRANCH  17  23
HETATM   23  O   UNK N   1      35.542  13.511  12.475  0.00  0.00    -0.297 OA
BRANCH  23  24
HETATM   24  C   UNK N   1      35.666  12.426  13.309  0.00  0.00     0.363 C 
HETATM   25  O   UNK N   1      35.782  11.330  12.780  0.00  0.00    -0.238 OA
HETATM   26  N   UNK N   1      35.637  12.491  14.679  0.00  0.00    -0.319 N 
HETATM   27  C   UNK N   1      35.528  13.709  15.457  0.00  0.00     0.167 A 
HETATM   28  C   UNK N   1      35.676  11.276  15.487  0.00  0.00     0.170 A 
HETATM   29  C   UNK N   1      35.437  13.181  16.834  0.00  0.00    -0.029 A 
HETATM   30  C   UNK N   1      35.275  13.913  18.007  0.00  0.00     0.009 A 
HETATM   31  C   UNK N   1      35.513  11.817  16.852  0.00  0.00     0.006 A 
HETATM   32  C   UNK N   1      35.186  13.224  19.226  0.00  0.00     0.004 A 
HETATM   33  C   UNK N   1      35.258  11.819  19.249  0.00  0.00     0.043 A 
HETATM   34  C   UNK N   1      35.424  11.105  18.052  0.00  0.00     0.124 A 
HETATM   35  F   UNK N   1      35.486   9.752  18.066  0.00  0.00    -0.205 F 
ENDBRANCH  23  24
ENDBRANCH  17  23
BRANCH   1  36
HETATM   36  N   UNK N   1      32.041  17.271   9.020  0.00  0.00    -0.324 N 
HETATM   37  C   UNK N   1      30.894  17.931   8.713  0.00  0.00     0.362 C 
HETATM   38  O   UNK N   1      30.497  18.809   9.465  0.00  0.00    -0.238 OA
HETATM   39  H   UNK N   1      32.547  17.573   9.808  0.00  0.00     0.165 HD
BRANCH  37  40
HETATM   40  O   UNK N   1      30.204  17.639   7.574  0.00  0.00    -0.294 OA
BRANCH  40  41
HETATM   41  C   UNK N   1      28.823  17.548   7.469  0.00  0.00     0.061 C 
HETATM   42  C   UNK N   1      28.182  17.226   8.812  0.00  0.00     0.046 C 
HETATM   43  C   UNK N   1      28.279  18.881   7.003  0.00  0.00     0.046 C 
HETATM   44  C   UNK N   1      28.432  16.493   6.448  0.00  0.00     0.046 C 
ENDBRANCH  40  41
ENDBRANCH  37  40
ENDBRANCH   1  36
BRANCH  11  45
HETATM   45  C   UNK N   1      36.951  12.536   5.902  0.00  0.00     0.260 C 
HETATM   46  O   UNK N   1      36.715  11.416   6.346  0.00  0.00    -0.270 OA
HETATM   47  N   UNK N   1      38.222  12.878   5.578  0.00  0.00    -0.252 N 
HETATM   48  H   UNK N   1      38.402  13.800   5.284  0.00  0.00     0.181 HD
BRANCH  47  49
HETATM   49  S   UNK N   1      39.570  11.738   5.664  0.00  0.00     0.237 S 
HETATM   50  O   UNK N   1      40.737  12.557   5.097  0.00  0.00    -0.205 OA
HETATM   51  O   UNK N   1      39.360  10.750   4.504  0.00  0.00    -0.205 OA
BRANCH  49  52
HETATM   52  C   UNK N   1      40.121  10.967   7.228  0.00  0.00     0.130 A 
HETATM   53  C   UNK N   1      39.834  11.905   8.388  0.00  0.00     0.023 A 
HETATM   54  C   UNK N   1      41.243  11.761   7.865  0.00  0.00     0.023 A 
ENDBRANCH  49  52
ENDBRANCH  47  49
ENDBRANCH  11  45
TORSDOF 8
ENDMDL
MODEL 4
REMARK VINA RESULT:      -8.6      4.400      9.462
REMARK  8 active torsions:
REMARK  status: ('A' for Active; 'I' for Inactive)
REMARK    1  A    between atoms: C_2  and  O_5 
REMARK    2  A    between atoms: O_5  and  C_6 
REMARK       I    between atoms: C_6  and  N_8 
REMARK    3  A    between atoms: C_9  and  N_8 
REMARK    4  A    between atoms: C_19  and  C_43 
REMARK    5  A    between atoms: C_25  and  O_30 
REMARK    6  A    between atoms: O_30  and  C_31 
REMARK       I    between atoms: C_31  and  N_33 
REMARK       I    between atoms: C_43  and  N_45 
REMARK    7  A    between atoms: N_45  and  S_46 
REMARK    8  A    between atoms: S_46  and  C_49 
ROOT
HETATM    1  C   UNK N   1      30.290  16.501   3.911  0.00  0.00     0.179 C 
HETATM    2  C   UNK N   1      29.794  16.379   5.348  0.00  0.00     0.035 C 
HETATM    3  C   UNK N   1      29.344  17.738   5.864  0.00  0.00     0.002 C 
HETATM    4  C   UNK N   1      28.067  17.602   6.689  0.00  0.00     0.000 C 
HETATM    5  C   UNK N   1      27.928  18.742   7.706  0.00  0.00     0.004 C 
HETATM    6  C   UNK N   1      28.695  18.461   9.005  0.00  0.00     0.027 C 
HETATM    7  C   UNK N   1      30.133  18.340   8.659  0.00  0.00    -0.030 C 
HETATM    8  C   UNK N   1      30.816  17.216   8.854  0.00  0.00    -0.023 C 
HETATM    9  C   UNK N   1      32.027  17.083   8.017  0.00  0.00     0.048 A 
HETATM   10  C   UNK N   1      33.294  17.030   8.608  0.00  0.00     0.053 A 
HETATM   11  C   UNK N   1      32.682  15.669   8.090  0.00  0.00     0.122 A 
HETATM   12  N   UNK N   1      32.547  15.412   6.666  0.00  0.00    -0.341 N 
HETATM   13  C   UNK N   1      32.558  14.215   6.025  0.00  0.00     0.241 C 
HETATM   14  O   UNK N   1      32.931  13.200   6.599  0.00  0.00    -0.271 OA
HETATM   15  C   UNK N   1      32.004  14.149   4.606  0.00  0.00     0.181 C 
HETATM   16  C   UNK N   1      32.544  12.940   3.846  0.00  0.00     0.069 C 
HETATM   17  C   UNK N   1      33.875  13.462   3.311  0.00  0.00     0.154 C 
HETATM   18  C   UNK N   1      33.751  14.975   3.163  0.00  0.00     0.159 C 
HETATM   19  N   UNK N   1      32.502  15.254   3.829  0.00  0.00    -0.334 N 
HETATM   20  C   UNK N   1      31.738  16.339   3.482  0.00  0.00     0.243 C 
HETATM   21  O   UNK N   1      32.203  17.186   2.736  0.00  0.00    -0.271 OA
HETATM   22  H   UNK N   1      32.434  16.205   6.095  0.00  0.00     0.163 HD
ENDROOT
BRANCH  17  23
HETATM   23  O   UNK N   1      34.391  12.781   2.216  0.00  0.00    -0.297 OA
BRANCH  23  24
HETATM   24  C   UNK N   1      34.134  12.808   0.867  0.00  0.00     0.363 C 
HETATM   25  O   UNK N   1      34.761  13.616   0.199  0.00  0.00    -0.238 OA
HETATM   26  N   UNK N   1      33.208  12.016   0.236  0.00  0.00    -0.319 N 
HETATM   27  C   UNK N   1      32.402  10.997   0.879  0.00  0.00     0.167 A 
HETATM   28  C   UNK N   1      32.928  12.180  -1.186  0.00  0.00     0.170 A 
HETATM   29  C   UNK N   1      31.532  10.556  -0.232  0.00  0.00    -0.029 A 
HETATM   30  C   UNK N   1      30.516   9.605  -0.178  0.00  0.00     0.009 A 
HETATM   31  C   UNK N   1      31.821  11.223  -1.388  0.00  0.00     0.006 A 
HETATM   32  C   UNK N   1      29.780   9.337  -1.342  0.00  0.00     0.004 A 
HETATM   33  C   UNK N   1      30.071  10.025  -2.535  0.00  0.00     0.043 A 
HETATM   34  C   UNK N   1      31.102  10.978  -2.561  0.00  0.00     0.124 A 
HETATM   35  F   UNK N   1      31.382  11.650  -3.704  0.00  0.00    -0.205 F 
ENDBRANCH  23  24
ENDBRANCH  17  23
BRANCH   1  36
HETATM   36  N   UNK N   1      29.326  16.286   2.853  0.00  0.00    -0.324 N 
HETATM   37  C   UNK N   1      28.732  15.094   2.586  0.00  0.00     0.362 C 
HETATM   38  O   UNK N   1      27.868  15.045   1.722  0.00  0.00    -0.238 OA
HETATM   39  H   UNK N   1      29.084  17.056   2.290  0.00  0.00     0.165 HD
BRANCH  37  40
HETATM   40  O   UNK N   1      29.104  13.964   3.250  0.00  0.00    -0.294 OA
BRANCH  40  41
HETATM   41  C   UNK N   1      28.238  13.052   3.839  0.00  0.00     0.061 C 
HETATM   42  C   UNK N   1      27.396  12.331   2.795  0.00  0.00     0.046 C 
HETATM   43  C   UNK N   1      29.052  12.012   4.578  0.00  0.00     0.046 C 
HETATM   44  C   UNK N   1      27.331  13.745   4.841  0.00  0.00     0.046 C 
ENDBRANCH  40  41
ENDBRANCH  37  40
ENDBRANCH   1  36
BRANCH  11  45
HETATM   45  C   UNK N   1      33.884  14.907   8.648  0.00  0.00     0.260 C 
HETATM   46  O   UNK N   1      35.017  15.173   8.259  0.00  0.00    -0.270 OA
HETATM   47  N   UNK N   1      33.700  13.934   9.574  0.00  0.00    -0.252 N 
HETATM   48  H   UNK N   1      32.781  13.691   9.828  0.00  0.00     0.181 HD
BRANCH  47  49
HETATM   49  S   UNK N   1      35.044  13.082  10.344  0.00  0.00     0.237 S 
HETATM   50  O   UNK N   1      35.747  12.421   9.150  0.00  0.00    -0.205 OA
HETATM   51  O   UNK N   1      34.430  11.837  11.004  0.00  0.00    -0.205 OA
BRANCH  49  52
HETATM   52  C   UNK N   1      36.311  13.931  11.353  0.00  0.00     0.130 A 
HETATM   53  C   UNK N   1      35.747  14.238  12.729  0.00  0.00     0.023 A 
HETATM   54  C   UNK N   1      35.878  15.339  11.706  0.00  0.00     0.023 A 
ENDBRANCH  49  52
ENDBRANCH  47  49
ENDBRANCH  11  45
TORSDOF 8
ENDMDL
MODEL 5
REMARK VINA RESULT:      -8.6      4.834     10.064
REMARK  8 active torsions:
REMARK  status: ('A' for Active; 'I' for Inactive)
REMARK    1  A    between atoms: C_2  and  O_5 
REMARK    2  A    between atoms: O_5  and  C_6 
REMARK       I    between atoms: C_6  and  N_8 
REMARK    3  A    between atoms: C_9  and  N_8 
REMARK    4  A    between atoms: C_19  and  C_43 
REMARK    5  A    between atoms: C_25  and  O_30 
REMARK    6  A    between atoms: O_30  and  C_31 
REMARK       I    between atoms: C_31  and  N_33 
REMARK       I    between atoms: C_43  and  N_45 
REMARK    7  A    between atoms: N_45  and  S_46 
REMARK    8  A    between atoms: S_46  and  C_49 
ROOT
HETATM    1  C   UNK N   1      29.234  16.125   4.669  0.00  0.00     0.179 C 
HETATM    2  C   UNK N   1      29.380  16.177   6.186  0.00  0.00     0.035 C 
HETATM    3  C   UNK N   1      29.036  17.568   6.699  0.00  0.00     0.002 C 
HETATM    4  C   UNK N   1      28.227  17.478   7.990  0.00  0.00     0.000 C 
HETATM    5  C   UNK N   1      28.392  18.739   8.848  0.00  0.00     0.004 C 
HETATM    6  C   UNK N   1      29.646  18.683   9.731  0.00  0.00     0.027 C 
HETATM    7  C   UNK N   1      30.824  18.594   8.832  0.00  0.00    -0.030 C 
HETATM    8  C   UNK N   1      31.643  17.546   8.841  0.00  0.00    -0.023 C 
HETATM    9  C   UNK N   1      32.415  17.365   7.594  0.00  0.00     0.048 A 
HETATM   10  C   UNK N   1      33.811  17.464   7.605  0.00  0.00     0.053 A 
HETATM   11  C   UNK N   1      33.191  16.012   7.534  0.00  0.00     0.122 A 
HETATM   12  N   UNK N   1      32.517  15.553   6.330  0.00  0.00    -0.341 N 
HETATM   13  C   UNK N   1      32.395  14.281   5.871  0.00  0.00     0.241 C 
HETATM   14  O   UNK N   1      33.074  13.378   6.339  0.00  0.00    -0.271 OA
HETATM   15  C   UNK N   1      31.323  13.989   4.827  0.00  0.00     0.181 C 
HETATM   16  C   UNK N   1      31.633  12.718   4.042  0.00  0.00     0.069 C 
HETATM   17  C   UNK N   1      32.568  13.232   2.950  0.00  0.00     0.154 C 
HETATM   18  C   UNK N   1      32.233  14.700   2.711  0.00  0.00     0.159 C 
HETATM   19  N   UNK N   1      31.340  15.001   3.804  0.00  0.00    -0.334 N 
HETATM   20  C   UNK N   1      30.390  15.984   3.696  0.00  0.00     0.243 C 
HETATM   21  O   UNK N   1      30.419  16.744   2.740  0.00  0.00    -0.271 OA
HETATM   22  H   UNK N   1      32.097  16.252   5.779  0.00  0.00     0.163 HD
ENDROOT
BRANCH  17  23
HETATM   23  O   UNK N   1      32.664  12.435   1.816  0.00  0.00    -0.297 OA
BRANCH  23  24
HETATM   24  C   UNK N   1      33.389  12.512   0.652  0.00  0.00     0.363 C 
HETATM   25  O   UNK N   1      34.339  13.281   0.641  0.00  0.00    -0.238 OA
HETATM   26  N   UNK N   1      33.100  11.812  -0.492  0.00  0.00    -0.319 N 
HETATM   27  C   UNK N   1      32.027  10.849  -0.635  0.00  0.00     0.167 A 
HETATM   28  C   UNK N   1      33.865  12.030  -1.715  0.00  0.00     0.170 A 
HETATM   29  C   UNK N   1      32.120  10.505  -2.069  0.00  0.00    -0.029 A 
HETATM   30  C   UNK N   1      31.294   9.640  -2.782  0.00  0.00     0.009 A 
HETATM   31  C   UNK N   1      33.145  11.171  -2.678  0.00  0.00     0.006 A 
HETATM   32  C   UNK N   1      31.529   9.459  -4.153  0.00  0.00     0.004 A 
HETATM   33  C   UNK N   1      32.581  10.146  -4.785  0.00  0.00     0.043 A 
HETATM   34  C   UNK N   1      33.400  11.012  -4.043  0.00  0.00     0.124 A 
HETATM   35  F   UNK N   1      34.410  11.684  -4.647  0.00  0.00    -0.205 F 
ENDBRANCH  23  24
ENDBRANCH  17  23
BRANCH   1  36
HETATM   36  N   UNK N   1      27.952  15.713   4.138  0.00  0.00    -0.324 N 
HETATM   37  C   UNK N   1      27.083  16.540   3.501  0.00  0.00     0.362 C 
HETATM   38  O   UNK N   1      26.064  16.068   3.016  0.00  0.00    -0.238 OA
HETATM   39  H   UNK N   1      27.692  14.770   4.244  0.00  0.00     0.165 HD
BRANCH  37  40
HETATM   40  O   UNK N   1      27.327  17.879   3.418  0.00  0.00    -0.294 OA
BRANCH  40  41
HETATM   41  C   UNK N   1      26.587  18.873   4.045  0.00  0.00     0.061 C 
HETATM   42  C   UNK N   1      25.833  18.330   5.251  0.00  0.00     0.046 C 
HETATM   43  C   UNK N   1      27.531  19.950   4.534  0.00  0.00     0.046 C 
HETATM   44  C   UNK N   1      25.608  19.506   3.070  0.00  0.00     0.046 C 
ENDBRANCH  40  41
ENDBRANCH  37  40
ENDBRANCH   1  36
BRANCH  11  45
HETATM   45  C   UNK N   1      34.590  15.402   7.616  0.00  0.00     0.260 C 
HETATM   46  O   UNK N   1      35.425  15.655   6.752  0.00  0.00    -0.270 OA
HETATM   47  N   UNK N   1      34.911  14.578   8.644  0.00  0.00    -0.252 N 
HETATM   48  H   UNK N   1      34.210  14.336   9.291  0.00  0.00     0.181 HD
BRANCH  47  49
HETATM   49  S   UNK N   1      36.535  13.918   8.866  0.00  0.00     0.237 S 
HETATM   50  O   UNK N   1      36.312  12.833   9.930  0.00  0.00    -0.205 OA
HETATM   51  O   UNK N   1      37.298  14.953   9.709  0.00  0.00    -0.205 OA
BRANCH  49  52
HETATM   52  C   UNK N   1      37.506  13.186   7.500  0.00  0.00     0.130 A 
HETATM   53  C   UNK N   1      36.600  12.331   6.631  0.00  0.00     0.023 A 
HETATM   54  C   UNK N   1      37.548  11.675   7.605  0.00  0.00     0.023 A 
ENDBRANCH  49  52
ENDBRANCH  47  49
ENDBRANCH  11  45
TORSDOF 8
ENDMDL
MODEL 6
REMARK VINA RESULT:      -8.5      4.398      9.698
REMARK  8 active torsions:
REMARK  status: ('A' for Active; 'I' for Inactive)
REMARK    1  A    between atoms: C_2  and  O_5 
REMARK    2  A    between atoms: O_5  and  C_6 
REMARK       I    between atoms: C_6  and  N_8 
REMARK    3  A    between atoms: C_9  and  N_8 
REMARK    4  A    between atoms: C_19  and  C_43 
REMARK    5  A    between atoms: C_25  and  O_30 
REMARK    6  A    between atoms: O_30  and  C_31 
REMARK       I    between atoms: C_31  and  N_33 
REMARK       I    between atoms: C_43  and  N_45 
REMARK    7  A    between atoms: N_45  and  S_46 
REMARK    8  A    between atoms: S_46  and  C_49 
ROOT
HETATM    1  C   UNK N   1      29.758  15.986   4.561  0.00  0.00     0.179 C 
HETATM    2  C   UNK N   1      29.683  16.069   6.081  0.00  0.00     0.035 C 
HETATM    3  C   UNK N   1      29.170  17.438   6.507  0.00  0.00     0.002 C 
HETATM    4  C   UNK N   1      28.193  17.305   7.673  0.00  0.00     0.000 C 
HETATM    5  C   UNK N   1      28.142  18.586   8.515  0.00  0.00     0.004 C 
HETATM    6  C   UNK N   1      29.258  18.636   9.567  0.00  0.00     0.027 C 
HETATM    7  C   UNK N   1      30.555  18.623   8.846  0.00  0.00    -0.030 C 
HETATM    8  C   UNK N   1      31.438  17.640   8.995  0.00  0.00    -0.023 C 
HETATM    9  C   UNK N   1      32.392  17.500   7.875  0.00  0.00     0.048 A 
HETATM   10  C   UNK N   1      33.761  17.703   8.082  0.00  0.00     0.053 A 
HETATM   11  C   UNK N   1      33.263  16.208   7.958  0.00  0.00     0.122 A 
HETATM   12  N   UNK N   1      32.803  15.684   6.683  0.00  0.00    -0.341 N 
HETATM   13  C   UNK N   1      32.840  14.400   6.242  0.00  0.00     0.241 C 
HETATM   14  O   UNK N   1      33.509  13.556   6.823  0.00  0.00    -0.271 OA
HETATM   15  C   UNK N   1      31.952  14.014   5.064  0.00  0.00     0.181 C 
HETATM   16  C   UNK N   1      32.463  12.760   4.361  0.00  0.00     0.069 C 
HETATM   17  C   UNK N   1      33.504  13.327   3.400  0.00  0.00     0.154 C 
HETATM   18  C   UNK N   1      33.102  14.763   3.081  0.00  0.00     0.159 C 
HETATM   19  N   UNK N   1      32.042  15.011   4.029  0.00  0.00    -0.334 N 
HETATM   20  C   UNK N   1      31.049  15.919   3.764  0.00  0.00     0.243 C 
HETATM   21  O   UNK N   1      31.159  16.665   2.804  0.00  0.00    -0.271 OA
HETATM   22  H   UNK N   1      32.418  16.342   6.061  0.00  0.00     0.163 HD
ENDROOT
BRANCH  17  23
HETATM   23  O   UNK N   1      33.818  12.525   2.311  0.00  0.00    -0.297 OA
BRANCH  23  24
HETATM   24  C   UNK N   1      33.587  12.615   0.960  0.00  0.00     0.363 C 
HETATM   25  O   UNK N   1      34.180  13.493   0.353  0.00  0.00    -0.238 OA
HETATM   26  N   UNK N   1      32.720  11.809   0.265  0.00  0.00    -0.319 N 
HETATM   27  C   UNK N   1      31.961  10.712   0.830  0.00  0.00     0.167 A 
HETATM   28  C   UNK N   1      32.460  12.039  -1.153  0.00  0.00     0.170 A 
HETATM   29  C   UNK N   1      31.140  10.287  -0.323  0.00  0.00    -0.029 A 
HETATM   30  C   UNK N   1      30.179   9.280  -0.347  0.00  0.00     0.009 A 
HETATM   31  C   UNK N   1      31.413  11.034  -1.433  0.00  0.00     0.006 A 
HETATM   32  C   UNK N   1      29.483   9.039  -1.541  0.00  0.00     0.004 A 
HETATM   33  C   UNK N   1      29.758   9.809  -2.685  0.00  0.00     0.043 A 
HETATM   34  C   UNK N   1      30.733  10.817  -2.635  0.00  0.00     0.124 A 
HETATM   35  F   UNK N   1      30.997  11.568  -3.731  0.00  0.00    -0.205 F 
ENDBRANCH  23  24
ENDBRANCH  17  23
BRANCH   1  36
HETATM   36  N   UNK N   1      28.599  15.472   3.864  0.00  0.00    -0.324 N 
HETATM   37  C   UNK N   1      27.632  16.247   3.305  0.00  0.00     0.362 C 
HETATM   38  O   UNK N   1      26.739  15.709   2.666  0.00  0.00    -0.238 OA
HETATM   39  H   UNK N   1      28.504  14.495   3.788  0.00  0.00     0.165 HD
BRANCH  37  40
HETATM   40  O   UNK N   1      27.641  17.600   3.470  0.00  0.00    -0.294 OA
BRANCH  40  41
HETATM   41  C   UNK N   1      26.636  18.345   4.071  0.00  0.00     0.061 C 
HETATM   42  C   UNK N   1      27.199  19.566   4.786  0.00  0.00     0.046 C 
HETATM   43  C   UNK N   1      25.683  18.833   3.001  0.00  0.00     0.046 C 
HETATM   44  C   UNK N   1      25.851  17.492   5.053  0.00  0.00     0.046 C 
ENDBRANCH  40  41
ENDBRANCH  37  40
ENDBRANCH   1  36
BRANCH  11  45
HETATM   45  C   UNK N   1      34.677  15.706   8.252  0.00  0.00     0.260 C 
HETATM   46  O   UNK N   1      35.585  15.917   7.453  0.00  0.00    -0.270 OA
HETATM   47  N   UNK N   1      34.929  15.023   9.396  0.00  0.00    -0.252 N 
HETATM   48  H   UNK N   1      34.178  14.808   9.993  0.00  0.00     0.181 HD
BRANCH  47  49
HETATM   49  S   UNK N   1      36.554  14.501   9.857  0.00  0.00     0.237 S 
HETATM   50  O   UNK N   1      36.290  13.658  11.112  0.00  0.00    -0.205 OA
HETATM   51  O   UNK N   1      37.221  15.726  10.504  0.00  0.00    -0.205 OA
BRANCH  49  52
HETATM   52  C   UNK N   1      37.644  13.543   8.744  0.00  0.00     0.130 A 
HETATM   53  C   UNK N   1      36.811  12.568   7.930  0.00  0.00     0.023 A 
HETATM   54  C   UNK N   1      37.628  12.070   9.097  0.00  0.00     0.023 A 
ENDBRANCH  49  52
ENDBRANCH  47  49
ENDBRANCH  11  45
TORSDOF 8
ENDMDL
MODEL 7
REMARK VINA RESULT:      -8.1      4.769     10.091
REMARK  8 active torsions:
REMARK  status: ('A' for Active; 'I' for Inactive)
REMARK    1  A    between atoms: C_2  and  O_5 
REMARK    2  A    between atoms: O_5  and  C_6 
REMARK       I    between atoms: C_6  and  N_8 
REMARK    3  A    between atoms: C_9  and  N_8 
REMARK    4  A    between atoms: C_19  and  C_43 
REMARK    5  A    between atoms: C_25  and  O_30 
REMARK    6  A    between atoms: O_30  and  C_31 
REMARK       I    between atoms: C_31  and  N_33 
REMARK       I    between atoms: C_43  and  N_45 
REMARK    7  A    between atoms: N_45  and  S_46 
REMARK    8  A    between atoms: S_46  and  C_49 
ROOT
HETATM    1  C   UNK N   1      34.750  14.669   8.894  0.00  0.00     0.179 C 
HETATM    2  C   UNK N   1      34.962  13.844   7.629  0.00  0.00     0.035 C 
HETATM    3  C   UNK N   1      33.785  14.024   6.681  0.00  0.00     0.002 C 
HETATM    4  C   UNK N   1      34.271  14.135   5.239  0.00  0.00     0.000 C 
HETATM    5  C   UNK N   1      33.190  13.697   4.243  0.00  0.00     0.004 C 
HETATM    6  C   UNK N   1      33.175  12.177   4.031  0.00  0.00     0.027 C 
HETATM    7  C   UNK N   1      32.867  11.545   5.338  0.00  0.00    -0.030 C 
HETATM    8  C   UNK N   1      33.722  10.732   5.950  0.00  0.00    -0.023 C 
HETATM    9  C   UNK N   1      33.513  10.610   7.408  0.00  0.00     0.048 A 
HETATM   10  C   UNK N   1      33.156   9.380   7.972  0.00  0.00     0.053 A 
HETATM   11  C   UNK N   1      34.658   9.842   8.139  0.00  0.00     0.122 A 
HETATM   12  N   UNK N   1      34.998  10.956   9.010  0.00  0.00    -0.341 N 
HETATM   13  C   UNK N   1      36.158  11.171   9.681  0.00  0.00     0.241 C 
HETATM   14  O   UNK N   1      36.989  10.281   9.798  0.00  0.00    -0.271 OA
HETATM   15  C   UNK N   1      36.443  12.576  10.200  0.00  0.00     0.181 C 
HETATM   16  C   UNK N   1      37.458  12.561  11.339  0.00  0.00     0.069 C 
HETATM   17  C   UNK N   1      36.578  12.281  12.555  0.00  0.00     0.154 C 
HETATM   18  C   UNK N   1      35.181  12.807  12.242  0.00  0.00     0.159 C 
HETATM   19  N   UNK N   1      35.269  13.116  10.835  0.00  0.00    -0.334 N 
HETATM   20  C   UNK N   1      34.481  14.086  10.269  0.00  0.00     0.243 C 
HETATM   21  O   UNK N   1      33.562  14.564  10.915  0.00  0.00    -0.271 OA
HETATM   22  H   UNK N   1      34.298  11.637   9.128  0.00  0.00     0.163 HD
ENDROOT
BRANCH  17  23
HETATM   23  O   UNK N   1      37.111  12.655  13.781  0.00  0.00    -0.297 OA
BRANCH  23  24
HETATM   24  C   UNK N   1      36.589  13.230  14.915  0.00  0.00     0.363 C 
HETATM   25  O   UNK N   1      36.541  14.450  14.946  0.00  0.00    -0.238 OA
HETATM   26  N   UNK N   1      36.152  12.530  16.011  0.00  0.00    -0.319 N 
HETATM   27  C   UNK N   1      36.121  11.085  16.124  0.00  0.00     0.167 A 
HETATM   28  C   UNK N   1      35.704  13.226  17.212  0.00  0.00     0.170 A 
HETATM   29  C   UNK N   1      35.674  10.901  17.520  0.00  0.00    -0.029 A 
HETATM   30  C   UNK N   1      35.503   9.697  18.197  0.00  0.00     0.009 A 
HETATM   31  C   UNK N   1      35.446  12.100  18.134  0.00  0.00     0.006 A 
HETATM   32  C   UNK N   1      35.091   9.728  19.538  0.00  0.00     0.004 A 
HETATM   33  C   UNK N   1      34.860  10.961  20.176  0.00  0.00     0.043 A 
HETATM   34  C   UNK N   1      35.037  12.160  19.469  0.00  0.00     0.124 A 
HETATM   35  F   UNK N   1      34.825  13.351  20.080  0.00  0.00    -0.205 F 
ENDBRANCH  23  24
ENDBRANCH  17  23
BRANCH   1  36
HETATM   36  N   UNK N   1      35.288  16.013   8.909  0.00  0.00    -0.324 N 
HETATM   37  C   UNK N   1      34.546  17.135   9.100  0.00  0.00     0.362 C 
HETATM   38  O   UNK N   1      35.115  18.214   9.179  0.00  0.00    -0.238 OA
HETATM   39  H   UNK N   1      36.257  16.121   8.773  0.00  0.00     0.165 HD
BRANCH  37  40
HETATM   40  O   UNK N   1      33.187  17.067   9.181  0.00  0.00    -0.294 OA
BRANCH  40  41
HETATM   41  C   UNK N   1      32.304  17.319   8.140  0.00  0.00     0.061 C 
HETATM   42  C   UNK N   1      31.392  16.127   7.883  0.00  0.00     0.046 C 
HETATM   43  C   UNK N   1      31.432  18.498   8.513  0.00  0.00     0.046 C 
HETATM   44  C   UNK N   1      33.059  17.670   6.870  0.00  0.00     0.046 C 
ENDBRANCH  40  41
ENDBRANCH  37  40
ENDBRANCH   1  36
BRANCH  11  45
HETATM   45  C   UNK N   1      34.997   8.519   8.824  0.00  0.00     0.260 C 
HETATM   46  O   UNK N   1      35.517   7.609   8.185  0.00  0.00    -0.270 OA
HETATM   47  N   UNK N   1      34.721   8.346  10.141  0.00  0.00    -0.252 N 
HETATM   48  H   UNK N   1      34.247   9.062  10.621  0.00  0.00     0.181 HD
BRANCH  47  49
HETATM   49  S   UNK N   1      35.177   6.888  11.029  0.00  0.00     0.237 S 
HETATM   50  O   UNK N   1      35.034   7.329  12.492  0.00  0.00    -0.205 OA
HETATM   51  O   UNK N   1      36.709   6.799  10.934  0.00  0.00    -0.205 OA
BRANCH  49  52
HETATM   52  C   UNK N   1      34.310   5.290  10.828  0.00  0.00     0.130 A 
HETATM   53  C   UNK N   1      32.824   5.481  11.079  0.00  0.00     0.023 A 
HETATM   54  C   UNK N   1      33.691   4.835  12.133  0.00  0.00     0.023 A 
ENDBRANCH  49  52
ENDBRANCH  47  49
ENDBRANCH  11  45
TORSDOF 8
ENDMDL
MODEL 8
REMARK VINA RESULT:      -8.1      6.060     10.895
REMARK  8 active torsions:
REMARK  status: ('A' for Active; 'I' for Inactive)
REMARK    1  A    between atoms: C_2  and  O_5 
REMARK    2  A    between atoms: O_5  and  C_6 
REMARK       I    between atoms: C_6  and  N_8 
REMARK    3  A    between atoms: C_9  and  N_8 
REMARK    4  A    between atoms: C_19  and  C_43 
REMARK    5  A    between atoms: C_25  and  O_30 
REMARK    6  A    between atoms: O_30  and  C_31 
REMARK       I    between atoms: C_31  and  N_33 
REMARK       I    between atoms: C_43  and  N_45 
REMARK    7  A    between atoms: N_45  and  S_46 
REMARK    8  A    between atoms: S_46  and  C_49 
ROOT
HETATM    1  C   UNK N   1      29.826  16.386   4.514  0.00  0.00     0.179 C 
HETATM    2  C   UNK N   1      28.780  17.391   4.044  0.00  0.00     0.035 C 
HETATM    3  C   UNK N   1      28.514  18.420   5.135  0.00  0.00     0.002 C 
HETATM    4  C   UNK N   1      28.372  19.815   4.533  0.00  0.00     0.000 C 
HETATM    5  C   UNK N   1      27.522  20.730   5.423  0.00  0.00     0.004 C 
HETATM    6  C   UNK N   1      26.018  20.559   5.166  0.00  0.00     0.027 C 
HETATM    7  C   UNK N   1      25.664  19.155   5.494  0.00  0.00    -0.030 C 
HETATM    8  C   UNK N   1      25.188  18.313   4.582  0.00  0.00    -0.023 C 
HETATM    9  C   UNK N   1      25.376  16.885   4.912  0.00  0.00     0.048 A 
HETATM   10  C   UNK N   1      24.267  16.055   5.116  0.00  0.00     0.053 A 
HETATM   11  C   UNK N   1      25.024  15.923   3.735  0.00  0.00     0.122 A 
HETATM   12  N   UNK N   1      26.353  15.338   3.671  0.00  0.00    -0.341 N 
HETATM   13  C   UNK N   1      26.930  14.677   2.635  0.00  0.00     0.241 C 
HETATM   14  O   UNK N   1      26.260  14.296   1.684  0.00  0.00    -0.271 OA
HETATM   15  C   UNK N   1      28.445  14.508   2.638  0.00  0.00     0.181 C 
HETATM   16  C   UNK N   1      28.883  13.345   1.752  0.00  0.00     0.069 C 
HETATM   17  C   UNK N   1      28.739  12.150   2.691  0.00  0.00     0.154 C 
HETATM   18  C   UNK N   1      28.912  12.661   4.117  0.00  0.00     0.159 C 
HETATM   19  N   UNK N   1      28.893  14.094   3.942  0.00  0.00    -0.334 N 
HETATM   20  C   UNK N   1      29.541  14.926   4.819  0.00  0.00     0.243 C 
HETATM   21  O   UNK N   1      29.980  14.471   5.864  0.00  0.00    -0.271 OA
HETATM   22  H   UNK N   1      26.903  15.432   4.482  0.00  0.00     0.163 HD
ENDROOT
BRANCH  17  23
HETATM   23  O   UNK N   1      29.481  11.026   2.352  0.00  0.00    -0.297 OA
BRANCH  23  24
HETATM   24  C   UNK N   1      30.689  10.831   1.726  0.00  0.00     0.363 C 
HETATM   25  O   UNK N   1      31.687  10.847   2.431  0.00  0.00    -0.238 OA
HETATM   26  N   UNK N   1      30.844  10.653   0.374  0.00  0.00    -0.319 N 
HETATM   27  C   UNK N   1      29.766  10.588  -0.591  0.00  0.00     0.167 A 
HETATM   28  C   UNK N   1      32.174  10.553  -0.218  0.00  0.00     0.170 A 
HETATM   29  C   UNK N   1      30.507  10.498  -1.866  0.00  0.00    -0.029 A 
HETATM   30  C   UNK N   1      29.970  10.450  -3.150  0.00  0.00     0.009 A 
HETATM   31  C   UNK N   1      31.857  10.486  -1.660  0.00  0.00     0.006 A 
HETATM   32  C   UNK N   1      30.844  10.390  -4.245  0.00  0.00     0.004 A 
HETATM   33  C   UNK N   1      32.236  10.381  -4.038  0.00  0.00     0.043 A 
HETATM   34  C   UNK N   1      32.750  10.429  -2.733  0.00  0.00     0.124 A 
HETATM   35  F   UNK N   1      34.090  10.429  -2.526  0.00  0.00    -0.205 F 
ENDBRANCH  23  24
ENDBRANCH  17  23
BRANCH   1  36
HETATM   36  N   UNK N   1      31.211  16.674   4.209  0.00  0.00    -0.324 N 
HETATM   37  C   UNK N   1      32.096  17.209   5.090  0.00  0.00     0.362 C 
HETATM   38  O   UNK N   1      33.265  17.333   4.753  0.00  0.00    -0.238 OA
HETATM   39  H   UNK N   1      31.534  16.466   3.303  0.00  0.00     0.165 HD
BRANCH  37  40
HETATM   40  O   UNK N   1      31.689  17.625   6.323  0.00  0.00    -0.294 OA
BRANCH  40  41
HETATM   41  C   UNK N   1      32.093  17.076   7.533  0.00  0.00     0.061 C 
HETATM   42  C   UNK N   1      32.752  15.718   7.335  0.00  0.00     0.046 C 
HETATM   43  C   UNK N   1      33.111  17.997   8.170  0.00  0.00     0.046 C 
HETATM   44  C   UNK N   1      30.914  16.942   8.480  0.00  0.00     0.046 C 
ENDBRANCH  40  41
ENDBRANCH  37  40
ENDBRANCH   1  36
BRANCH  11  45
HETATM   45  C   UNK N   1      23.983  14.913   3.252  0.00  0.00     0.260 C 
HETATM   46  O   UNK N   1      23.763  13.895   3.903  0.00  0.00    -0.270 OA
HETATM   47  N   UNK N   1      23.302  15.138   2.102  0.00  0.00    -0.252 N 
HETATM   48  H   UNK N   1      23.536  15.926   1.561  0.00  0.00     0.181 HD
BRANCH  47  49
HETATM   49  S   UNK N   1      22.011  14.073   1.533  0.00  0.00     0.237 S 
HETATM   50  O   UNK N   1      21.203  14.994   0.608  0.00  0.00    -0.205 OA
HETATM   51  O   UNK N   1      21.021  13.950   2.703  0.00  0.00    -0.205 OA
BRANCH  49  52
HETATM   52  C   UNK N   1      22.333  12.509   0.642  0.00  0.00     0.130 A 
HETATM   53  C   UNK N   1      23.690  11.960   1.049  0.00  0.00     0.023 A 
HETATM   54  C   UNK N   1      23.522  12.642  -0.287  0.00  0.00     0.023 A 
ENDBRANCH  49  52
ENDBRANCH  47  49
ENDBRANCH  11  45
TORSDOF 8
ENDMDL
MODEL 9
REMARK VINA RESULT:      -8.1      3.851      8.988
REMARK  8 active torsions:
REMARK  status: ('A' for Active; 'I' for Inactive)
REMARK    1  A    between atoms: C_2  and  O_5 
REMARK    2  A    between atoms: O_5  and  C_6 
REMARK       I    between atoms: C_6  and  N_8 
REMARK    3  A    between atoms: C_9  and  N_8 
REMARK    4  A    between atoms: C_19  and  C_43 
REMARK    5  A    between atoms: C_25  and  O_30 
REMARK    6  A    between atoms: O_30  and  C_31 
REMARK       I    between atoms: C_31  and  N_33 
REMARK       I    between atoms: C_43  and  N_45 
REMARK    7  A    between atoms: N_45  and  S_46 
REMARK    8  A    between atoms: S_46  and  C_49 
ROOT
HETATM    1  C   UNK N   1      36.905  12.587   6.513  0.00  0.00     0.179 C 
HETATM    2  C   UNK N   1      35.619  12.676   5.699  0.00  0.00     0.035 C 
HETATM    3  C   UNK N   1      35.922  13.165   4.289  0.00  0.00     0.002 C 
HETATM    4  C   UNK N   1      35.091  12.396   3.265  0.00  0.00     0.000 C 
HETATM    5  C   UNK N   1      34.876  13.214   1.985  0.00  0.00     0.004 C 
HETATM    6  C   UNK N   1      33.686  14.176   2.102  0.00  0.00     0.027 C 
HETATM    7  C   UNK N   1      33.986  15.129   3.200  0.00  0.00    -0.030 C 
HETATM    8  C   UNK N   1      33.236  15.205   4.296  0.00  0.00    -0.023 C 
HETATM    9  C   UNK N   1      33.924  15.787   5.468  0.00  0.00     0.048 A 
HETATM   10  C   UNK N   1      33.476  16.989   6.027  0.00  0.00     0.053 A 
HETATM   11  C   UNK N   1      33.112  15.656   6.794  0.00  0.00     0.122 A 
HETATM   12  N   UNK N   1      34.142  14.890   7.477  0.00  0.00    -0.341 N 
HETATM   13  C   UNK N   1      34.007  14.085   8.561  0.00  0.00     0.241 C 
HETATM   14  O   UNK N   1      32.987  14.109   9.238  0.00  0.00    -0.271 OA
HETATM   15  C   UNK N   1      35.115  13.080   8.859  0.00  0.00     0.181 C 
HETATM   16  C   UNK N   1      35.102  12.644  10.321  0.00  0.00     0.069 C 
HETATM   17  C   UNK N   1      35.910  13.749  10.997  0.00  0.00     0.154 C 
HETATM   18  C   UNK N   1      36.868  14.319   9.957  0.00  0.00     0.159 C 
HETATM   19  N   UNK N   1      36.402  13.713   8.733  0.00  0.00    -0.334 N 
HETATM   20  C   UNK N   1      37.251  13.497   7.678  0.00  0.00     0.243 C 
HETATM   21  O   UNK N   1      38.368  13.992   7.696  0.00  0.00    -0.271 OA
HETATM   22  H   UNK N   1      35.051  14.966   7.107  0.00  0.00     0.163 HD
ENDROOT
BRANCH  17  23
HETATM   23  O   UNK N   1      36.468  13.420  12.226  0.00  0.00    -0.297 OA
BRANCH  23  24
HETATM   24  C   UNK N   1      36.241  13.827  13.518  0.00  0.00     0.363 C 
HETATM   25  O   UNK N   1      36.410  15.012  13.764  0.00  0.00    -0.238 OA
HETATM   26  N   UNK N   1      35.870  12.993  14.542  0.00  0.00    -0.319 N 
HETATM   27  C   UNK N   1      35.609  11.573  14.413  0.00  0.00     0.167 A 
HETATM   28  C   UNK N   1      35.747  13.494  15.907  0.00  0.00     0.170 A 
HETATM   29  C   UNK N   1      35.366  11.182  15.817  0.00  0.00    -0.029 A 
HETATM   30  C   UNK N   1      35.101   9.903  16.300  0.00  0.00     0.009 A 
HETATM   31  C   UNK N   1      35.450  12.255  16.656  0.00  0.00     0.006 A 
HETATM   32  C   UNK N   1      34.920   9.727  17.680  0.00  0.00     0.004 A 
HETATM   33  C   UNK N   1      35.010  10.830  18.549  0.00  0.00     0.043 A 
HETATM   34  C   UNK N   1      35.277  12.108  18.036  0.00  0.00     0.124 A 
HETATM   35  F   UNK N   1      35.373  13.173  18.868  0.00  0.00    -0.205 F 
ENDBRANCH  23  24
ENDBRANCH  17  23
BRANCH   1  36
HETATM   36  N   UNK N   1      37.608  11.322   6.512  0.00  0.00    -0.324 N 
HETATM   37  C   UNK N   1      38.794  11.103   5.888  0.00  0.00     0.362 C 
HETATM   38  O   UNK N   1      39.342  10.018   6.024  0.00  0.00    -0.238 OA
HETATM   39  H   UNK N   1      37.199  10.570   6.998  0.00  0.00     0.165 HD
BRANCH  37  40
HETATM   40  O   UNK N   1      39.359  12.065   5.105  0.00  0.00    -0.294 OA
BRANCH  40  41
HETATM   41  C   UNK N   1      39.574  11.967   3.737  0.00  0.00     0.061 C 
HETATM   42  C   UNK N   1      38.608  10.983   3.091  0.00  0.00     0.046 C 
HETATM   43  C   UNK N   1      39.344  13.324   3.108  0.00  0.00     0.046 C 
HETATM   44  C   UNK N   1      41.005  11.546   3.449  0.00  0.00     0.046 C 
ENDBRANCH  40  41
ENDBRANCH  37  40
ENDBRANCH   1  36
BRANCH  11  45
HETATM   45  C   UNK N   1      32.293  16.454   7.808  0.00  0.00     0.260 C 
HETATM   46  O   UNK N   1      32.857  17.173   8.628  0.00  0.00    -0.270 OA
HETATM   47  N   UNK N   1      30.940  16.368   7.805  0.00  0.00    -0.252 N 
HETATM   48  H   UNK N   1      30.509  15.739   7.183  0.00  0.00     0.181 HD
BRANCH  47  49
HETATM   49  S   UNK N   1      29.920  17.337   8.874  0.00  0.00     0.237 S 
HETATM   50  O   UNK N   1      30.778  18.588   9.110  0.00  0.00    -0.205 OA
HETATM   51  O   UNK N   1      30.025  16.686  10.262  0.00  0.00    -0.205 OA
BRANCH  49  52
HETATM   52  C   UNK N   1      28.234  17.880   8.415  0.00  0.00     0.130 A 
HETATM   53  C   UNK N   1      27.946  17.491   6.976  0.00  0.00     0.023 A 
HETATM   54  C   UNK N   1      28.274  18.924   7.318  0.00  0.00     0.023 A 
ENDBRANCH  49  52
ENDBRANCH  47  49
ENDBRANCH  11  45
TORSDOF 8
ENDMDL
