MODEL 1
REMARK VINA RESULT:      -8.7      0.000      0.000
REMARK  4 active torsions:
REMARK  status: ('A' for Active; 'I' for Inactive)
REMARK    1  A    between atoms: C_12  and  N_27 
REMARK    2  A    between atoms: C_13  and  N_33 
REMARK    3  A    between atoms: C_14  and  O_34 
REMARK    4  A    between atoms: N_30  and  C_18 
REMARK       I    between atoms: N_27  and  C_20 
REMARK       I    between atoms: N_30  and  C_21 
ROOT
HETATM    1  C   UNK N   1      28.856  17.737   8.707  0.00  0.00     0.140 A 
HETATM    2  C   UNK N   1      30.032  17.315   8.137  0.00  0.00     0.110 A 
HETATM    3  C   UNK N   1      30.154  17.162   6.802  0.00  0.00     0.168 A 
HETATM    4  C   UNK N   1      27.945  17.866   6.507  0.00  0.00     0.679 A 
HETATM    5  C   UNK N   1      31.995  16.617   7.743  0.00  0.00     0.687 A 
HETATM    6  N   UNK N   1      27.824  18.015   7.868  0.00  0.00    -0.200 N 
ATOM      7  HN  UNK N   1      26.939  18.340   8.257  1.00  0.00     0.183 HD
HETATM    8  N   UNK N   1      26.883  18.258   5.661  0.00  0.00    -0.221 N 
HETATM    9  N   UNK N   1      31.167  16.987   8.742  0.00  0.00    -0.186 N 
ATOM     10  HN  UNK N   1      31.369  17.009   9.742  1.00  0.00     0.184 HD
HETATM   11  N   UNK N   1      33.320  16.140   7.955  0.00  0.00    -0.185 N 
HETATM   12  N   UNK N   1      29.124  17.423   5.960  0.00  0.00    -0.174 N 
ATOM     13  HN  UNK N   1      29.223  17.296   4.953  1.00  0.00     0.186 HD
HETATM   14  N   UNK N   1      31.400  16.725   6.515  0.00  0.00    -0.158 N 
HETATM   15  H   UNK N   1      26.466  17.582   5.080  0.00  0.00     0.178 HD
HETATM   16  H   UNK N   1      33.849  15.991   7.138  0.00  0.00     0.184 HD
ENDROOT
BRANCH  11  17
HETATM   17  C   UNK N   1      34.002  15.843   9.192  0.00  0.00     0.126 A 
HETATM   18  C   UNK N   1      33.891  14.620   9.935  0.00  0.00     0.149 A 
HETATM   19  C   UNK N   1      34.621  14.445  11.110  0.00  0.00     0.087 A 
HETATM   20  F   UNK N   1      33.119  13.577   9.583  0.00  0.00    -0.203 F 
HETATM   21  C   UNK N   1      35.464  15.439  11.580  0.00  0.00     0.122 A 
HETATM   22  C   UNK N   1      35.587  16.633  10.876  0.00  0.00     0.087 A 
HETATM   23  F   UNK N   1      36.167  15.238  12.720  0.00  0.00    -0.206 F 
HETATM   24  C   UNK N   1      34.865  16.835   9.696  0.00  0.00     0.149 A 
HETATM   25  F   UNK N   1      35.014  18.007   9.030  0.00  0.00    -0.203 F 
ENDBRANCH  11  17
BRANCH  14  26
HETATM   26  C   UNK N   1      31.997  16.399   5.204  0.00  0.00     0.135 C 
HETATM   27  C   UNK N   1      32.096  17.590   4.308  0.00  0.00     0.055 C 
HETATM   28  C   UNK N   1      32.138  16.945   2.934  0.00  0.00     0.169 C 
HETATM   29  O   UNK N   1      31.610  15.638   3.019  0.00  0.00    -0.389 OA
HETATM   30  C   UNK N   1      31.160  15.486   4.341  0.00  0.00     0.194 C 
ENDBRANCH  14  26
BRANCH   8  31
HETATM   31  C   UNK N   1      26.386  19.622   5.621  0.00  0.00     0.099 C 
HETATM   32  C   UNK N   1      27.260  20.485   4.698  0.00  0.00     0.028 C 
HETATM   33  C   UNK N   1      26.521  21.039   3.472  0.00  0.00     0.034 C 
HETATM   34  C   UNK N   1      25.624  19.976   2.848  0.00  0.00     0.118 C 
HETATM   35  C   UNK N   1      24.532  19.529   3.824  0.00  0.00     0.034 C 
HETATM   36  C   UNK N   1      24.882  19.750   5.303  0.00  0.00     0.028 C 
BRANCH  34  37
HETATM   37  O   UNK N   1      25.018  20.493   1.703  0.00  0.00    -0.396 OA
HETATM   38  H   UNK N   1      25.376  21.288   1.280  0.00  0.00     0.210 HD
ENDBRANCH  34  37
ENDBRANCH   8  31
TORSDOF 4
ENDMDL
MODEL 2
REMARK VINA RESULT:      -8.5      3.875      9.242
REMARK  4 active torsions:
REMARK  status: ('A' for Active; 'I' for Inactive)
REMARK    1  A    between atoms: C_12  and  N_27 
REMARK    2  A    between atoms: C_13  and  N_33 
REMARK    3  A    between atoms: C_14  and  O_34 
REMARK    4  A    between atoms: N_30  and  C_18 
REMARK       I    between atoms: N_27  and  C_20 
REMARK       I    between atoms: N_30  and  C_21 
ROOT
HETATM    1  C   UNK N   1      30.747  17.501   8.432  0.00  0.00     0.140 A 
HETATM    2  C   UNK N   1      30.511  17.307   7.093  0.00  0.00     0.110 A 
HETATM    3  C   UNK N   1      31.421  16.711   6.295  0.00  0.00     0.168 A 
HETATM    4  C   UNK N   1      32.856  16.435   8.119  0.00  0.00     0.679 A 
HETATM    5  C   UNK N   1      29.720  17.270   5.125  0.00  0.00     0.687 A 
HETATM    6  N   UNK N   1      31.929  17.048   8.926  0.00  0.00    -0.200 N 
ATOM      7  HN  UNK N   1      32.131  17.167   9.918  1.00  0.00     0.183 HD
HETATM    8  N   UNK N   1      34.029  15.890   8.688  0.00  0.00    -0.221 N 
HETATM    9  N   UNK N   1      29.442  17.659   6.387  0.00  0.00    -0.186 N 
ATOM     10  HN  UNK N   1      28.597  18.122   6.725  1.00  0.00     0.184 HD
HETATM   11  N   UNK N   1      28.850  17.499   4.022  0.00  0.00    -0.185 N 
HETATM   12  N   UNK N   1      32.608  16.269   6.778  0.00  0.00    -0.174 N 
ATOM     13  HN  UNK N   1      33.293  15.827   6.167  1.00  0.00     0.186 HD
HETATM   14  N   UNK N   1      30.943  16.663   5.032  0.00  0.00    -0.158 N 
HETATM   15  H   UNK N   1      34.903  16.231   8.390  0.00  0.00     0.178 HD
HETATM   16  H   UNK N   1      29.129  17.085   3.174  0.00  0.00     0.184 HD
ENDROOT
BRANCH  11  17
HETATM   17  C   UNK N   1      27.618  18.249   3.964  0.00  0.00     0.126 A 
HETATM   18  C   UNK N   1      27.486  19.659   4.200  0.00  0.00     0.149 A 
HETATM   19  C   UNK N   1      26.239  20.274   4.092  0.00  0.00     0.087 A 
HETATM   20  F   UNK N   1      28.500  20.480   4.521  0.00  0.00    -0.203 F 
HETATM   21  C   UNK N   1      25.111  19.543   3.756  0.00  0.00     0.122 A 
HETATM   22  C   UNK N   1      25.216  18.175   3.524  0.00  0.00     0.087 A 
HETATM   23  F   UNK N   1      23.914  20.169   3.651  0.00  0.00    -0.206 F 
HETATM   24  C   UNK N   1      26.454  17.533   3.627  0.00  0.00     0.149 A 
HETATM   25  F   UNK N   1      26.522  16.201   3.386  0.00  0.00    -0.203 F 
ENDBRANCH  11  17
BRANCH  14  26
HETATM   26  C   UNK N   1      31.579  16.122   3.814  0.00  0.00     0.135 C 
HETATM   27  C   UNK N   1      32.235  14.801   4.047  0.00  0.00     0.055 C 
HETATM   28  C   UNK N   1      33.262  14.760   2.930  0.00  0.00     0.169 C 
HETATM   29  O   UNK N   1      33.505  16.074   2.474  0.00  0.00    -0.389 OA
HETATM   30  C   UNK N   1      32.758  16.920   3.312  0.00  0.00     0.194 C 
ENDBRANCH  14  26
BRANCH   8  31
HETATM   31  C   UNK N   1      33.990  14.844   9.695  0.00  0.00     0.099 C 
HETATM   32  C   UNK N   1      34.677  13.572   9.176  0.00  0.00     0.028 C 
HETATM   33  C   UNK N   1      35.928  13.166   9.968  0.00  0.00     0.034 C 
HETATM   34  C   UNK N   1      36.787  14.383  10.292  0.00  0.00     0.118 C 
HETATM   35  C   UNK N   1      36.034  15.373  11.184  0.00  0.00     0.034 C 
HETATM   36  C   UNK N   1      34.505  15.270  11.085  0.00  0.00     0.028 C 
BRANCH  34  37
HETATM   37  O   UNK N   1      37.943  13.972  10.955  0.00  0.00    -0.396 OA
HETATM   38  H   UNK N   1      38.692  14.581  11.052  0.00  0.00     0.210 HD
ENDBRANCH  34  37
ENDBRANCH   8  31
TORSDOF 4
ENDMDL
MODEL 3
REMARK VINA RESULT:      -8.3      4.820      9.437
REMARK  4 active torsions:
REMARK  status: ('A' for Active; 'I' for Inactive)
REMARK    1  A    between atoms: C_12  and  N_27 
REMARK    2  A    between atoms: C_13  and  N_33 
REMARK    3  A    between atoms: C_14  and  O_34 
REMARK    4  A    between atoms: N_30  and  C_18 
REMARK       I    between atoms: N_27  and  C_20 
REMARK       I    between atoms: N_30  and  C_21 
ROOT
HETATM    1  C   UNK N   1      28.852  15.926   3.317  0.00  0.00     0.140 A 
HETATM    2  C   UNK N   1      28.183  16.709   4.227  0.00  0.00     0.110 A 
HETATM    3  C   UNK N   1      28.578  16.786   5.515  0.00  0.00     0.168 A 
HETATM    4  C   UNK N   1      30.349  15.327   5.072  0.00  0.00     0.679 A 
HETATM    5  C   UNK N   1      26.835  17.994   5.240  0.00  0.00     0.687 A 
HETATM    6  N   UNK N   1      29.941  15.247   3.763  0.00  0.00    -0.200 N 
ATOM      7  HN  UNK N   1      30.465  14.665   3.111  1.00  0.00     0.183 HD
HETATM    8  N   UNK N   1      31.542  14.685   5.475  0.00  0.00    -0.221 N 
HETATM    9  N   UNK N   1      27.104  17.456   4.032  0.00  0.00    -0.186 N 
ATOM     10  HN  UNK N   1      26.590  17.594   3.160  1.00  0.00     0.184 HD
HETATM   11  N   UNK N   1      25.716  18.838   5.494  0.00  0.00    -0.185 N 
HETATM   12  N   UNK N   1      29.655  16.100   5.971  0.00  0.00    -0.174 N 
ATOM     13  HN  UNK N   1      29.941  16.158   6.947  1.00  0.00     0.186 HD
HETATM   14  N   UNK N   1      27.742  17.607   6.188  0.00  0.00    -0.158 N 
HETATM   15  H   UNK N   1      31.496  13.995   6.175  0.00  0.00     0.178 HD
HETATM   16  H   UNK N   1      25.686  19.236   6.394  0.00  0.00     0.184 HD
ENDROOT
BRANCH  11  17
HETATM   17  C   UNK N   1      24.619  19.195   4.626  0.00  0.00     0.126 A 
HETATM   18  C   UNK N   1      23.311  18.605   4.646  0.00  0.00     0.149 A 
HETATM   19  C   UNK N   1      22.326  19.054   3.768  0.00  0.00     0.087 A 
HETATM   20  F   UNK N   1      22.928  17.621   5.477  0.00  0.00    -0.203 F 
HETATM   21  C   UNK N   1      22.587  20.072   2.865  0.00  0.00     0.122 A 
HETATM   22  C   UNK N   1      23.849  20.658   2.827  0.00  0.00     0.087 A 
HETATM   23  F   UNK N   1      21.608  20.493   2.028  0.00  0.00    -0.206 F 
HETATM   24  C   UNK N   1      24.855  20.226   3.696  0.00  0.00     0.149 A 
HETATM   25  F   UNK N   1      26.071  20.823   3.639  0.00  0.00    -0.203 F 
ENDBRANCH  11  17
BRANCH  14  26
HETATM   26  C   UNK N   1      27.757  17.988   7.615  0.00  0.00     0.135 C 
HETATM   27  C   UNK N   1      29.081  18.525   8.051  0.00  0.00     0.055 C 
HETATM   28  C   UNK N   1      29.044  18.269   9.548  0.00  0.00     0.169 C 
HETATM   29  O   UNK N   1      28.087  17.269   9.824  0.00  0.00    -0.389 OA
HETATM   30  C   UNK N   1      27.609  16.834   8.577  0.00  0.00     0.194 C 
ENDBRANCH  14  26
BRANCH   8  31
HETATM   31  C   UNK N   1      32.833  15.010   4.893  0.00  0.00     0.099 C 
HETATM   32  C   UNK N   1      32.811  16.424   4.293  0.00  0.00     0.028 C 
HETATM   33  C   UNK N   1      33.776  17.408   4.968  0.00  0.00     0.034 C 
HETATM   34  C   UNK N   1      33.740  17.255   6.485  0.00  0.00     0.118 C 
HETATM   35  C   UNK N   1      34.202  15.860   6.913  0.00  0.00     0.034 C 
HETATM   36  C   UNK N   1      34.037  14.783   5.830  0.00  0.00     0.028 C 
BRANCH  34  37
HETATM   37  O   UNK N   1      34.579  18.204   7.068  0.00  0.00    -0.396 OA
HETATM   38  H   UNK N   1      34.368  19.148   7.000  0.00  0.00     0.210 HD
ENDBRANCH  34  37
ENDBRANCH   8  31
TORSDOF 4
ENDMDL
MODEL 4
REMARK VINA RESULT:      -7.9      1.363      2.234
REMARK  4 active torsions:
REMARK  status: ('A' for Active; 'I' for Inactive)
REMARK    1  A    between atoms: C_12  and  N_27 
REMARK    2  A    between atoms: C_13  and  N_33 
REMARK    3  A    between atoms: C_14  and  O_34 
REMARK    4  A    between atoms: N_30  and  C_18 
REMARK       I    between atoms: N_27  and  C_20 
REMARK       I    between atoms: N_30  and  C_21 
ROOT
HETATM    1  C   UNK N   1      29.936  18.172   8.829  0.00  0.00     0.140 A 
HETATM    2  C   UNK N   1      30.924  17.334   8.371  0.00  0.00     0.110 A 
HETATM    3  C   UNK N   1      30.891  16.822   7.123  0.00  0.00     0.168 A 
HETATM    4  C   UNK N   1      28.900  17.967   6.692  0.00  0.00     0.679 A 
HETATM    5  C   UNK N   1      32.621  16.083   8.141  0.00  0.00     0.687 A 
HETATM    6  N   UNK N   1      28.934  18.481   7.966  0.00  0.00    -0.200 N 
ATOM      7  HN  UNK N   1      28.190  19.109   8.271  1.00  0.00     0.183 HD
HETATM    8  N   UNK N   1      27.895  18.388   5.792  0.00  0.00    -0.221 N 
HETATM    9  N   UNK N   1      31.994  16.893   9.021  0.00  0.00    -0.186 N 
ATOM     10  HN  UNK N   1      32.279  17.115   9.975  1.00  0.00     0.184 HD
HETATM   11  N   UNK N   1      33.805  15.355   8.448  0.00  0.00    -0.185 N 
HETATM   12  N   UNK N   1      29.887  17.115   6.261  0.00  0.00    -0.174 N 
ATOM     13  HN  UNK N   1      29.866  16.716   5.322  1.00  0.00     0.186 HD
HETATM   14  N   UNK N   1      31.967  16.025   6.940  0.00  0.00    -0.158 N 
HETATM   15  H   UNK N   1      27.280  17.717   5.420  0.00  0.00     0.178 HD
HETATM   16  H   UNK N   1      34.211  14.875   7.691  0.00  0.00     0.184 HD
ENDROOT
BRANCH  11  17
HETATM   17  C   UNK N   1      34.498  15.217   9.707  0.00  0.00     0.126 A 
HETATM   18  C   UNK N   1      35.226  16.256  10.379  0.00  0.00     0.149 A 
HETATM   19  C   UNK N   1      35.837  16.004  11.606  0.00  0.00     0.087 A 
HETATM   20  F   UNK N   1      35.371  17.511   9.917  0.00  0.00    -0.203 F 
HETATM   21  C   UNK N   1      35.754  14.754  12.199  0.00  0.00     0.122 A 
HETATM   22  C   UNK N   1      35.055  13.731  11.565  0.00  0.00     0.087 A 
HETATM   23  F   UNK N   1      36.352  14.540  13.396  0.00  0.00    -0.206 F 
HETATM   24  C   UNK N   1      34.434  13.957  10.333  0.00  0.00     0.149 A 
HETATM   25  F   UNK N   1      33.755  12.942   9.746  0.00  0.00    -0.203 F 
ENDBRANCH  11  17
BRANCH  14  26
HETATM   26  C   UNK N   1      32.354  15.237   5.753  0.00  0.00     0.135 C 
HETATM   27  C   UNK N   1      32.537  13.787   6.061  0.00  0.00     0.055 C 
HETATM   28  C   UNK N   1      33.462  13.344   4.942  0.00  0.00     0.169 C 
HETATM   29  O   UNK N   1      34.117  14.474   4.406  0.00  0.00    -0.389 OA
HETATM   30  C   UNK N   1      33.718  15.565   5.197  0.00  0.00     0.194 C 
ENDBRANCH  14  26
BRANCH   8  31
HETATM   31  C   UNK N   1      27.739  19.778   5.399  0.00  0.00     0.099 C 
HETATM   32  C   UNK N   1      27.759  19.909   3.869  0.00  0.00     0.028 C 
HETATM   33  C   UNK N   1      26.449  20.435   3.266  0.00  0.00     0.034 C 
HETATM   34  C   UNK N   1      25.242  19.783   3.931  0.00  0.00     0.118 C 
HETATM   35  C   UNK N   1      25.179  20.121   5.422  0.00  0.00     0.034 C 
HETATM   36  C   UNK N   1      26.534  20.497   6.039  0.00  0.00     0.028 C 
BRANCH  34  37
HETATM   37  O   UNK N   1      24.073  20.236   3.318  0.00  0.00    -0.396 OA
HETATM   38  H   UNK N   1      23.476  20.836   3.791  0.00  0.00     0.210 HD
ENDBRANCH  34  37
ENDBRANCH   8  31
TORSDOF 4
ENDMDL
MODEL 5
REMARK VINA RESULT:      -7.9      4.458      6.948
REMARK  4 active torsions:
REMARK  status: ('A' for Active; 'I' for Inactive)
REMARK    1  A    between atoms: C_12  and  N_27 
REMARK    2  A    between atoms: C_13  and  N_33 
REMARK    3  A    between atoms: C_14  and  O_34 
REMARK    4  A    between atoms: N_30  and  C_18 
REMARK       I    between atoms: N_27  and  C_20 
REMARK       I    between atoms: N_30  and  C_21 
ROOT
HETATM    1  C   UNK N   1      33.831  15.904   9.779  0.00  0.00     0.140 A 
HETATM    2  C   UNK N   1      34.080  14.628  10.223  0.00  0.00     0.110 A 
HETATM    3  C   UNK N   1      33.921  13.558   9.417  0.00  0.00     0.168 A 
HETATM    4  C   UNK N   1      33.279  14.960   7.661  0.00  0.00     0.679 A 
HETATM    5  C   UNK N   1      34.542  12.895  11.353  0.00  0.00     0.687 A 
HETATM    6  N   UNK N   1      33.437  16.046   8.486  0.00  0.00    -0.200 N 
ATOM      7  HN  UNK N   1      33.253  16.980   8.122  1.00  0.00     0.183 HD
HETATM    8  N   UNK N   1      32.963  15.154   6.297  0.00  0.00    -0.221 N 
HETATM    9  N   UNK N   1      34.471  14.240  11.430  0.00  0.00    -0.186 N 
ATOM     10  HN  UNK N   1      34.673  14.829  12.239  1.00  0.00     0.184 HD
HETATM   11  N   UNK N   1      34.884  12.060  12.455  0.00  0.00    -0.185 N 
HETATM   12  N   UNK N   1      33.515  13.690   8.131  0.00  0.00    -0.174 N 
ATOM     13  HN  UNK N   1      33.389  12.875   7.532  1.00  0.00     0.186 HD
HETATM   14  N   UNK N   1      34.217  12.434  10.106  0.00  0.00    -0.158 N 
HETATM   15  H   UNK N   1      32.129  14.769   5.944  0.00  0.00     0.178 HD
HETATM   16  H   UNK N   1      34.990  11.105  12.242  0.00  0.00     0.184 HD
ENDROOT
BRANCH  11  17
HETATM   17  C   UNK N   1      35.100  12.409  13.839  0.00  0.00     0.126 A 
HETATM   18  C   UNK N   1      36.048  13.374  14.320  0.00  0.00     0.149 A 
HETATM   19  C   UNK N   1      36.147  13.639  15.685  0.00  0.00     0.087 A 
HETATM   20  F   UNK N   1      36.881  14.084  13.540  0.00  0.00    -0.203 F 
HETATM   21  C   UNK N   1      35.337  12.983  16.599  0.00  0.00     0.122 A 
HETATM   22  C   UNK N   1      34.412  12.043  16.155  0.00  0.00     0.087 A 
HETATM   23  F   UNK N   1      35.450  13.267  17.919  0.00  0.00    -0.206 F 
HETATM   24  C   UNK N   1      34.294  11.757  14.792  0.00  0.00     0.149 A 
HETATM   25  F   UNK N   1      33.377  10.842  14.392  0.00  0.00    -0.203 F 
ENDBRANCH  11  17
BRANCH  14  26
HETATM   26  C   UNK N   1      34.176  11.027   9.660  0.00  0.00     0.135 C 
HETATM   27  C   UNK N   1      34.812  10.831   8.322  0.00  0.00     0.055 C 
HETATM   28  C   UNK N   1      34.142   9.556   7.841  0.00  0.00     0.169 C 
HETATM   29  O   UNK N   1      32.940   9.365   8.557  0.00  0.00    -0.389 OA
HETATM   30  C   UNK N   1      32.791  10.497   9.376  0.00  0.00     0.194 C 
ENDBRANCH  14  26
BRANCH   8  31
HETATM   31  C   UNK N   1      33.827  15.903   5.400  0.00  0.00     0.099 C 
HETATM   32  C   UNK N   1      33.967  15.172   4.056  0.00  0.00     0.028 C 
HETATM   33  C   UNK N   1      33.405  15.950   2.857  0.00  0.00     0.034 C 
HETATM   34  C   UNK N   1      32.070  16.598   3.204  0.00  0.00     0.118 C 
HETATM   35  C   UNK N   1      32.226  17.624   4.329  0.00  0.00     0.034 C 
HETATM   36  C   UNK N   1      33.447  17.388   5.231  0.00  0.00     0.028 C 
BRANCH  34  37
HETATM   37  O   UNK N   1      31.560  17.242   2.077  0.00  0.00    -0.396 OA
HETATM   38  H   UNK N   1      31.898  17.022   1.195  0.00  0.00     0.210 HD
ENDBRANCH  34  37
ENDBRANCH   8  31
TORSDOF 4
ENDMDL
MODEL 6
REMARK VINA RESULT:      -7.8      4.780      7.941
REMARK  4 active torsions:
REMARK  status: ('A' for Active; 'I' for Inactive)
REMARK    1  A    between atoms: C_12  and  N_27 
REMARK    2  A    between atoms: C_13  and  N_33 
REMARK    3  A    between atoms: C_14  and  O_34 
REMARK    4  A    between atoms: N_30  and  C_18 
REMARK       I    between atoms: N_27  and  C_20 
REMARK       I    between atoms: N_30  and  C_21 
ROOT
HETATM    1  C   UNK N   1      33.764  15.309  10.576  0.00  0.00     0.140 A 
HETATM    2  C   UNK N   1      34.851  14.708  11.165  0.00  0.00     0.110 A 
HETATM    3  C   UNK N   1      35.796  14.085  10.431  0.00  0.00     0.168 A 
HETATM    4  C   UNK N   1      34.653  14.637   8.468  0.00  0.00     0.679 A 
HETATM    5  C   UNK N   1      36.289  13.913  12.504  0.00  0.00     0.687 A 
HETATM    6  N   UNK N   1      33.691  15.266   9.220  0.00  0.00    -0.200 N 
ATOM      7  HN  UNK N   1      32.902  15.711   8.750  1.00  0.00     0.183 HD
HETATM    8  N   UNK N   1      34.593  14.699   7.058  0.00  0.00    -0.221 N 
HETATM    9  N   UNK N   1      35.140  14.619  12.457  0.00  0.00    -0.186 N 
ATOM     10  HN  UNK N   1      34.610  14.999  13.242  1.00  0.00     0.184 HD
HETATM   11  N   UNK N   1      36.936  13.543  13.718  0.00  0.00    -0.185 N 
HETATM   12  N   UNK N   1      35.722  14.026   9.079  0.00  0.00    -0.174 N 
ATOM     13  HN  UNK N   1      36.436  13.545   8.532  1.00  0.00     0.186 HD
HETATM   14  N   UNK N   1      36.735  13.573  11.256  0.00  0.00    -0.158 N 
HETATM   15  H   UNK N   1      34.522  13.860   6.549  0.00  0.00     0.178 HD
HETATM   16  H   UNK N   1      37.814  13.110  13.611  0.00  0.00     0.184 HD
ENDROOT
BRANCH  11  17
HETATM   17  C   UNK N   1      36.495  13.711  15.082  0.00  0.00     0.126 A 
HETATM   18  C   UNK N   1      36.907  14.759  15.972  0.00  0.00     0.149 A 
HETATM   19  C   UNK N   1      36.390  14.825  17.264  0.00  0.00     0.087 A 
HETATM   20  F   UNK N   1      37.779  15.732  15.656  0.00  0.00    -0.203 F 
HETATM   21  C   UNK N   1      35.473  13.888  17.714  0.00  0.00     0.122 A 
HETATM   22  C   UNK N   1      35.060  12.863  16.869  0.00  0.00     0.087 A 
HETATM   23  F   UNK N   1      34.982  13.982  18.973  0.00  0.00    -0.206 F 
HETATM   24  C   UNK N   1      35.564  12.772  15.568  0.00  0.00     0.149 A 
HETATM   25  F   UNK N   1      35.135  11.766  14.768  0.00  0.00    -0.203 F 
ENDBRANCH  11  17
BRANCH  14  26
HETATM   26  C   UNK N   1      37.947  12.796  10.924  0.00  0.00     0.135 C 
HETATM   27  C   UNK N   1      38.778  13.454   9.871  0.00  0.00     0.055 C 
HETATM   28  C   UNK N   1      39.548  12.276   9.300  0.00  0.00     0.169 C 
HETATM   29  O   UNK N   1      38.867  11.080   9.616  0.00  0.00    -0.389 OA
HETATM   30  C   UNK N   1      37.680  11.467  10.261  0.00  0.00     0.194 C 
ENDBRANCH  14  26
BRANCH   8  31
HETATM   31  C   UNK N   1      34.634  15.958   6.334  0.00  0.00     0.099 C 
HETATM   32  C   UNK N   1      34.255  15.744   4.861  0.00  0.00     0.028 C 
HETATM   33  C   UNK N   1      32.972  16.469   4.431  0.00  0.00     0.034 C 
HETATM   34  C   UNK N   1      31.887  16.337   5.494  0.00  0.00     0.118 C 
HETATM   35  C   UNK N   1      32.315  16.994   6.809  0.00  0.00     0.034 C 
HETATM   36  C   UNK N   1      33.836  17.103   6.990  0.00  0.00     0.028 C 
BRANCH  34  37
HETATM   37  O   UNK N   1      30.719  16.952   5.044  0.00  0.00    -0.396 OA
HETATM   38  H   UNK N   1      30.630  17.917   5.083  0.00  0.00     0.210 HD
ENDBRANCH  34  37
ENDBRANCH   8  31
TORSDOF 4
ENDMDL
MODEL 7
REMARK VINA RESULT:      -7.8      3.944      6.671
REMARK  4 active torsions:
REMARK  status: ('A' for Active; 'I' for Inactive)
REMARK    1  A    between atoms: C_12  and  N_27 
REMARK    2  A    between atoms: C_13  and  N_33 
REMARK    3  A    between atoms: C_14  and  O_34 
REMARK    4  A    between atoms: N_30  and  C_18 
REMARK       I    between atoms: N_27  and  C_20 
REMARK       I    between atoms: N_30  and  C_21 
ROOT
HETATM    1  C   UNK N   1      32.494  15.017   9.489  0.00  0.00     0.140 A 
HETATM    2  C   UNK N   1      33.677  14.482   9.939  0.00  0.00     0.110 A 
HETATM    3  C   UNK N   1      34.680  14.174   9.091  0.00  0.00     0.168 A 
HETATM    4  C   UNK N   1      33.404  14.935   7.287  0.00  0.00     0.679 A 
HETATM    5  C   UNK N   1      35.261  13.660  11.084  0.00  0.00     0.687 A 
HETATM    6  N   UNK N   1      32.383  15.241   8.154  0.00  0.00    -0.200 N 
ATOM      7  HN  UNK N   1      31.522  15.647   7.787  1.00  0.00     0.183 HD
HETATM    8  N   UNK N   1      33.289  15.273   5.920  0.00  0.00    -0.221 N 
HETATM    9  N   UNK N   1      34.019  14.176  11.185  0.00  0.00    -0.186 N 
ATOM     10  HN  UNK N   1      33.464  14.302  12.032  1.00  0.00     0.184 HD
HETATM   11  N   UNK N   1      35.996  13.153  12.194  0.00  0.00    -0.185 N 
HETATM   12  N   UNK N   1      34.571  14.382   7.756  0.00  0.00    -0.174 N 
ATOM     13  HN  UNK N   1      35.330  14.138   7.121  1.00  0.00     0.186 HD
HETATM   14  N   UNK N   1      35.712  13.654   9.792  0.00  0.00    -0.158 N 
HETATM   15  H   UNK N   1      33.327  14.555   5.248  0.00  0.00     0.178 HD
HETATM   16  H   UNK N   1      36.924  12.890  11.999  0.00  0.00     0.184 HD
ENDROOT
BRANCH  11  17
HETATM   17  C   UNK N   1      35.579  12.969  13.563  0.00  0.00     0.126 A 
HETATM   18  C   UNK N   1      34.695  11.943  14.038  0.00  0.00     0.149 A 
HETATM   19  C   UNK N   1      34.385  11.857  15.394  0.00  0.00     0.087 A 
HETATM   20  F   UNK N   1      34.118  11.010  13.261  0.00  0.00    -0.203 F 
HETATM   21  C   UNK N   1      34.921  12.751  16.306  0.00  0.00     0.122 A 
HETATM   22  C   UNK N   1      35.780  13.755  15.869  0.00  0.00     0.087 A 
HETATM   23  F   UNK N   1      34.608  12.638  17.619  0.00  0.00    -0.206 F 
HETATM   24  C   UNK N   1      36.106  13.865  14.513  0.00  0.00     0.149 A 
HETATM   25  F   UNK N   1      36.953  14.849  14.122  0.00  0.00    -0.203 F 
ENDBRANCH  11  17
BRANCH  14  26
HETATM   26  C   UNK N   1      37.014  13.157   9.304  0.00  0.00     0.135 C 
HETATM   27  C   UNK N   1      37.169  11.682   9.486  0.00  0.00     0.055 C 
HETATM   28  C   UNK N   1      38.680  11.526   9.502  0.00  0.00     0.169 C 
HETATM   29  O   UNK N   1      39.271  12.769   9.816  0.00  0.00    -0.389 OA
HETATM   30  C   UNK N   1      38.208  13.648  10.086  0.00  0.00     0.194 C 
ENDBRANCH  14  26
BRANCH   8  31
HETATM   31  C   UNK N   1      33.117  16.645   5.472  0.00  0.00     0.099 C 
HETATM   32  C   UNK N   1      33.437  16.765   3.975  0.00  0.00     0.028 C 
HETATM   33  C   UNK N   1      32.242  17.188   3.109  0.00  0.00     0.034 C 
HETATM   34  C   UNK N   1      30.975  16.452   3.530  0.00  0.00     0.118 C 
HETATM   35  C   UNK N   1      30.587  16.795   4.971  0.00  0.00     0.034 C 
HETATM   36  C   UNK N   1      31.758  17.276   5.840  0.00  0.00     0.028 C 
BRANCH  34  37
HETATM   37  O   UNK N   1      29.926  16.812   2.685  0.00  0.00    -0.396 OA
HETATM   38  H   UNK N   1      29.058  16.390   2.779  0.00  0.00     0.210 HD
ENDBRANCH  34  37
ENDBRANCH   8  31
TORSDOF 4
ENDMDL
MODEL 8
REMARK VINA RESULT:      -7.4      3.131      5.001
REMARK  4 active torsions:
REMARK  status: ('A' for Active; 'I' for Inactive)
REMARK    1  A    between atoms: C_12  and  N_27 
REMARK    2  A    between atoms: C_13  and  N_33 
REMARK    3  A    between atoms: C_14  and  O_34 
REMARK    4  A    between atoms: N_30  and  C_18 
REMARK       I    between atoms: N_27  and  C_20 
REMARK       I    between atoms: N_30  and  C_21 
ROOT
HETATM    1  C   UNK N   1      27.171  14.726   4.590  0.00  0.00     0.140 A 
HETATM    2  C   UNK N   1      27.876  15.814   5.046  0.00  0.00     0.110 A 
HETATM    3  C   UNK N   1      27.356  17.058   5.010  0.00  0.00     0.168 A 
HETATM    4  C   UNK N   1      25.380  16.217   4.086  0.00  0.00     0.679 A 
HETATM    5  C   UNK N   1      29.336  17.147   5.812  0.00  0.00     0.687 A 
HETATM    6  N   UNK N   1      25.917  14.953   4.119  0.00  0.00    -0.200 N 
ATOM      7  HN  UNK N   1      25.362  14.167   3.782  1.00  0.00     0.183 HD
HETATM    8  N   UNK N   1      24.039  16.400   3.681  0.00  0.00    -0.221 N 
HETATM    9  N   UNK N   1      29.105  15.844   5.546  0.00  0.00    -0.186 N 
ATOM     10  HN  UNK N   1      29.737  15.057   5.696  1.00  0.00     0.184 HD
HETATM   11  N   UNK N   1      30.570  17.639   6.326  0.00  0.00    -0.185 N 
HETATM   12  N   UNK N   1      26.111  17.294   4.529  0.00  0.00    -0.174 N 
ATOM     13  HN  UNK N   1      25.728  18.238   4.498  1.00  0.00     0.186 HD
HETATM   14  N   UNK N   1      28.260  17.933   5.501  0.00  0.00    -0.158 N 
HETATM   15  H   UNK N   1      23.852  16.966   2.898  0.00  0.00     0.178 HD
HETATM   16  H   UNK N   1      30.576  18.595   6.561  0.00  0.00     0.184 HD
ENDROOT
BRANCH  11  17
HETATM   17  C   UNK N   1      31.814  16.942   6.552  0.00  0.00     0.126 A 
HETATM   18  C   UNK N   1      32.114  16.114   7.685  0.00  0.00     0.149 A 
HETATM   19  C   UNK N   1      33.349  15.474   7.777  0.00  0.00     0.087 A 
HETATM   20  F   UNK N   1      31.273  15.880   8.707  0.00  0.00    -0.203 F 
HETATM   21  C   UNK N   1      34.305  15.622   6.785  0.00  0.00     0.122 A 
HETATM   22  C   UNK N   1      34.036  16.421   5.678  0.00  0.00     0.087 A 
HETATM   23  F   UNK N   1      35.494  14.982   6.898  0.00  0.00    -0.206 F 
HETATM   24  C   UNK N   1      32.805  17.076   5.561  0.00  0.00     0.149 A 
HETATM   25  F   UNK N   1      32.572  17.840   4.466  0.00  0.00    -0.203 F 
ENDBRANCH  11  17
BRANCH  14  26
HETATM   26  C   UNK N   1      28.155  19.399   5.649  0.00  0.00     0.135 C 
HETATM   27  C   UNK N   1      27.412  19.800   6.880  0.00  0.00     0.055 C 
HETATM   28  C   UNK N   1      26.928  21.192   6.514  0.00  0.00     0.169 C 
HETATM   29  O   UNK N   1      26.942  21.333   5.109  0.00  0.00    -0.389 OA
HETATM   30  C   UNK N   1      27.313  20.079   4.596  0.00  0.00     0.194 C 
ENDBRANCH  14  26
BRANCH   8  31
HETATM   31  C   UNK N   1      22.926  15.781   4.382  0.00  0.00     0.099 C 
HETATM   32  C   UNK N   1      23.184  15.771   5.896  0.00  0.00     0.028 C 
HETATM   33  C   UNK N   1      22.180  16.600   6.709  0.00  0.00     0.034 C 
HETATM   34  C   UNK N   1      21.889  17.931   6.024  0.00  0.00     0.118 C 
HETATM   35  C   UNK N   1      21.241  17.720   4.654  0.00  0.00     0.034 C 
HETATM   36  C   UNK N   1      21.540  16.354   4.020  0.00  0.00     0.028 C 
BRANCH  34  37
HETATM   37  O   UNK N   1      21.025  18.683   6.819  0.00  0.00    -0.396 OA
HETATM   38  H   UNK N   1      20.255  18.265   7.233  0.00  0.00     0.210 HD
ENDBRANCH  34  37
ENDBRANCH   8  31
TORSDOF 4
ENDMDL
MODEL 9
REMARK VINA RESULT:      -7.3     12.679     15.616
REMARK  4 active torsions:
REMARK  status: ('A' for Active; 'I' for Inactive)
REMARK    1  A    between atoms: C_12  and  N_27 
REMARK    2  A    between atoms: C_13  and  N_33 
REMARK    3  A    between atoms: C_14  and  O_34 
REMARK    4  A    between atoms: N_30  and  C_18 
REMARK       I    between atoms: N_27  and  C_20 
REMARK       I    between atoms: N_30  and  C_21 
ROOT
HETATM    1  C   UNK N   1      30.043  25.083  -8.210  0.00  0.00     0.140 A 
HETATM    2  C   UNK N   1      30.096  23.993  -7.376  0.00  0.00     0.110 A 
HETATM    3  C   UNK N   1      29.933  24.116  -6.042  0.00  0.00     0.168 A 
HETATM    4  C   UNK N   1      29.627  26.421  -6.281  0.00  0.00     0.679 A 
HETATM    5  C   UNK N   1      30.297  22.064  -6.519  0.00  0.00     0.687 A 
HETATM    6  N   UNK N   1      29.799  26.291  -7.638  0.00  0.00    -0.200 N 
ATOM      7  HN  UNK N   1      29.744  27.120  -8.230  1.00  0.00     0.183 HD
HETATM    8  N   UNK N   1      29.278  27.677  -5.736  0.00  0.00    -0.221 N 
HETATM    9  N   UNK N   1      30.318  22.724  -7.695  0.00  0.00    -0.186 N 
ATOM     10  HN  UNK N   1      30.473  22.333  -8.626  1.00  0.00     0.184 HD
HETATM   11  N   UNK N   1      30.540  20.666  -6.396  0.00  0.00    -0.185 N 
HETATM   12  N   UNK N   1      29.703  25.320  -5.463  0.00  0.00    -0.174 N 
ATOM     13  HN  UNK N   1      29.589  25.406  -4.453  1.00  0.00     0.186 HD
HETATM   14  N   UNK N   1      30.046  22.900  -5.465  0.00  0.00    -0.158 N 
HETATM   15  H   UNK N   1      29.881  28.093  -5.079  0.00  0.00     0.178 HD
HETATM   16  H   UNK N   1      30.405  20.293  -5.495  0.00  0.00     0.184 HD
ENDROOT
BRANCH  11  17
HETATM   17  C   UNK N   1      30.957  19.715  -7.398  0.00  0.00     0.126 A 
HETATM   18  C   UNK N   1      32.308  19.490  -7.828  0.00  0.00     0.149 A 
HETATM   19  C   UNK N   1      32.585  18.523  -8.793  0.00  0.00     0.087 A 
HETATM   20  F   UNK N   1      33.380  20.151  -7.358  0.00  0.00    -0.203 F 
HETATM   21  C   UNK N   1      31.570  17.763  -9.352  0.00  0.00     0.122 A 
HETATM   22  C   UNK N   1      30.253  17.964  -8.951  0.00  0.00     0.087 A 
HETATM   23  F   UNK N   1      31.870  16.825 -10.283  0.00  0.00    -0.206 F 
HETATM   24  C   UNK N   1      29.947  18.929  -7.986  0.00  0.00     0.149 A 
HETATM   25  F   UNK N   1      28.655  19.094  -7.612  0.00  0.00    -0.203 F 
ENDBRANCH  11  17
BRANCH  14  26
HETATM   26  C   UNK N   1      29.961  22.533  -4.037  0.00  0.00     0.135 C 
HETATM   27  C   UNK N   1      28.882  23.275  -3.318  0.00  0.00     0.055 C 
HETATM   28  C   UNK N   1      29.363  23.211  -1.879  0.00  0.00     0.169 C 
HETATM   29  O   UNK N   1      30.750  22.943  -1.866  0.00  0.00    -0.389 OA
HETATM   30  C   UNK N   1      31.158  22.936  -3.210  0.00  0.00     0.194 C 
ENDBRANCH  14  26
BRANCH   8  31
HETATM   31  C   UNK N   1      28.060  28.375  -6.111  0.00  0.00     0.099 C 
HETATM   32  C   UNK N   1      26.892  27.385  -6.239  0.00  0.00     0.028 C 
HETATM   33  C   UNK N   1      25.755  27.622  -5.235  0.00  0.00     0.034 C 
HETATM   34  C   UNK N   1      26.307  27.929  -3.847  0.00  0.00     0.118 C 
HETATM   35  C   UNK N   1      27.135  29.217  -3.851  0.00  0.00     0.034 C 
HETATM   36  C   UNK N   1      27.714  29.588  -5.224  0.00  0.00     0.028 C 
BRANCH  34  37
HETATM   37  O   UNK N   1      25.251  28.077  -2.949  0.00  0.00    -0.396 OA
HETATM   38  H   UNK N   1      24.352  28.240  -3.276  0.00  0.00     0.210 HD
ENDBRANCH  34  37
ENDBRANCH   8  31
TORSDOF 4
ENDMDL
