REMARK  9 active torsions:
REMARK  status: ('A' for Active; 'I' for Inactive)
REMARK    1  A    between atoms: N_2  and  C_4 
REMARK    2  A    between atoms: C_4  and  C_5 
REMARK    3  A    between atoms: N_9  and  C_37 
REMARK    4  A    between atoms: N_12  and  C_28 
REMARK    5  A    between atoms: C_15  and  C_16 
REMARK    6  A    between atoms: C_19  and  N_22 
REMARK       I    between atoms: N_22  and  C_23 
REMARK       I    between atoms: C_23  and  N_25 
REMARK    7  A    between atoms: N_25  and  O_26 
REMARK    8  A    between atoms: C_28  and  C_29 
REMARK    9  A    between atoms: C_40  and  O_45 
ROOT
HETATM    1  C   UNK N   1       0.894  -0.048   0.276  0.00  0.00     0.006 A 
HETATM    2  C   UNK N   1       2.255  -0.462   0.168  0.00  0.00     0.076 A 
HETATM    3  C   UNK N   1       3.381   0.303   0.421  0.00  0.00     0.271 A 
HETATM    4  O   UNK N   1       3.249   1.454   0.800  0.00  0.00    -0.266 OA
HETATM    5  N   UNK N   1       4.646  -0.251   0.233  0.00  0.00    -0.212 N 
HETATM    6  C   UNK N   1       4.750  -1.590  -0.183  0.00  0.00     0.338 A 
HETATM    7  O   UNK N   1       5.849  -2.085  -0.347  0.00  0.00    -0.246 OA
HETATM    8  N   UNK N   1       3.612  -2.348  -0.450  0.00  0.00    -0.287 N 
HETATM    9  C   UNK N   1       2.405  -1.762  -0.264  0.00  0.00     0.097 A 
HETATM   10  S   UNK N   1       0.895  -2.400  -0.518  0.00  0.00    -0.070 SA
HETATM   11  C   UNK N   1      -0.013  -1.081  -0.063  0.00  0.00     0.026 A 
ENDROOT
BRANCH  11  12
HETATM   12  C   UNK N   1      -1.478  -1.034  -0.002  0.00  0.00    -0.018 A 
HETATM   13  C   UNK N   1      -2.265  -2.073  -0.522  0.00  0.00     0.015 A 
HETATM   14  C   UNK N   1      -3.661  -1.978  -0.485  0.00  0.00     0.030 A 
HETATM   15  C   UNK N   1      -4.271  -0.854   0.089  0.00  0.00     0.036 A 
HETATM   16  C   UNK N   1      -3.471   0.146   0.651  0.00  0.00     0.030 A 
HETATM   17  C   UNK N   1      -2.096   0.053   0.609  0.00  0.00     0.015 A 
BRANCH  15  18
HETATM   18  N   UNK N   1      -5.671  -0.669  -0.064  0.00  0.00    -0.307 N 
HETATM   19  C   UNK N   1      -6.287   0.542   0.029  0.00  0.00     0.344 C 
HETATM   20  O   UNK N   1      -5.660   1.549   0.331  0.00  0.00    -0.245 OA
HETATM   21  N   UNK N   1      -7.580   0.657  -0.339  0.00  0.00    -0.217 N 
HETATM   22  H   UNK N   1      -8.102  -0.151  -0.548  0.00  0.00     0.199 HD
HETATM   23  H   UNK N   1      -6.228  -1.460  -0.247  0.00  0.00     0.170 HD
BRANCH  21  24
HETATM   24  O   UNK N   1      -8.160   1.865  -0.421  0.00  0.00    -0.281 OA
HETATM   25  C   UNK N   1      -7.891   2.304  -1.724  0.00  0.00     0.237 C 
ENDBRANCH  21  24
ENDBRANCH  15  18
ENDBRANCH  11  12
BRANCH   1  26
HETATM   26  C   UNK N   1       0.496   1.348   0.687  0.00  0.00     0.312 C 
BRANCH  26  27
HETATM   27  N   UNK N   1       0.087   2.136  -0.472  0.00  0.00     0.084 N 
HETATM   28  C   UNK N   1       1.274   2.744  -1.053  0.00  0.00     0.309 C 
HETATM   29  C   UNK N   1      -0.731   3.231   0.016  0.00  0.00     0.309 C 
ENDBRANCH  26  27
ENDBRANCH   1  26
BRANCH   8  30
HETATM   30  C   UNK N   1       3.623  -3.704  -1.042  0.00  0.00     0.179 C 
BRANCH  30  31
HETATM   31  C   UNK N   1       4.686  -4.667  -0.592  0.00  0.00     0.037 A 
HETATM   32  C   UNK N   1       5.933  -4.686  -1.245  0.00  0.00     0.127 A 
HETATM   33  C   UNK N   1       6.909  -5.609  -0.866  0.00  0.00     0.043 A 
HETATM   34  F   UNK N   1       6.195  -3.819  -2.257  0.00  0.00    -0.205 F 
HETATM   35  C   UNK N   1       6.646  -6.531   0.147  0.00  0.00     0.006 A 
HETATM   36  C   UNK N   1       5.398  -6.541   0.776  0.00  0.00     0.043 A 
HETATM   37  C   UNK N   1       4.416  -5.614   0.409  0.00  0.00     0.127 A 
HETATM   38  F   UNK N   1       3.201  -5.658   1.009  0.00  0.00    -0.205 F 
ENDBRANCH  30  31
ENDBRANCH   8  30
BRANCH   5  39
HETATM   39  C   UNK N   1       5.829   0.607   0.377  0.00  0.00     0.133 A 
HETATM   40  C   UNK N   1       7.132   0.094   0.304  0.00  0.00     0.055 A 
HETATM   41  C   UNK N   1       8.219   0.961   0.284  0.00  0.00     0.061 A 
HETATM   42  C   UNK N   1       7.994   2.333   0.318  0.00  0.00     0.156 A 
HETATM   43  N   UNK N   1       6.721   2.795   0.421  0.00  0.00    -0.278 N 
HETATM   44  N   UNK N   1       5.682   1.962   0.452  0.00  0.00    -0.283 N 
ATOM     45  HN  UNK N   1       6.557   3.801   0.476  1.00  0.00     0.189 HD
ATOM     46  HN  UNK N   1       4.743   2.351   0.534  1.00  0.00     0.188 HD
BRANCH  42  47
HETATM   47  O   UNK N   1       9.036   3.186   0.218  0.00  0.00    -0.340 OA
HETATM   48  C   UNK N   1       8.860   4.545   0.099  0.00  0.00     0.211 C 
ENDBRANCH  42  47
ENDBRANCH   5  39
TORSDOF 9
