MODEL 1
REMARK VINA RESULT:      -9.4      0.000      0.000
REMARK  11 active torsions:
REMARK  status: ('A' for Active; 'I' for Inactive)
REMARK    1  A    between atoms: N_2  and  C_3 
REMARK       I    between atoms: N_2  and  C_27 
REMARK    2  A    between atoms: C_3  and  C_4 
REMARK    3  A    between atoms: C_4  and  N_5 
REMARK    4  A    between atoms: C_8  and  O_11 
REMARK    5  A    between atoms: O_11  and  C_12 
REMARK       I    between atoms: C_12  and  N_14 
REMARK    6  A    between atoms: N_14  and  C_15 
REMARK    7  A    between atoms: C_20  and  C_21 
REMARK    8  A    between atoms: C_27  and  C_29 
REMARK    9  A    between atoms: C_32  and  C_35 
REMARK   10  A    between atoms: C_35  and  N_36 
REMARK   11  A    between atoms: C_39  and  C_42 
REMARK       I    between atoms: C_42  and  N_44 
ROOT
HETATM    1  C   UNK N   1      35.495  13.255   8.959  0.00  0.00     0.292 C 
ENDROOT
BRANCH   1   2
HETATM    2  C   UNK N   1      35.243  14.282   7.842  0.00  0.00     0.156 C 
BRANCH   2   3
HETATM    3  N   UNK N   1      33.903  14.836   7.921  0.00  0.00    -0.351 N 
HETATM    4  C   UNK N   1      32.881  14.022   8.536  0.00  0.00     0.153 C 
HETATM    5  C   UNK N   1      33.621  16.049   7.326  0.00  0.00     0.253 C 
HETATM    6  O   UNK N   1      34.516  16.648   6.749  0.00  0.00    -0.267 OA
BRANCH   5   7
HETATM    7  C   UNK N   1      32.247  16.663   7.306  0.00  0.00     0.032 A 
HETATM    8  C   UNK N   1      31.403  16.418   6.207  0.00  0.00     0.017 A 
HETATM    9  C   UNK N   1      30.096  16.920   6.183  0.00  0.00     0.010 A 
HETATM   10  C   UNK N   1      29.618  17.693   7.252  0.00  0.00    -0.030 A 
HETATM   11  C   UNK N   1      30.460  17.963   8.329  0.00  0.00     0.010 A 
HETATM   12  C   UNK N   1      31.756  17.448   8.358  0.00  0.00     0.017 A 
BRANCH  10  13
HETATM   13  C   UNK N   1      28.215  18.231   7.294  0.00  0.00     0.311 C 
BRANCH  13  14
HETATM   14  N   UNK N   1      27.776  18.814   6.032  0.00  0.00     0.092 N 
HETATM   15  C   UNK N   1      27.237  20.147   6.310  0.00  0.00     0.273 C 
HETATM   16  C   UNK N   1      26.735  20.785   5.019  0.00  0.00     0.044 C 
HETATM   17  C   UNK N   1      25.621  19.914   4.435  0.00  0.00     0.081 C 
HETATM   18  C   UNK N   1      26.142  18.493   4.225  0.00  0.00     0.044 C 
HETATM   19  C   UNK N   1      26.696  17.957   5.542  0.00  0.00     0.273 C 
BRANCH  17  20
HETATM   20  C   UNK N   1      25.060  20.463   3.152  0.00  0.00     0.219 C 
HETATM   21  O   UNK N   1      25.796  20.920   2.290  0.00  0.00    -0.273 OA
HETATM   22  N   UNK N   1      23.726  20.470   2.957  0.00  0.00    -0.370 N 
HETATM   23  H   UNK N   1      23.147  19.872   3.484  0.00  0.00     0.159 HD
HETATM   24  H   UNK N   1      23.331  21.073   2.287  0.00  0.00     0.159 HD
ENDBRANCH  17  20
ENDBRANCH  13  14
ENDBRANCH  10  13
ENDBRANCH   5   7
ENDBRANCH   2   3
ENDBRANCH   1   2
BRANCH   1  25
HETATM   25  N   UNK N   1      36.767  13.383   9.690  0.00  0.00     0.090 N 
HETATM   26  C   UNK N   1      36.958  14.741  10.206  0.00  0.00     0.275 C 
HETATM   27  C   UNK N   1      36.118  14.988  11.453  0.00  0.00     0.063 C 
HETATM   28  C   UNK N   1      36.454  13.952  12.517  0.00  0.00     0.137 C 
HETATM   29  C   UNK N   1      36.254  12.548  11.976  0.00  0.00     0.063 C 
HETATM   30  C   UNK N   1      37.060  12.346  10.692  0.00  0.00     0.275 C 
BRANCH  28  31
HETATM   31  O   UNK N   1      35.632  14.158  13.595  0.00  0.00    -0.298 OA
BRANCH  31  32
HETATM   32  C   UNK N   1      35.979  13.704  14.812  0.00  0.00     0.365 C 
HETATM   33  O   UNK N   1      37.018  14.083  15.334  0.00  0.00    -0.238 OA
HETATM   34  N   UNK N   1      35.110  12.916  15.484  0.00  0.00    -0.302 N 
HETATM   35  H   UNK N   1      34.254  12.714  15.043  0.00  0.00     0.171 HD
BRANCH  34  36
HETATM   36  C   UNK N   1      35.326  12.356  16.770  0.00  0.00     0.048 A 
HETATM   37  C   UNK N   1      34.980  13.082  17.921  0.00  0.00     0.030 A 
HETATM   38  C   UNK N   1      35.223  12.558  19.190  0.00  0.00     0.002 A 
HETATM   39  C   UNK N   1      35.820  11.306  19.324  0.00  0.00     0.001 A 
HETATM   40  C   UNK N   1      36.163  10.571  18.189  0.00  0.00     0.014 A 
HETATM   41  C   UNK N   1      35.924  11.072  16.897  0.00  0.00     0.001 A 
BRANCH  41  42
HETATM   42  C   UNK N   1      36.263  10.213  15.714  0.00  0.00    -0.024 A 
HETATM   43  C   UNK N   1      37.486  10.344  15.030  0.00  0.00     0.012 A 
HETATM   44  C   UNK N   1      37.771   9.568  13.906  0.00  0.00     0.001 A 
HETATM   45  C   UNK N   1      36.836   8.643  13.444  0.00  0.00     0.000 A 
HETATM   46  C   UNK N   1      35.615   8.497  14.107  0.00  0.00     0.001 A 
HETATM   47  C   UNK N   1      35.328   9.280  15.231  0.00  0.00     0.012 A 
ENDBRANCH  41  42
ENDBRANCH  34  36
ENDBRANCH  31  32
ENDBRANCH  28  31
ENDBRANCH   1  25
TORSDOF 11
ENDMDL
MODEL 2
REMARK VINA RESULT:      -8.6      1.937      2.443
REMARK  11 active torsions:
REMARK  status: ('A' for Active; 'I' for Inactive)
REMARK    1  A    between atoms: N_2  and  C_3 
REMARK       I    between atoms: N_2  and  C_27 
REMARK    2  A    between atoms: C_3  and  C_4 
REMARK    3  A    between atoms: C_4  and  N_5 
REMARK    4  A    between atoms: C_8  and  O_11 
REMARK    5  A    between atoms: O_11  and  C_12 
REMARK       I    between atoms: C_12  and  N_14 
REMARK    6  A    between atoms: N_14  and  C_15 
REMARK    7  A    between atoms: C_20  and  C_21 
REMARK    8  A    between atoms: C_27  and  C_29 
REMARK    9  A    between atoms: C_32  and  C_35 
REMARK   10  A    between atoms: C_35  and  N_36 
REMARK   11  A    between atoms: C_39  and  C_42 
REMARK       I    between atoms: C_42  and  N_44 
ROOT
HETATM    1  C   UNK N   1      35.920  14.202   8.856  0.00  0.00     0.292 C 
ENDROOT
BRANCH   1   2
HETATM    2  C   UNK N   1      35.588  14.290   7.356  0.00  0.00     0.156 C 
BRANCH   2   3
HETATM    3  N   UNK N   1      34.202  14.670   7.140  0.00  0.00    -0.351 N 
HETATM    4  C   UNK N   1      33.239  13.607   6.976  0.00  0.00     0.153 C 
HETATM    5  C   UNK N   1      33.866  15.999   6.991  0.00  0.00     0.253 C 
HETATM    6  O   UNK N   1      34.747  16.845   7.059  0.00  0.00    -0.267 OA
BRANCH   5   7
HETATM    7  C   UNK N   1      32.467  16.473   6.700  0.00  0.00     0.032 A 
HETATM    8  C   UNK N   1      31.558  16.621   7.764  0.00  0.00     0.017 A 
HETATM    9  C   UNK N   1      30.269  17.120   7.538  0.00  0.00     0.010 A 
HETATM   10  C   UNK N   1      29.863  17.461   6.239  0.00  0.00    -0.030 A 
HETATM   11  C   UNK N   1      30.749  17.289   5.179  0.00  0.00     0.010 A 
HETATM   12  C   UNK N   1      32.038  16.807   5.408  0.00  0.00     0.017 A 
BRANCH  10  13
HETATM   13  C   UNK N   1      28.503  18.030   5.944  0.00  0.00     0.311 C 
BRANCH  13  14
HETATM   14  N   UNK N   1      27.782  17.307   4.903  0.00  0.00     0.092 N 
HETATM   15  C   UNK N   1      26.697  18.164   4.421  0.00  0.00     0.273 C 
HETATM   16  C   UNK N   1      25.894  17.434   3.350  0.00  0.00     0.044 C 
HETATM   17  C   UNK N   1      25.288  16.168   3.960  0.00  0.00     0.081 C 
HETATM   18  C   UNK N   1      26.401  15.304   4.551  0.00  0.00     0.044 C 
HETATM   19  C   UNK N   1      27.205  16.129   5.553  0.00  0.00     0.273 C 
BRANCH  17  20
HETATM   20  C   UNK N   1      24.474  15.376   2.975  0.00  0.00     0.219 C 
HETATM   21  O   UNK N   1      23.254  15.443   2.973  0.00  0.00    -0.273 OA
HETATM   22  N   UNK N   1      25.095  14.567   2.094  0.00  0.00    -0.370 N 
HETATM   23  H   UNK N   1      26.048  14.702   1.886  0.00  0.00     0.159 HD
HETATM   24  H   UNK N   1      24.595  13.839   1.659  0.00  0.00     0.159 HD
ENDBRANCH  17  20
ENDBRANCH  13  14
ENDBRANCH  10  13
ENDBRANCH   5   7
ENDBRANCH   2   3
ENDBRANCH   1   2
BRANCH   1  25
HETATM   25  N   UNK N   1      34.783  13.986   9.766  0.00  0.00     0.090 N 
HETATM   26  C   UNK N   1      34.991  12.814  10.620  0.00  0.00     0.275 C 
HETATM   27  C   UNK N   1      35.955  13.117  11.759  0.00  0.00     0.063 C 
HETATM   28  C   UNK N   1      35.441  14.296  12.574  0.00  0.00     0.137 C 
HETATM   29  C   UNK N   1      35.227  15.506  11.683  0.00  0.00     0.063 C 
HETATM   30  C   UNK N   1      34.304  15.159  10.514  0.00  0.00     0.275 C 
BRANCH  28  31
HETATM   31  O   UNK N   1      36.364  14.588  13.544  0.00  0.00    -0.298 OA
BRANCH  31  32
HETATM   32  C   UNK N   1      36.447  13.835  14.655  0.00  0.00     0.365 C 
HETATM   33  O   UNK N   1      37.539  13.482  15.076  0.00  0.00    -0.238 OA
HETATM   34  N   UNK N   1      35.316  13.575  15.348  0.00  0.00    -0.302 N 
HETATM   35  H   UNK N   1      34.478  13.957  15.002  0.00  0.00     0.171 HD
BRANCH  34  36
HETATM   36  C   UNK N   1      35.234  12.799  16.533  0.00  0.00     0.048 A 
HETATM   37  C   UNK N   1      35.291  13.422  17.790  0.00  0.00     0.030 A 
HETATM   38  C   UNK N   1      35.249  12.667  18.961  0.00  0.00     0.002 A 
HETATM   39  C   UNK N   1      35.157  11.278  18.890  0.00  0.00     0.001 A 
HETATM   40  C   UNK N   1      35.093  10.644  17.648  0.00  0.00     0.014 A 
HETATM   41  C   UNK N   1      35.127  11.383  16.452  0.00  0.00     0.001 A 
BRANCH  41  42
HETATM   42  C   UNK N   1      34.999  10.651  15.147  0.00  0.00    -0.024 A 
HETATM   43  C   UNK N   1      36.012   9.796  14.675  0.00  0.00     0.012 A 
HETATM   44  C   UNK N   1      35.899   9.156  13.441  0.00  0.00     0.001 A 
HETATM   45  C   UNK N   1      34.766   9.358  12.653  0.00  0.00     0.000 A 
HETATM   46  C   UNK N   1      33.748  10.202  13.103  0.00  0.00     0.001 A 
HETATM   47  C   UNK N   1      33.865  10.849  14.338  0.00  0.00     0.012 A 
ENDBRANCH  41  42
ENDBRANCH  34  36
ENDBRANCH  31  32
ENDBRANCH  28  31
ENDBRANCH   1  25
TORSDOF 11
ENDMDL
MODEL 3
REMARK VINA RESULT:      -8.5      5.536     12.655
REMARK  11 active torsions:
REMARK  status: ('A' for Active; 'I' for Inactive)
REMARK    1  A    between atoms: N_2  and  C_3 
REMARK       I    between atoms: N_2  and  C_27 
REMARK    2  A    between atoms: C_3  and  C_4 
REMARK    3  A    between atoms: C_4  and  N_5 
REMARK    4  A    between atoms: C_8  and  O_11 
REMARK    5  A    between atoms: O_11  and  C_12 
REMARK       I    between atoms: C_12  and  N_14 
REMARK    6  A    between atoms: N_14  and  C_15 
REMARK    7  A    between atoms: C_20  and  C_21 
REMARK    8  A    between atoms: C_27  and  C_29 
REMARK    9  A    between atoms: C_32  and  C_35 
REMARK   10  A    between atoms: C_35  and  N_36 
REMARK   11  A    between atoms: C_39  and  C_42 
REMARK       I    between atoms: C_42  and  N_44 
ROOT
HETATM    1  C   UNK N   1      26.914  14.602   2.686  0.00  0.00     0.292 C 
ENDROOT
BRANCH   1   2
HETATM    2  C   UNK N   1      27.500  16.020   2.791  0.00  0.00     0.156 C 
BRANCH   2   3
HETATM    3  N   UNK N   1      28.802  16.012   3.436  0.00  0.00    -0.351 N 
HETATM    4  C   UNK N   1      29.596  14.811   3.315  0.00  0.00     0.153 C 
HETATM    5  C   UNK N   1      29.194  17.080   4.216  0.00  0.00     0.253 C 
HETATM    6  O   UNK N   1      28.436  18.031   4.342  0.00  0.00    -0.267 OA
BRANCH   5   7
HETATM    7  C   UNK N   1      30.496  17.123   4.970  0.00  0.00     0.032 A 
HETATM    8  C   UNK N   1      30.520  16.725   6.319  0.00  0.00     0.017 A 
HETATM    9  C   UNK N   1      31.725  16.692   7.033  0.00  0.00     0.010 A 
HETATM   10  C   UNK N   1      32.923  17.076   6.412  0.00  0.00    -0.030 A 
HETATM   11  C   UNK N   1      32.899  17.499   5.085  0.00  0.00     0.010 A 
HETATM   12  C   UNK N   1      31.701  17.517   4.371  0.00  0.00     0.017 A 
BRANCH  10  13
HETATM   13  C   UNK N   1      34.248  17.031   7.120  0.00  0.00     0.311 C 
BRANCH  13  14
HETATM   14  N   UNK N   1      34.199  16.348   8.407  0.00  0.00     0.092 N 
HETATM   15  C   UNK N   1      34.957  17.144   9.374  0.00  0.00     0.273 C 
HETATM   16  C   UNK N   1      34.959  16.449  10.732  0.00  0.00     0.044 C 
HETATM   17  C   UNK N   1      35.626  15.080  10.588  0.00  0.00     0.081 C 
HETATM   18  C   UNK N   1      34.902  14.269   9.515  0.00  0.00     0.044 C 
HETATM   19  C   UNK N   1      34.875  15.064   8.212  0.00  0.00     0.273 C 
BRANCH  17  20
HETATM   20  C   UNK N   1      35.675  14.314  11.882  0.00  0.00     0.219 C 
HETATM   21  O   UNK N   1      34.650  13.907  12.409  0.00  0.00    -0.273 OA
HETATM   22  N   UNK N   1      36.862  14.089  12.479  0.00  0.00    -0.370 N 
HETATM   23  H   UNK N   1      37.696  14.149  11.958  0.00  0.00     0.159 HD
HETATM   24  H   UNK N   1      36.896  13.863  13.436  0.00  0.00     0.159 HD
ENDBRANCH  17  20
ENDBRANCH  13  14
ENDBRANCH  10  13
ENDBRANCH   5   7
ENDBRANCH   2   3
ENDBRANCH   1   2
BRANCH   1  25
HETATM   25  N   UNK N   1      25.474  14.468   2.963  0.00  0.00     0.090 N 
HETATM   26  C   UNK N   1      25.092  13.067   3.163  0.00  0.00     0.275 C 
HETATM   27  C   UNK N   1      25.491  12.571   4.547  0.00  0.00     0.063 C 
HETATM   28  C   UNK N   1      24.870  13.460   5.615  0.00  0.00     0.137 C 
HETATM   29  C   UNK N   1      25.269  14.909   5.402  0.00  0.00     0.063 C 
HETATM   30  C   UNK N   1      24.912  15.363   3.986  0.00  0.00     0.275 C 
BRANCH  28  31
HETATM   31  O   UNK N   1      25.306  13.032   6.842  0.00  0.00    -0.298 OA
BRANCH  31  32
HETATM   32  C   UNK N   1      24.437  12.530   7.737  0.00  0.00     0.365 C 
HETATM   33  O   UNK N   1      24.037  11.379   7.624  0.00  0.00    -0.238 OA
HETATM   34  N   UNK N   1      24.106  13.279   8.812  0.00  0.00    -0.302 N 
HETATM   35  H   UNK N   1      24.526  14.165   8.889  0.00  0.00     0.171 HD
BRANCH  34  36
HETATM   36  C   UNK N   1      23.206  12.897   9.840  0.00  0.00     0.048 A 
HETATM   37  C   UNK N   1      23.670  12.167  10.947  0.00  0.00     0.030 A 
HETATM   38  C   UNK N   1      22.788  11.753  11.945  0.00  0.00     0.002 A 
HETATM   39  C   UNK N   1      21.431  12.057  11.845  0.00  0.00     0.001 A 
HETATM   40  C   UNK N   1      20.957  12.787  10.754  0.00  0.00     0.014 A 
HETATM   41  C   UNK N   1      21.826  13.222   9.737  0.00  0.00     0.001 A 
BRANCH  41  42
HETATM   42  C   UNK N   1      21.268  14.051   8.616  0.00  0.00    -0.024 A 
HETATM   43  C   UNK N   1      20.992  15.422   8.776  0.00  0.00     0.012 A 
HETATM   44  C   UNK N   1      20.434  16.171   7.739  0.00  0.00     0.001 A 
HETATM   45  C   UNK N   1      20.141  15.562   6.520  0.00  0.00     0.000 A 
HETATM   46  C   UNK N   1      20.407  14.202   6.340  0.00  0.00     0.001 A 
HETATM   47  C   UNK N   1      20.961  13.450   7.382  0.00  0.00     0.012 A 
ENDBRANCH  41  42
ENDBRANCH  34  36
ENDBRANCH  31  32
ENDBRANCH  28  31
ENDBRANCH   1  25
TORSDOF 11
ENDMDL
MODEL 4
REMARK VINA RESULT:      -8.3      3.702     11.814
REMARK  11 active torsions:
REMARK  status: ('A' for Active; 'I' for Inactive)
REMARK    1  A    between atoms: N_2  and  C_3 
REMARK       I    between atoms: N_2  and  C_27 
REMARK    2  A    between atoms: C_3  and  C_4 
REMARK    3  A    between atoms: C_4  and  N_5 
REMARK    4  A    between atoms: C_8  and  O_11 
REMARK    5  A    between atoms: O_11  and  C_12 
REMARK       I    between atoms: C_12  and  N_14 
REMARK    6  A    between atoms: N_14  and  C_15 
REMARK    7  A    between atoms: C_20  and  C_21 
REMARK    8  A    between atoms: C_27  and  C_29 
REMARK    9  A    between atoms: C_32  and  C_35 
REMARK   10  A    between atoms: C_35  and  N_36 
REMARK   11  A    between atoms: C_39  and  C_42 
REMARK       I    between atoms: C_42  and  N_44 
ROOT
HETATM    1  C   UNK N   1      28.832  15.300   2.204  0.00  0.00     0.292 C 
ENDROOT
BRANCH   1   2
HETATM    2  C   UNK N   1      30.004  14.331   2.437  0.00  0.00     0.156 C 
BRANCH   2   3
HETATM    3  N   UNK N   1      30.753  14.678   3.632  0.00  0.00    -0.351 N 
HETATM    4  C   UNK N   1      30.755  13.724   4.716  0.00  0.00     0.153 C 
HETATM    5  C   UNK N   1      31.338  15.923   3.744  0.00  0.00     0.253 C 
HETATM    6  O   UNK N   1      31.226  16.715   2.819  0.00  0.00    -0.267 OA
BRANCH   5   7
HETATM    7  C   UNK N   1      32.075  16.386   4.972  0.00  0.00     0.032 A 
HETATM    8  C   UNK N   1      31.343  16.909   6.054  0.00  0.00     0.017 A 
HETATM    9  C   UNK N   1      31.989  17.290   7.236  0.00  0.00     0.010 A 
HETATM   10  C   UNK N   1      33.383  17.172   7.347  0.00  0.00    -0.030 A 
HETATM   11  C   UNK N   1      34.115  16.682   6.268  0.00  0.00     0.010 A 
HETATM   12  C   UNK N   1      33.468  16.288   5.097  0.00  0.00     0.017 A 
BRANCH  10  13
HETATM   13  C   UNK N   1      34.125  17.536   8.603  0.00  0.00     0.311 C 
BRANCH  13  14
HETATM   14  N   UNK N   1      34.747  16.395   9.264  0.00  0.00     0.092 N 
HETATM   15  C   UNK N   1      33.686  15.474   9.675  0.00  0.00     0.273 C 
HETATM   16  C   UNK N   1      34.289  14.276  10.402  0.00  0.00     0.044 C 
HETATM   17  C   UNK N   1      35.024  14.771  11.649  0.00  0.00     0.081 C 
HETATM   18  C   UNK N   1      36.074  15.804  11.247  0.00  0.00     0.044 C 
HETATM   19  C   UNK N   1      35.404  16.927  10.459  0.00  0.00     0.273 C 
BRANCH  17  20
HETATM   20  C   UNK N   1      35.657  13.656  12.436  0.00  0.00     0.219 C 
HETATM   21  O   UNK N   1      35.116  12.564  12.522  0.00  0.00    -0.273 OA
HETATM   22  N   UNK N   1      36.826  13.869  13.072  0.00  0.00    -0.370 N 
HETATM   23  H   UNK N   1      37.408  14.615  12.799  0.00  0.00     0.159 HD
HETATM   24  H   UNK N   1      37.099  13.277  13.809  0.00  0.00     0.159 HD
ENDBRANCH  17  20
ENDBRANCH  13  14
ENDBRANCH  10  13
ENDBRANCH   5   7
ENDBRANCH   2   3
ENDBRANCH   1   2
BRANCH   1  25
HETATM   25  N   UNK N   1      27.491  14.698   2.132  0.00  0.00     0.090 N 
HETATM   26  C   UNK N   1      27.385  13.511   2.986  0.00  0.00     0.275 C 
HETATM   27  C   UNK N   1      27.228  13.892   4.453  0.00  0.00     0.063 C 
HETATM   28  C   UNK N   1      26.014  14.795   4.626  0.00  0.00     0.137 C 
HETATM   29  C   UNK N   1      26.130  16.020   3.739  0.00  0.00     0.063 C 
HETATM   30  C   UNK N   1      26.347  15.611   2.281  0.00  0.00     0.275 C 
BRANCH  28  31
HETATM   31  O   UNK N   1      25.944  15.177   5.942  0.00  0.00    -0.298 OA
BRANCH  31  32
HETATM   32  C   UNK N   1      27.007  15.736   6.547  0.00  0.00     0.365 C 
HETATM   33  O   UNK N   1      28.136  15.502   6.139  0.00  0.00    -0.238 OA
HETATM   34  N   UNK N   1      26.794  16.636   7.532  0.00  0.00    -0.302 N 
HETATM   35  H   UNK N   1      25.860  16.843   7.758  0.00  0.00     0.171 HD
BRANCH  34  36
HETATM   36  C   UNK N   1      27.804  17.309   8.267  0.00  0.00     0.048 A 
HETATM   37  C   UNK N   1      28.325  16.735   9.438  0.00  0.00     0.030 A 
HETATM   38  C   UNK N   1      29.290  17.405  10.189  0.00  0.00     0.002 A 
HETATM   39  C   UNK N   1      29.740  18.660   9.783  0.00  0.00     0.001 A 
HETATM   40  C   UNK N   1      29.236  19.241   8.618  0.00  0.00     0.014 A 
HETATM   41  C   UNK N   1      28.267  18.584   7.839  0.00  0.00     0.001 A 
BRANCH  41  42
HETATM   42  C   UNK N   1      27.803  19.232   6.567  0.00  0.00    -0.024 A 
HETATM   43  C   UNK N   1      28.310  18.847   5.311  0.00  0.00     0.012 A 
HETATM   44  C   UNK N   1      27.901  19.486   4.141  0.00  0.00     0.001 A 
HETATM   45  C   UNK N   1      26.974  20.526   4.204  0.00  0.00     0.000 A 
HETATM   46  C   UNK N   1      26.457  20.924   5.439  0.00  0.00     0.001 A 
HETATM   47  C   UNK N   1      26.872  20.286   6.613  0.00  0.00     0.012 A 
ENDBRANCH  41  42
ENDBRANCH  34  36
ENDBRANCH  31  32
ENDBRANCH  28  31
ENDBRANCH   1  25
TORSDOF 11
ENDMDL
MODEL 5
REMARK VINA RESULT:      -8.3      4.298     14.231
REMARK  11 active torsions:
REMARK  status: ('A' for Active; 'I' for Inactive)
REMARK    1  A    between atoms: N_2  and  C_3 
REMARK       I    between atoms: N_2  and  C_27 
REMARK    2  A    between atoms: C_3  and  C_4 
REMARK    3  A    between atoms: C_4  and  N_5 
REMARK    4  A    between atoms: C_8  and  O_11 
REMARK    5  A    between atoms: O_11  and  C_12 
REMARK       I    between atoms: C_12  and  N_14 
REMARK    6  A    between atoms: N_14  and  C_15 
REMARK    7  A    between atoms: C_20  and  C_21 
REMARK    8  A    between atoms: C_27  and  C_29 
REMARK    9  A    between atoms: C_32  and  C_35 
REMARK   10  A    between atoms: C_35  and  N_36 
REMARK   11  A    between atoms: C_39  and  C_42 
REMARK       I    between atoms: C_42  and  N_44 
ROOT
HETATM    1  C   UNK N   1      36.099  13.104  12.478  0.00  0.00     0.292 C 
ENDROOT
BRANCH   1   2
HETATM    2  C   UNK N   1      35.984  13.750  13.869  0.00  0.00     0.156 C 
BRANCH   2   3
HETATM    3  N   UNK N   1      36.104  12.760  14.927  0.00  0.00    -0.351 N 
HETATM    4  C   UNK N   1      37.255  11.889  14.894  0.00  0.00     0.153 C 
HETATM    5  C   UNK N   1      35.090  12.609  15.849  0.00  0.00     0.253 C 
HETATM    6  O   UNK N   1      34.104  13.327  15.768  0.00  0.00    -0.267 OA
BRANCH   5   7
HETATM    7  C   UNK N   1      35.105  11.567  16.935  0.00  0.00     0.032 A 
HETATM    8  C   UNK N   1      35.322  11.968  18.267  0.00  0.00     0.017 A 
HETATM    9  C   UNK N   1      35.279  11.035  19.310  0.00  0.00     0.010 A 
HETATM   10  C   UNK N   1      35.038   9.680  19.035  0.00  0.00    -0.030 A 
HETATM   11  C   UNK N   1      34.852   9.274  17.715  0.00  0.00     0.010 A 
HETATM   12  C   UNK N   1      34.879  10.208  16.679  0.00  0.00     0.017 A 
BRANCH  10  13
HETATM   13  C   UNK N   1      34.950   8.641  20.117  0.00  0.00     0.311 C 
BRANCH  13  14
HETATM   14  N   UNK N   1      34.377   9.142  21.361  0.00  0.00     0.092 N 
HETATM   15  C   UNK N   1      34.473   8.081  22.365  0.00  0.00     0.273 C 
HETATM   16  C   UNK N   1      33.855   8.550  23.679  0.00  0.00     0.044 C 
HETATM   17  C   UNK N   1      32.379   8.876  23.444  0.00  0.00     0.081 C 
HETATM   18  C   UNK N   1      32.256   9.916  22.332  0.00  0.00     0.044 C 
HETATM   19  C   UNK N   1      32.965   9.405  21.080  0.00  0.00     0.273 C 
BRANCH  17  20
HETATM   20  C   UNK N   1      31.680   9.351  24.688  0.00  0.00     0.219 C 
HETATM   21  O   UNK N   1      31.021   8.580  25.370  0.00  0.00    -0.273 OA
HETATM   22  N   UNK N   1      31.764  10.647  25.047  0.00  0.00    -0.370 N 
HETATM   23  H   UNK N   1      32.491  11.211  24.695  0.00  0.00     0.159 HD
HETATM   24  H   UNK N   1      31.098  11.031  25.662  0.00  0.00     0.159 HD
ENDBRANCH  17  20
ENDBRANCH  13  14
ENDBRANCH  10  13
ENDBRANCH   5   7
ENDBRANCH   2   3
ENDBRANCH   1   2
BRANCH   1  25
HETATM   25  N   UNK N   1      34.924  13.229  11.600  0.00  0.00     0.090 N 
HETATM   26  C   UNK N   1      34.794  14.587  11.063  0.00  0.00     0.275 C 
HETATM   27  C   UNK N   1      35.777  14.834   9.926  0.00  0.00     0.063 C 
HETATM   28  C   UNK N   1      35.572  13.797   8.830  0.00  0.00     0.137 C 
HETATM   29  C   UNK N   1      35.707  12.394   9.392  0.00  0.00     0.063 C 
HETATM   30  C   UNK N   1      34.754  12.191  10.571  0.00  0.00     0.275 C 
BRANCH  28  31
HETATM   31  O   UNK N   1      36.517  14.003   7.858  0.00  0.00    -0.298 OA
BRANCH  31  32
HETATM   32  C   UNK N   1      36.162  14.486   6.654  0.00  0.00     0.365 C 
HETATM   33  O   UNK N   1      37.011  14.945   5.904  0.00  0.00    -0.238 OA
HETATM   34  N   UNK N   1      34.877  14.352   6.254  0.00  0.00    -0.302 N 
HETATM   35  H   UNK N   1      34.259  13.899   6.871  0.00  0.00     0.171 HD
BRANCH  34  36
HETATM   36  C   UNK N   1      34.345  14.808   5.020  0.00  0.00     0.048 A 
HETATM   37  C   UNK N   1      34.607  14.102   3.836  0.00  0.00     0.030 A 
HETATM   38  C   UNK N   1      34.121  14.561   2.612  0.00  0.00     0.002 A 
HETATM   39  C   UNK N   1      33.373  15.736   2.557  0.00  0.00     0.001 A 
HETATM   40  C   UNK N   1      33.099  16.445   3.728  0.00  0.00     0.014 A 
HETATM   41  C   UNK N   1      33.572  16.001   4.975  0.00  0.00     0.001 A 
BRANCH  41  42
HETATM   42  C   UNK N   1      33.199  16.775   6.206  0.00  0.00    -0.024 A 
HETATM   43  C   UNK N   1      34.148  17.527   6.924  0.00  0.00     0.012 A 
HETATM   44  C   UNK N   1      33.797  18.207   8.091  0.00  0.00     0.001 A 
HETATM   45  C   UNK N   1      32.486  18.148   8.563  0.00  0.00     0.000 A 
HETATM   46  C   UNK N   1      31.528  17.407   7.866  0.00  0.00     0.001 A 
HETATM   47  C   UNK N   1      31.883  16.721   6.699  0.00  0.00     0.012 A 
ENDBRANCH  41  42
ENDBRANCH  34  36
ENDBRANCH  31  32
ENDBRANCH  28  31
ENDBRANCH   1  25
TORSDOF 11
ENDMDL
MODEL 6
REMARK VINA RESULT:      -8.3      1.746      2.285
REMARK  11 active torsions:
REMARK  status: ('A' for Active; 'I' for Inactive)
REMARK    1  A    between atoms: N_2  and  C_3 
REMARK       I    between atoms: N_2  and  C_27 
REMARK    2  A    between atoms: C_3  and  C_4 
REMARK    3  A    between atoms: C_4  and  N_5 
REMARK    4  A    between atoms: C_8  and  O_11 
REMARK    5  A    between atoms: O_11  and  C_12 
REMARK       I    between atoms: C_12  and  N_14 
REMARK    6  A    between atoms: N_14  and  C_15 
REMARK    7  A    between atoms: C_20  and  C_21 
REMARK    8  A    between atoms: C_27  and  C_29 
REMARK    9  A    between atoms: C_32  and  C_35 
REMARK   10  A    between atoms: C_35  and  N_36 
REMARK   11  A    between atoms: C_39  and  C_42 
REMARK       I    between atoms: C_42  and  N_44 
ROOT
HETATM    1  C   UNK N   1      34.582  13.967   9.368  0.00  0.00     0.292 C 
ENDROOT
BRANCH   1   2
HETATM    2  C   UNK N   1      34.700  15.234   8.504  0.00  0.00     0.156 C 
BRANCH   2   3
HETATM    3  N   UNK N   1      33.737  15.228   7.416  0.00  0.00    -0.351 N 
HETATM    4  C   UNK N   1      34.056  14.437   6.251  0.00  0.00     0.153 C 
HETATM    5  C   UNK N   1      32.624  16.041   7.474  0.00  0.00     0.253 C 
HETATM    6  O   UNK N   1      32.458  16.749   8.457  0.00  0.00    -0.267 OA
BRANCH   5   7
HETATM    7  C   UNK N   1      31.613  16.143   6.364  0.00  0.00     0.032 A 
HETATM    8  C   UNK N   1      30.615  15.158   6.253  0.00  0.00     0.017 A 
HETATM    9  C   UNK N   1      29.620  15.255   5.272  0.00  0.00     0.010 A 
HETATM   10  C   UNK N   1      29.621  16.332   4.372  0.00  0.00    -0.030 A 
HETATM   11  C   UNK N   1      30.625  17.295   4.459  0.00  0.00     0.010 A 
HETATM   12  C   UNK N   1      31.605  17.204   5.447  0.00  0.00     0.017 A 
BRANCH  10  13
HETATM   13  C   UNK N   1      28.561  16.504   3.320  0.00  0.00     0.311 C 
BRANCH  13  14
HETATM   14  N   UNK N   1      27.208  16.557   3.859  0.00  0.00     0.092 N 
HETATM   15  C   UNK N   1      26.272  16.272   2.770  0.00  0.00     0.273 C 
HETATM   16  C   UNK N   1      24.837  16.348   3.282  0.00  0.00     0.044 C 
HETATM   17  C   UNK N   1      24.571  17.761   3.805  0.00  0.00     0.081 C 
HETATM   18  C   UNK N   1      25.598  18.109   4.880  0.00  0.00     0.044 C 
HETATM   19  C   UNK N   1      27.005  17.934   4.313  0.00  0.00     0.273 C 
BRANCH  17  20
HETATM   20  C   UNK N   1      23.174  17.935   4.335  0.00  0.00     0.219 C 
HETATM   21  O   UNK N   1      22.214  17.951   3.580  0.00  0.00    -0.273 OA
HETATM   22  N   UNK N   1      22.979  18.094   5.659  0.00  0.00    -0.370 N 
HETATM   23  H   UNK N   1      23.672  17.810   6.298  0.00  0.00     0.159 HD
HETATM   24  H   UNK N   1      22.142  18.494   5.988  0.00  0.00     0.159 HD
ENDBRANCH  17  20
ENDBRANCH  13  14
ENDBRANCH  10  13
ENDBRANCH   5   7
ENDBRANCH   2   3
ENDBRANCH   1   2
BRANCH   1  25
HETATM   25  N   UNK N   1      35.846  13.382   9.846  0.00  0.00     0.090 N 
HETATM   26  C   UNK N   1      36.821  14.417  10.199  0.00  0.00     0.275 C 
HETATM   27  C   UNK N   1      36.502  15.047  11.549  0.00  0.00     0.063 C 
HETATM   28  C   UNK N   1      36.445  13.968  12.623  0.00  0.00     0.137 C 
HETATM   29  C   UNK N   1      35.435  12.899  12.251  0.00  0.00     0.063 C 
HETATM   30  C   UNK N   1      35.741  12.326  10.866  0.00  0.00     0.275 C 
BRANCH  28  31
HETATM   31  O   UNK N   1      36.086  14.557  13.808  0.00  0.00    -0.298 OA
BRANCH  31  32
HETATM   32  C   UNK N   1      36.329  13.937  14.977  0.00  0.00     0.365 C 
HETATM   33  O   UNK N   1      37.452  13.959  15.460  0.00  0.00    -0.238 OA
HETATM   34  N   UNK N   1      35.292  13.393  15.651  0.00  0.00    -0.302 N 
HETATM   35  H   UNK N   1      34.398  13.481  15.249  0.00  0.00     0.171 HD
BRANCH  34  36
HETATM   36  C   UNK N   1      35.381  12.707  16.890  0.00  0.00     0.048 A 
HETATM   37  C   UNK N   1      35.090  13.377  18.089  0.00  0.00     0.030 A 
HETATM   38  C   UNK N   1      35.211  12.723  19.315  0.00  0.00     0.002 A 
HETATM   39  C   UNK N   1      35.630  11.395  19.357  0.00  0.00     0.001 A 
HETATM   40  C   UNK N   1      35.916  10.714  18.173  0.00  0.00     0.014 A 
HETATM   41  C   UNK N   1      35.796  11.347  16.923  0.00  0.00     0.001 A 
BRANCH  41  42
HETATM   42  C   UNK N   1      36.063  10.548  15.680  0.00  0.00    -0.024 A 
HETATM   43  C   UNK N   1      35.019   9.978  14.928  0.00  0.00     0.012 A 
HETATM   44  C   UNK N   1      35.283   9.202  13.799  0.00  0.00     0.001 A 
HETATM   45  C   UNK N   1      36.601   8.982  13.399  0.00  0.00     0.000 A 
HETATM   46  C   UNK N   1      37.652   9.539  14.131  0.00  0.00     0.001 A 
HETATM   47  C   UNK N   1      37.387  10.312  15.266  0.00  0.00     0.012 A 
ENDBRANCH  41  42
ENDBRANCH  34  36
ENDBRANCH  31  32
ENDBRANCH  28  31
ENDBRANCH   1  25
TORSDOF 11
ENDMDL
MODEL 7
REMARK VINA RESULT:      -8.2      3.243     13.335
REMARK  11 active torsions:
REMARK  status: ('A' for Active; 'I' for Inactive)
REMARK    1  A    between atoms: N_2  and  C_3 
REMARK       I    between atoms: N_2  and  C_27 
REMARK    2  A    between atoms: C_3  and  C_4 
REMARK    3  A    between atoms: C_4  and  N_5 
REMARK    4  A    between atoms: C_8  and  O_11 
REMARK    5  A    between atoms: O_11  and  C_12 
REMARK       I    between atoms: C_12  and  N_14 
REMARK    6  A    between atoms: N_14  and  C_15 
REMARK    7  A    between atoms: C_20  and  C_21 
REMARK    8  A    between atoms: C_27  and  C_29 
REMARK    9  A    between atoms: C_32  and  C_35 
REMARK   10  A    between atoms: C_35  and  N_36 
REMARK   11  A    between atoms: C_39  and  C_42 
REMARK       I    between atoms: C_42  and  N_44 
ROOT
HETATM    1  C   UNK N   1      36.653  13.018  10.557  0.00  0.00     0.292 C 
ENDROOT
BRANCH   1   2
HETATM    2  C   UNK N   1      37.694  12.723  11.651  0.00  0.00     0.156 C 
BRANCH   2   3
HETATM    3  N   UNK N   1      37.179  11.789  12.637  0.00  0.00    -0.351 N 
HETATM    4  C   UNK N   1      36.819  10.468  12.177  0.00  0.00     0.153 C 
HETATM    5  C   UNK N   1      36.951  12.207  13.932  0.00  0.00     0.253 C 
HETATM    6  O   UNK N   1      37.202  13.365  14.233  0.00  0.00    -0.267 OA
BRANCH   5   7
HETATM    7  C   UNK N   1      36.360  11.323  14.997  0.00  0.00     0.032 A 
HETATM    8  C   UNK N   1      34.963  11.287  15.160  0.00  0.00     0.017 A 
HETATM    9  C   UNK N   1      34.374  10.429  16.098  0.00  0.00     0.010 A 
HETATM   10  C   UNK N   1      35.178   9.606  16.902  0.00  0.00    -0.030 A 
HETATM   11  C   UNK N   1      36.563   9.660  16.764  0.00  0.00     0.010 A 
HETATM   12  C   UNK N   1      37.146  10.504  15.819  0.00  0.00     0.017 A 
BRANCH  10  13
HETATM   13  C   UNK N   1      34.600   8.644  17.901  0.00  0.00     0.311 C 
BRANCH  13  14
HETATM   14  N   UNK N   1      34.034   9.295  19.077  0.00  0.00     0.092 N 
HETATM   15  C   UNK N   1      35.068   9.340  20.113  0.00  0.00     0.273 C 
HETATM   16  C   UNK N   1      34.510   9.987  21.377  0.00  0.00     0.044 C 
HETATM   17  C   UNK N   1      33.336   9.148  21.887  0.00  0.00     0.081 C 
HETATM   18  C   UNK N   1      32.288   9.013  20.784  0.00  0.00     0.044 C 
HETATM   19  C   UNK N   1      32.942   8.433  19.532  0.00  0.00     0.273 C 
BRANCH  17  20
HETATM   20  C   UNK N   1      32.715   9.708  23.137  0.00  0.00     0.219 C 
HETATM   21  O   UNK N   1      32.184   8.975  23.957  0.00  0.00    -0.273 OA
HETATM   22  N   UNK N   1      32.728  11.039  23.349  0.00  0.00    -0.370 N 
HETATM   23  H   UNK N   1      33.374  11.609  22.870  0.00  0.00     0.159 HD
HETATM   24  H   UNK N   1      32.092  11.442  23.982  0.00  0.00     0.159 HD
ENDBRANCH  17  20
ENDBRANCH  13  14
ENDBRANCH  10  13
ENDBRANCH   5   7
ENDBRANCH   2   3
ENDBRANCH   1   2
BRANCH   1  25
HETATM   25  N   UNK N   1      35.290  13.330  11.019  0.00  0.00     0.090 N 
HETATM   26  C   UNK N   1      35.261  14.548  11.832  0.00  0.00     0.275 C 
HETATM   27  C   UNK N   1      35.345  15.799  10.966  0.00  0.00     0.063 C 
HETATM   28  C   UNK N   1      34.213  15.800   9.947  0.00  0.00     0.137 C 
HETATM   29  C   UNK N   1      34.249  14.535   9.109  0.00  0.00     0.063 C 
HETATM   30  C   UNK N   1      34.225  13.295  10.005  0.00  0.00     0.275 C 
BRANCH  28  31
HETATM   31  O   UNK N   1      34.360  16.899   9.139  0.00  0.00    -0.298 OA
BRANCH  31  32
HETATM   32  C   UNK N   1      33.280  17.529   8.645  0.00  0.00     0.365 C 
HETATM   33  O   UNK N   1      33.415  18.553   7.989  0.00  0.00    -0.238 OA
HETATM   34  N   UNK N   1      32.066  16.953   8.793  0.00  0.00    -0.302 N 
HETATM   35  H   UNK N   1      32.034  16.087   9.259  0.00  0.00     0.171 HD
BRANCH  34  36
HETATM   36  C   UNK N   1      30.835  17.489   8.333  0.00  0.00     0.048 A 
HETATM   37  C   UNK N   1      30.020  18.230   9.204  0.00  0.00     0.030 A 
HETATM   38  C   UNK N   1      28.792  18.728   8.774  0.00  0.00     0.002 A 
HETATM   39  C   UNK N   1      28.359  18.487   7.471  0.00  0.00     0.001 A 
HETATM   40  C   UNK N   1      29.162  17.758   6.593  0.00  0.00     0.014 A 
HETATM   41  C   UNK N   1      30.409  17.248   6.998  0.00  0.00     0.001 A 
BRANCH  41  42
HETATM   42  C   UNK N   1      31.253  16.519   5.994  0.00  0.00    -0.024 A 
HETATM   43  C   UNK N   1      31.332  15.114   5.974  0.00  0.00     0.012 A 
HETATM   44  C   UNK N   1      32.153  14.450   5.062  0.00  0.00     0.001 A 
HETATM   45  C   UNK N   1      32.913  15.182   4.149  0.00  0.00     0.000 A 
HETATM   46  C   UNK N   1      32.849  16.577   4.152  0.00  0.00     0.001 A 
HETATM   47  C   UNK N   1      32.030  17.242   5.071  0.00  0.00     0.012 A 
ENDBRANCH  41  42
ENDBRANCH  34  36
ENDBRANCH  31  32
ENDBRANCH  28  31
ENDBRANCH   1  25
TORSDOF 11
ENDMDL
MODEL 8
REMARK VINA RESULT:      -8.1      3.412     13.771
REMARK  11 active torsions:
REMARK  status: ('A' for Active; 'I' for Inactive)
REMARK    1  A    between atoms: N_2  and  C_3 
REMARK       I    between atoms: N_2  and  C_27 
REMARK    2  A    between atoms: C_3  and  C_4 
REMARK    3  A    between atoms: C_4  and  N_5 
REMARK    4  A    between atoms: C_8  and  O_11 
REMARK    5  A    between atoms: O_11  and  C_12 
REMARK       I    between atoms: C_12  and  N_14 
REMARK    6  A    between atoms: N_14  and  C_15 
REMARK    7  A    between atoms: C_20  and  C_21 
REMARK    8  A    between atoms: C_27  and  C_29 
REMARK    9  A    between atoms: C_32  and  C_35 
REMARK   10  A    between atoms: C_35  and  N_36 
REMARK   11  A    between atoms: C_39  and  C_42 
REMARK       I    between atoms: C_42  and  N_44 
ROOT
HETATM    1  C   UNK N   1      35.665  14.128  11.222  0.00  0.00     0.292 C 
ENDROOT
BRANCH   1   2
HETATM    2  C   UNK N   1      36.056  14.597  12.634  0.00  0.00     0.156 C 
BRANCH   2   3
HETATM    3  N   UNK N   1      35.776  13.577  13.630  0.00  0.00    -0.351 N 
HETATM    4  C   UNK N   1      34.846  12.533  13.270  0.00  0.00     0.153 C 
HETATM    5  C   UNK N   1      36.306  13.686  14.899  0.00  0.00     0.253 C 
HETATM    6  O   UNK N   1      37.022  14.642  15.161  0.00  0.00    -0.267 OA
BRANCH   5   7
HETATM    7  C   UNK N   1      36.015  12.710  16.007  0.00  0.00     0.032 A 
HETATM    8  C   UNK N   1      36.483  11.388  15.896  0.00  0.00     0.017 A 
HETATM    9  C   UNK N   1      36.285  10.470  16.936  0.00  0.00     0.010 A 
HETATM   10  C   UNK N   1      35.598  10.857  18.096  0.00  0.00    -0.030 A 
HETATM   11  C   UNK N   1      35.107  12.157  18.198  0.00  0.00     0.010 A 
HETATM   12  C   UNK N   1      35.319  13.074  17.168  0.00  0.00     0.017 A 
BRANCH  10  13
HETATM   13  C   UNK N   1      35.385   9.924  19.255  0.00  0.00     0.311 C 
BRANCH  13  14
HETATM   14  N   UNK N   1      34.284   8.989  19.056  0.00  0.00     0.092 N 
HETATM   15  C   UNK N   1      33.298   9.216  20.115  0.00  0.00     0.273 C 
HETATM   16  C   UNK N   1      32.139   8.235  19.965  0.00  0.00     0.044 C 
HETATM   17  C   UNK N   1      32.677   6.808  20.088  0.00  0.00     0.081 C 
HETATM   18  C   UNK N   1      33.774   6.585  19.049  0.00  0.00     0.044 C 
HETATM   19  C   UNK N   1      34.854   7.651  19.216  0.00  0.00     0.273 C 
BRANCH  17  20
HETATM   20  C   UNK N   1      31.603   5.764  19.952  0.00  0.00     0.219 C 
HETATM   21  O   UNK N   1      30.822   5.545  20.866  0.00  0.00    -0.273 OA
HETATM   22  N   UNK N   1      31.511   5.047  18.815  0.00  0.00    -0.370 N 
HETATM   23  H   UNK N   1      31.922   5.381  17.985  0.00  0.00     0.159 HD
HETATM   24  H   UNK N   1      31.031   4.187  18.814  0.00  0.00     0.159 HD
ENDBRANCH  17  20
ENDBRANCH  13  14
ENDBRANCH  10  13
ENDBRANCH   5   7
ENDBRANCH   2   3
ENDBRANCH   1   2
BRANCH   1  25
HETATM   25  N   UNK N   1      35.898  15.085  10.128  0.00  0.00     0.090 N 
HETATM   26  C   UNK N   1      36.271  14.403   8.885  0.00  0.00     0.275 C 
HETATM   27  C   UNK N   1      35.058  13.786   8.202  0.00  0.00     0.063 C 
HETATM   28  C   UNK N   1      34.010  14.859   7.937  0.00  0.00     0.137 C 
HETATM   29  C   UNK N   1      33.630  15.561   9.227  0.00  0.00     0.063 C 
HETATM   30  C   UNK N   1      34.872  16.119   9.925  0.00  0.00     0.275 C 
BRANCH  28  31
HETATM   31  O   UNK N   1      32.906  14.259   7.389  0.00  0.00    -0.298 OA
BRANCH  31  32
HETATM   32  C   UNK N   1      32.218  14.867   6.406  0.00  0.00     0.365 C 
HETATM   33  O   UNK N   1      32.813  15.370   5.463  0.00  0.00    -0.238 OA
HETATM   34  N   UNK N   1      30.868  14.814   6.429  0.00  0.00    -0.302 N 
HETATM   35  H   UNK N   1      30.450  14.323   7.173  0.00  0.00     0.171 HD
BRANCH  34  36
HETATM   36  C   UNK N   1      30.001  15.404   5.473  0.00  0.00     0.048 A 
HETATM   37  C   UNK N   1      29.855  14.824   4.202  0.00  0.00     0.030 A 
HETATM   38  C   UNK N   1      29.037  15.416   3.242  0.00  0.00     0.002 A 
HETATM   39  C   UNK N   1      28.359  16.597   3.537  0.00  0.00     0.001 A 
HETATM   40  C   UNK N   1      28.489  17.181   4.797  0.00  0.00     0.014 A 
HETATM   41  C   UNK N   1      29.303  16.602   5.787  0.00  0.00     0.001 A 
BRANCH  41  42
HETATM   42  C   UNK N   1      29.361  17.245   7.142  0.00  0.00    -0.024 A 
HETATM   43  C   UNK N   1      30.556  17.781   7.658  0.00  0.00     0.012 A 
HETATM   44  C   UNK N   1      30.606  18.337   8.936  0.00  0.00     0.001 A 
HETATM   45  C   UNK N   1      29.456  18.369   9.726  0.00  0.00     0.000 A 
HETATM   46  C   UNK N   1      28.260  17.843   9.234  0.00  0.00     0.001 A 
HETATM   47  C   UNK N   1      28.213  17.279   7.954  0.00  0.00     0.012 A 
ENDBRANCH  41  42
ENDBRANCH  34  36
ENDBRANCH  31  32
ENDBRANCH  28  31
ENDBRANCH   1  25
TORSDOF 11
ENDMDL
MODEL 9
REMARK VINA RESULT:      -8.0      2.519      3.915
REMARK  11 active torsions:
REMARK  status: ('A' for Active; 'I' for Inactive)
REMARK    1  A    between atoms: N_2  and  C_3 
REMARK       I    between atoms: N_2  and  C_27 
REMARK    2  A    between atoms: C_3  and  C_4 
REMARK    3  A    between atoms: C_4  and  N_5 
REMARK    4  A    between atoms: C_8  and  O_11 
REMARK    5  A    between atoms: O_11  and  C_12 
REMARK       I    between atoms: C_12  and  N_14 
REMARK    6  A    between atoms: N_14  and  C_15 
REMARK    7  A    between atoms: C_20  and  C_21 
REMARK    8  A    between atoms: C_27  and  C_29 
REMARK    9  A    between atoms: C_32  and  C_35 
REMARK   10  A    between atoms: C_35  and  N_36 
REMARK   11  A    between atoms: C_39  and  C_42 
REMARK       I    between atoms: C_42  and  N_44 
ROOT
HETATM    1  C   UNK N   1      35.146  16.035  10.809  0.00  0.00     0.292 C 
ENDROOT
BRANCH   1   2
HETATM    2  C   UNK N   1      34.916  16.673   9.428  0.00  0.00     0.156 C 
BRANCH   2   3
HETATM    3  N   UNK N   1      33.516  16.622   9.044  0.00  0.00    -0.351 N 
HETATM    4  C   UNK N   1      32.799  15.396   9.305  0.00  0.00     0.153 C 
HETATM    5  C   UNK N   1      32.948  17.678   8.362  0.00  0.00     0.253 C 
HETATM    6  O   UNK N   1      33.637  18.654   8.101  0.00  0.00    -0.267 OA
BRANCH   5   7
HETATM    7  C   UNK N   1      31.525  17.679   7.871  0.00  0.00     0.032 A 
HETATM    8  C   UNK N   1      30.522  18.244   8.680  0.00  0.00     0.017 A 
HETATM    9  C   UNK N   1      29.198  18.319   8.229  0.00  0.00     0.010 A 
HETATM   10  C   UNK N   1      28.854  17.813   6.967  0.00  0.00    -0.030 A 
HETATM   11  C   UNK N   1      29.838  17.227   6.174  0.00  0.00     0.010 A 
HETATM   12  C   UNK N   1      31.159  17.166   6.619  0.00  0.00     0.017 A 
BRANCH  10  13
HETATM   13  C   UNK N   1      27.457  17.896   6.419  0.00  0.00     0.311 C 
BRANCH  13  14
HETATM   14  N   UNK N   1      27.210  16.984   5.309  0.00  0.00     0.092 N 
HETATM   15  C   UNK N   1      26.561  17.738   4.235  0.00  0.00     0.273 C 
HETATM   16  C   UNK N   1      26.254  16.813   3.061  0.00  0.00     0.044 C 
HETATM   17  C   UNK N   1      25.306  15.709   3.533  0.00  0.00     0.081 C 
HETATM   18  C   UNK N   1      25.931  14.971   4.715  0.00  0.00     0.044 C 
HETATM   19  C   UNK N   1      26.279  15.973   5.813  0.00  0.00     0.273 C 
BRANCH  17  20
HETATM   20  C   UNK N   1      24.945  14.741   2.440  0.00  0.00     0.219 C 
HETATM   21  O   UNK N   1      25.806  14.085   1.874  0.00  0.00    -0.273 OA
HETATM   22  N   UNK N   1      23.657  14.609   2.065  0.00  0.00    -0.370 N 
HETATM   23  H   UNK N   1      22.935  14.897   2.670  0.00  0.00     0.159 HD
HETATM   24  H   UNK N   1      23.438  14.223   1.187  0.00  0.00     0.159 HD
ENDBRANCH  17  20
ENDBRANCH  13  14
ENDBRANCH  10  13
ENDBRANCH   5   7
ENDBRANCH   2   3
ENDBRANCH   1   2
BRANCH   1  25
HETATM   25  N   UNK N   1      36.306  15.137  10.930  0.00  0.00     0.090 N 
HETATM   26  C   UNK N   1      36.271  14.375  12.181  0.00  0.00     0.275 C 
HETATM   27  C   UNK N   1      35.278  13.222  12.104  0.00  0.00     0.063 C 
HETATM   28  C   UNK N   1      35.624  12.318  10.929  0.00  0.00     0.137 C 
HETATM   29  C   UNK N   1      35.660  13.113   9.637  0.00  0.00     0.063 C 
HETATM   30  C   UNK N   1      36.617  14.299   9.761  0.00  0.00     0.275 C 
BRANCH  28  31
HETATM   31  O   UNK N   1      34.673  11.334  10.845  0.00  0.00    -0.298 OA
BRANCH  31  32
HETATM   32  C   UNK N   1      34.554  10.416  11.820  0.00  0.00     0.365 C 
HETATM   33  O   UNK N   1      33.445  10.062  12.196  0.00  0.00    -0.238 OA
HETATM   34  N   UNK N   1      35.672   9.821  12.292  0.00  0.00    -0.302 N 
HETATM   35  H   UNK N   1      36.528  10.090  11.890  0.00  0.00     0.171 HD
BRANCH  34  36
HETATM   36  C   UNK N   1      35.716   8.840  13.316  0.00  0.00     0.048 A 
HETATM   37  C   UNK N   1      35.755   7.476  12.984  0.00  0.00     0.030 A 
HETATM   38  C   UNK N   1      35.760   6.502  13.981  0.00  0.00     0.002 A 
HETATM   39  C   UNK N   1      35.719   6.879  15.323  0.00  0.00     0.001 A 
HETATM   40  C   UNK N   1      35.687   8.231  15.668  0.00  0.00     0.014 A 
HETATM   41  C   UNK N   1      35.687   9.234  14.682  0.00  0.00     0.001 A 
BRANCH  41  42
HETATM   42  C   UNK N   1      35.707  10.671  15.114  0.00  0.00    -0.024 A 
HETATM   43  C   UNK N   1      34.537  11.339  15.521  0.00  0.00     0.012 A 
HETATM   44  C   UNK N   1      34.562  12.687  15.879  0.00  0.00     0.001 A 
HETATM   45  C   UNK N   1      35.763  13.395  15.838  0.00  0.00     0.000 A 
HETATM   46  C   UNK N   1      36.937  12.752  15.437  0.00  0.00     0.001 A 
HETATM   47  C   UNK N   1      36.909  11.401  15.072  0.00  0.00     0.012 A 
ENDBRANCH  41  42
ENDBRANCH  34  36
ENDBRANCH  31  32
ENDBRANCH  28  31
ENDBRANCH   1  25
TORSDOF 11
ENDMDL
