MODEL 1
REMARK VINA RESULT:      -7.2      0.000      0.000
REMARK  6 active torsions:
REMARK  status: ('A' for Active; 'I' for Inactive)
REMARK    1  A    between atoms: C_3  and  C_23 
REMARK    2  A    between atoms: N_11  and  C_12 
REMARK    3  A    between atoms: C_12  and  C_13 
REMARK    4  A    between atoms: C_16  and  S_19 
REMARK    5  A    between atoms: C_23  and  C_24 
REMARK    6  A    between atoms: C_24  and  O_26 
ROOT
HETATM    1  C   UNK N   1      34.905  11.408  11.658  0.00  0.00     0.069 C 
HETATM    2  C   UNK N   1      35.348  12.253  12.807  0.00  0.00     0.017 A 
HETATM    3  C   UNK N   1      34.955  12.079  14.136  0.00  0.00    -0.012 A 
HETATM    4  C   UNK N   1      35.607  13.071  14.853  0.00  0.00     0.017 A 
HETATM    5  C   UNK N   1      35.621  13.396  16.207  0.00  0.00     0.017 A 
HETATM    6  C   UNK N   1      36.413  14.482  16.614  0.00  0.00     0.018 A 
HETATM    7  C   UNK N   1      37.162  15.197  15.657  0.00  0.00     0.090 A 
HETATM    8  N   UNK N   1      37.119  14.840  14.339  0.00  0.00    -0.351 N 
ATOM      9  HN  UNK N   1      37.665  15.357  13.649  1.00  0.00     0.166 HD
HETATM   10  C   UNK N   1      36.346  13.792  13.956  0.00  0.00     0.118 A 
HETATM   11  N   UNK N   1      36.195  13.305  12.698  0.00  0.00    -0.332 N 
ENDROOT
BRANCH  11  12
HETATM   12  C   UNK N   1      36.806  13.767  11.438  0.00  0.00     0.169 C 
BRANCH  12  13
HETATM   13  C   UNK N   1      35.920  14.707  10.690  0.00  0.00    -0.040 A 
HETATM   14  C   UNK N   1      35.707  15.997  11.183  0.00  0.00     0.010 A 
HETATM   15  C   UNK N   1      35.017  16.938  10.418  0.00  0.00     0.024 A 
HETATM   16  C   UNK N   1      34.530  16.609   9.143  0.00  0.00     0.058 A 
HETATM   17  C   UNK N   1      34.754  15.284   8.653  0.00  0.00     0.024 A 
HETATM   18  C   UNK N   1      35.431  14.346   9.433  0.00  0.00     0.010 A 
BRANCH  16  19
HETATM   19  S   UNK N   1      33.822  17.984   8.132  0.00  0.00     0.171 S 
HETATM   20  O   UNK N   1      34.600  18.082   6.813  0.00  0.00    -0.223 OA
HETATM   21  O   UNK N   1      35.163  18.516   8.666  0.00  0.00    -0.223 OA
HETATM   22  C   UNK N   1      33.646  16.400   7.240  0.00  0.00     0.167 C 
ENDBRANCH  16  19
ENDBRANCH  12  13
ENDBRANCH  11  12
BRANCH   3  23
HETATM   23  C   UNK N   1      34.019  11.002  14.623  0.00  0.00     0.151 C 
BRANCH  23  24
HETATM   24  C   UNK N   1      34.657   9.938  15.459  0.00  0.00     0.143 C 
HETATM   25  O   UNK N   1      35.312   9.058  14.926  0.00  0.00    -0.650 OA
BRANCH  24  26
HETATM   26  O   UNK N   1      34.481   9.925  16.795  0.00  0.00    -0.776 OA
HETATM   27  H   UNK N   1      34.162   9.330  17.443  0.00  0.00     0.167 HD
ENDBRANCH  24  26
ENDBRANCH  23  24
ENDBRANCH   3  23
TORSDOF 6
ENDMDL
MODEL 2
REMARK VINA RESULT:      -7.1      9.489     12.890
REMARK  6 active torsions:
REMARK  status: ('A' for Active; 'I' for Inactive)
REMARK    1  A    between atoms: C_3  and  C_23 
REMARK    2  A    between atoms: N_11  and  C_12 
REMARK    3  A    between atoms: C_12  and  C_13 
REMARK    4  A    between atoms: C_16  and  S_19 
REMARK    5  A    between atoms: C_23  and  C_24 
REMARK    6  A    between atoms: C_24  and  O_26 
ROOT
HETATM    1  C   UNK N   1      27.042  20.871   6.740  0.00  0.00     0.069 C 
HETATM    2  C   UNK N   1      27.777  19.658   6.273  0.00  0.00     0.017 A 
HETATM    3  C   UNK N   1      28.483  18.776   7.094  0.00  0.00    -0.012 A 
HETATM    4  C   UNK N   1      28.994  17.803   6.247  0.00  0.00     0.017 A 
HETATM    5  C   UNK N   1      29.765  16.666   6.480  0.00  0.00     0.017 A 
HETATM    6  C   UNK N   1      30.112  15.871   5.376  0.00  0.00     0.018 A 
HETATM    7  C   UNK N   1      29.675  16.238   4.086  0.00  0.00     0.090 A 
HETATM    8  N   UNK N   1      28.919  17.361   3.906  0.00  0.00    -0.351 N 
ATOM      9  HN  UNK N   1      28.601  17.622   2.973  1.00  0.00     0.166 HD
HETATM   10  C   UNK N   1      28.593  18.126   4.980  0.00  0.00     0.118 A 
HETATM   11  N   UNK N   1      27.850  19.261   4.979  0.00  0.00    -0.332 N 
ENDROOT
BRANCH  11  12
HETATM   12  C   UNK N   1      27.213  19.960   3.847  0.00  0.00     0.169 C 
BRANCH  12  13
HETATM   13  C   UNK N   1      25.759  19.647   3.734  0.00  0.00    -0.040 A 
HETATM   14  C   UNK N   1      25.214  18.605   4.489  0.00  0.00     0.010 A 
HETATM   15  C   UNK N   1      23.833  18.405   4.519  0.00  0.00     0.024 A 
HETATM   16  C   UNK N   1      22.970  19.244   3.798  0.00  0.00     0.058 A 
HETATM   17  C   UNK N   1      23.543  20.304   3.028  0.00  0.00     0.024 A 
HETATM   18  C   UNK N   1      24.925  20.487   2.992  0.00  0.00     0.010 A 
BRANCH  16  19
HETATM   19  S   UNK N   1      21.156  19.025   4.075  0.00  0.00     0.171 S 
HETATM   20  O   UNK N   1      20.478  18.745   2.727  0.00  0.00    -0.223 OA
HETATM   21  O   UNK N   1      21.307  20.409   3.422  0.00  0.00    -0.223 OA
HETATM   22  C   UNK N   1      21.871  17.495   3.378  0.00  0.00     0.167 C 
ENDBRANCH  16  19
ENDBRANCH  12  13
ENDBRANCH  11  12
BRANCH   3  23
HETATM   23  C   UNK N   1      28.613  18.910   8.590  0.00  0.00     0.151 C 
BRANCH  23  24
HETATM   24  C   UNK N   1      28.509  17.626   9.352  0.00  0.00     0.143 C 
HETATM   25  O   UNK N   1      27.478  16.976   9.307  0.00  0.00    -0.650 OA
BRANCH  24  26
HETATM   26  O   UNK N   1      29.534  17.204  10.117  0.00  0.00    -0.776 OA
HETATM   27  H   UNK N   1      29.758  16.440  10.610  0.00  0.00     0.167 HD
ENDBRANCH  24  26
ENDBRANCH  23  24
ENDBRANCH   3  23
TORSDOF 6
ENDMDL
MODEL 3
REMARK VINA RESULT:      -6.8     10.477     14.988
REMARK  6 active torsions:
REMARK  status: ('A' for Active; 'I' for Inactive)
REMARK    1  A    between atoms: C_3  and  C_23 
REMARK    2  A    between atoms: N_11  and  C_12 
REMARK    3  A    between atoms: C_12  and  C_13 
REMARK    4  A    between atoms: C_16  and  S_19 
REMARK    5  A    between atoms: C_23  and  C_24 
REMARK    6  A    between atoms: C_24  and  O_26 
ROOT
HETATM    1  C   UNK N   1      25.145  20.520   2.436  0.00  0.00     0.069 C 
HETATM    2  C   UNK N   1      24.338  19.617   3.308  0.00  0.00     0.017 A 
HETATM    3  C   UNK N   1      22.959  19.708   3.509  0.00  0.00    -0.012 A 
HETATM    4  C   UNK N   1      22.636  18.675   4.378  0.00  0.00     0.017 A 
HETATM    5  C   UNK N   1      21.429  18.255   4.930  0.00  0.00     0.017 A 
HETATM    6  C   UNK N   1      21.451  17.142   5.787  0.00  0.00     0.018 A 
HETATM    7  C   UNK N   1      22.673  16.492   6.056  0.00  0.00     0.090 A 
HETATM    8  N   UNK N   1      23.833  16.939   5.490  0.00  0.00    -0.351 N 
ATOM      9  HN  UNK N   1      24.715  16.465   5.683  1.00  0.00     0.166 HD
HETATM   10  C   UNK N   1      23.801  18.019   4.667  0.00  0.00     0.118 A 
HETATM   11  N   UNK N   1      24.853  18.586   4.022  0.00  0.00    -0.332 N 
ENDROOT
BRANCH  11  12
HETATM   12  C   UNK N   1      26.276  18.202   4.039  0.00  0.00     0.169 C 
BRANCH  12  13
HETATM   13  C   UNK N   1      26.867  18.277   5.407  0.00  0.00    -0.040 A 
HETATM   14  C   UNK N   1      27.259  17.104   6.058  0.00  0.00     0.010 A 
HETATM   15  C   UNK N   1      27.960  17.168   7.263  0.00  0.00     0.024 A 
HETATM   16  C   UNK N   1      28.286  18.406   7.840  0.00  0.00     0.058 A 
HETATM   17  C   UNK N   1      27.875  19.597   7.163  0.00  0.00     0.024 A 
HETATM   18  C   UNK N   1      27.162  19.523   5.967  0.00  0.00     0.010 A 
BRANCH  16  19
HETATM   19  S   UNK N   1      29.394  18.380   9.318  0.00  0.00     0.171 S 
HETATM   20  O   UNK N   1      29.840  16.935   9.578  0.00  0.00    -0.223 OA
HETATM   21  O   UNK N   1      28.059  17.782   9.794  0.00  0.00    -0.223 OA
HETATM   22  C   UNK N   1      30.300  17.784   7.849  0.00  0.00     0.167 C 
ENDBRANCH  16  19
ENDBRANCH  12  13
ENDBRANCH  11  12
BRANCH   3  23
HETATM   23  C   UNK N   1      22.062  20.738   2.870  0.00  0.00     0.151 C 
BRANCH  23  24
HETATM   24  C   UNK N   1      21.305  20.261   1.669  0.00  0.00     0.143 C 
HETATM   25  O   UNK N   1      20.431  19.421   1.798  0.00  0.00    -0.650 OA
BRANCH  24  26
HETATM   26  O   UNK N   1      21.611  20.728   0.443  0.00  0.00    -0.776 OA
HETATM   27  H   UNK N   1      22.178  20.491  -0.263  0.00  0.00     0.167 HD
ENDBRANCH  24  26
ENDBRANCH  23  24
ENDBRANCH   3  23
TORSDOF 6
ENDMDL
MODEL 4
REMARK VINA RESULT:      -6.7      7.353     11.678
REMARK  6 active torsions:
REMARK  status: ('A' for Active; 'I' for Inactive)
REMARK    1  A    between atoms: C_3  and  C_23 
REMARK    2  A    between atoms: N_11  and  C_12 
REMARK    3  A    between atoms: C_12  and  C_13 
REMARK    4  A    between atoms: C_16  and  S_19 
REMARK    5  A    between atoms: C_23  and  C_24 
REMARK    6  A    between atoms: C_24  and  O_26 
ROOT
HETATM    1  C   UNK N   1      26.716  14.935   6.009  0.00  0.00     0.069 C 
HETATM    2  C   UNK N   1      26.735  16.370   5.597  0.00  0.00     0.017 A 
HETATM    3  C   UNK N   1      26.113  16.893   4.462  0.00  0.00    -0.012 A 
HETATM    4  C   UNK N   1      26.382  18.254   4.477  0.00  0.00     0.017 A 
HETATM    5  C   UNK N   1      26.023  19.292   3.622  0.00  0.00     0.017 A 
HETATM    6  C   UNK N   1      26.466  20.587   3.940  0.00  0.00     0.018 A 
HETATM    7  C   UNK N   1      27.244  20.794   5.097  0.00  0.00     0.090 A 
HETATM    8  N   UNK N   1      27.570  19.745   5.908  0.00  0.00    -0.351 N 
ATOM      9  HN  UNK N   1      28.131  19.898   6.747  1.00  0.00     0.166 HD
HETATM   10  C   UNK N   1      27.142  18.496   5.589  0.00  0.00     0.118 A 
HETATM   11  N   UNK N   1      27.369  17.353   6.283  0.00  0.00    -0.332 N 
ENDROOT
BRANCH  11  12
HETATM   12  C   UNK N   1      28.125  17.153   7.534  0.00  0.00     0.169 C 
BRANCH  12  13
HETATM   13  C   UNK N   1      29.597  17.295   7.335  0.00  0.00    -0.040 A 
HETATM   14  C   UNK N   1      30.396  17.753   8.385  0.00  0.00     0.010 A 
HETATM   15  C   UNK N   1      31.787  17.737   8.270  0.00  0.00     0.024 A 
HETATM   16  C   UNK N   1      32.406  17.257   7.105  0.00  0.00     0.058 A 
HETATM   17  C   UNK N   1      31.574  16.793   6.038  0.00  0.00     0.024 A 
HETATM   18  C   UNK N   1      30.184  16.828   6.157  0.00  0.00     0.010 A 
BRANCH  16  19
HETATM   19  S   UNK N   1      34.245  17.081   7.140  0.00  0.00     0.171 S 
HETATM   20  O   UNK N   1      34.863  18.421   7.562  0.00  0.00    -0.223 OA
HETATM   21  O   UNK N   1      33.935  17.912   5.884  0.00  0.00    -0.223 OA
HETATM   22  C   UNK N   1      33.626  17.501   8.807  0.00  0.00     0.167 C 
ENDBRANCH  16  19
ENDBRANCH  12  13
ENDBRANCH  11  12
BRANCH   3  23
HETATM   23  C   UNK N   1      25.315  16.085   3.468  0.00  0.00     0.151 C 
BRANCH  23  24
HETATM   24  C   UNK N   1      26.091  15.587   2.289  0.00  0.00     0.143 C 
HETATM   25  O   UNK N   1      25.504  15.089   1.344  0.00  0.00    -0.650 OA
BRANCH  24  26
HETATM   26  O   UNK N   1      27.436  15.651   2.284  0.00  0.00    -0.776 OA
HETATM   27  H   UNK N   1      28.146  15.225   1.846  0.00  0.00     0.167 HD
ENDBRANCH  24  26
ENDBRANCH  23  24
ENDBRANCH   3  23
TORSDOF 6
ENDMDL
MODEL 5
REMARK VINA RESULT:      -6.7      4.784      9.072
REMARK  6 active torsions:
REMARK  status: ('A' for Active; 'I' for Inactive)
REMARK    1  A    between atoms: C_3  and  C_23 
REMARK    2  A    between atoms: N_11  and  C_12 
REMARK    3  A    between atoms: C_12  and  C_13 
REMARK    4  A    between atoms: C_16  and  S_19 
REMARK    5  A    between atoms: C_23  and  C_24 
REMARK    6  A    between atoms: C_24  and  O_26 
ROOT
HETATM    1  C   UNK N   1      32.399  16.097   5.127  0.00  0.00     0.069 C 
HETATM    2  C   UNK N   1      31.501  16.649   6.185  0.00  0.00     0.017 A 
HETATM    3  C   UNK N   1      30.108  16.566   6.184  0.00  0.00    -0.012 A 
HETATM    4  C   UNK N   1      29.693  17.199   7.348  0.00  0.00     0.017 A 
HETATM    5  C   UNK N   1      28.434  17.422   7.898  0.00  0.00     0.017 A 
HETATM    6  C   UNK N   1      28.365  18.104   9.124  0.00  0.00     0.018 A 
HETATM    7  C   UNK N   1      29.552  18.532   9.754  0.00  0.00     0.090 A 
HETATM    8  N   UNK N   1      30.766  18.288   9.177  0.00  0.00    -0.351 N 
ATOM      9  HN  UNK N   1      31.624  18.595   9.636  1.00  0.00     0.166 HD
HETATM   10  C   UNK N   1      30.821  17.632   7.989  0.00  0.00     0.118 A 
HETATM   11  N   UNK N   1      31.936  17.306   7.287  0.00  0.00    -0.332 N 
ENDROOT
BRANCH  11  12
HETATM   12  C   UNK N   1      33.352  17.569   7.608  0.00  0.00     0.169 C 
BRANCH  12  13
HETATM   13  C   UNK N   1      33.845  16.718   8.730  0.00  0.00    -0.040 A 
HETATM   14  C   UNK N   1      33.432  15.387   8.823  0.00  0.00     0.010 A 
HETATM   15  C   UNK N   1      34.008  14.536   9.767  0.00  0.00     0.024 A 
HETATM   16  C   UNK N   1      35.012  14.998  10.634  0.00  0.00     0.058 A 
HETATM   17  C   UNK N   1      35.421  16.364  10.528  0.00  0.00     0.024 A 
HETATM   18  C   UNK N   1      34.828  17.211   9.591  0.00  0.00     0.010 A 
BRANCH  16  19
HETATM   19  S   UNK N   1      35.852  13.740  11.695  0.00  0.00     0.171 S 
HETATM   20  O   UNK N   1      35.197  12.373  11.458  0.00  0.00    -0.223 OA
HETATM   21  O   UNK N   1      34.487  13.992  12.359  0.00  0.00    -0.223 OA
HETATM   22  C   UNK N   1      36.053  13.304   9.933  0.00  0.00     0.167 C 
ENDBRANCH  16  19
ENDBRANCH  12  13
ENDBRANCH  11  12
BRANCH   3  23
HETATM   23  C   UNK N   1      29.285  15.901   5.111  0.00  0.00     0.151 C 
BRANCH  23  24
HETATM   24  C   UNK N   1      28.868  16.796   3.986  0.00  0.00     0.143 C 
HETATM   25  O   UNK N   1      27.759  17.305   3.995  0.00  0.00    -0.650 OA
BRANCH  24  26
HETATM   26  O   UNK N   1      29.696  17.012   2.946  0.00  0.00    -0.776 OA
HETATM   27  H   UNK N   1      30.603  17.202   2.814  0.00  0.00     0.167 HD
ENDBRANCH  24  26
ENDBRANCH  23  24
ENDBRANCH   3  23
TORSDOF 6
ENDMDL
MODEL 6
REMARK VINA RESULT:      -6.5      1.386      3.188
REMARK  6 active torsions:
REMARK  status: ('A' for Active; 'I' for Inactive)
REMARK    1  A    between atoms: C_3  and  C_23 
REMARK    2  A    between atoms: N_11  and  C_12 
REMARK    3  A    between atoms: C_12  and  C_13 
REMARK    4  A    between atoms: C_16  and  S_19 
REMARK    5  A    between atoms: C_23  and  C_24 
REMARK    6  A    between atoms: C_24  and  O_26 
ROOT
HETATM    1  C   UNK N   1      36.520  14.429  14.220  0.00  0.00     0.069 C 
HETATM    2  C   UNK N   1      35.904  13.279  13.493  0.00  0.00     0.017 A 
HETATM    3  C   UNK N   1      34.970  12.392  14.029  0.00  0.00    -0.012 A 
HETATM    4  C   UNK N   1      34.672  11.498  13.010  0.00  0.00     0.017 A 
HETATM    5  C   UNK N   1      33.809  10.407  12.940  0.00  0.00     0.017 A 
HETATM    6  C   UNK N   1      33.738   9.704  11.727  0.00  0.00     0.018 A 
HETATM    7  C   UNK N   1      34.525  10.118  10.632  0.00  0.00     0.090 A 
HETATM    8  N   UNK N   1      35.355  11.196  10.747  0.00  0.00    -0.351 N 
ATOM      9  HN  UNK N   1      35.921  11.496   9.953  1.00  0.00     0.166 HD
HETATM   10  C   UNK N   1      35.421  11.866  11.927  0.00  0.00     0.118 A 
HETATM   11  N   UNK N   1      36.184  12.953  12.207  0.00  0.00    -0.332 N 
ENDROOT
BRANCH  11  12
HETATM   12  C   UNK N   1      37.126  13.683  11.338  0.00  0.00     0.169 C 
BRANCH  12  13
HETATM   13  C   UNK N   1      36.437  14.682  10.470  0.00  0.00    -0.040 A 
HETATM   14  C   UNK N   1      36.096  14.342   9.159  0.00  0.00     0.010 A 
HETATM   15  C   UNK N   1      35.311  15.202   8.390  0.00  0.00     0.024 A 
HETATM   16  C   UNK N   1      34.847  16.417   8.919  0.00  0.00     0.058 A 
HETATM   17  C   UNK N   1      35.207  16.752  10.262  0.00  0.00     0.024 A 
HETATM   18  C   UNK N   1      36.006  15.893  11.017  0.00  0.00     0.010 A 
BRANCH  16  19
HETATM   19  S   UNK N   1      33.645  17.376   7.895  0.00  0.00     0.171 S 
HETATM   20  O   UNK N   1      34.376  17.943   6.671  0.00  0.00    -0.223 OA
HETATM   21  O   UNK N   1      34.526  18.429   8.589  0.00  0.00    -0.223 OA
HETATM   22  C   UNK N   1      34.313  15.979   6.927  0.00  0.00     0.167 C 
ENDBRANCH  16  19
ENDBRANCH  12  13
ENDBRANCH  11  12
BRANCH   3  23
HETATM   23  C   UNK N   1      34.429  12.457  15.435  0.00  0.00     0.151 C 
BRANCH  23  24
HETATM   24  C   UNK N   1      35.421  12.137  16.511  0.00  0.00     0.143 C 
HETATM   25  O   UNK N   1      36.144  11.162  16.398  0.00  0.00    -0.650 OA
BRANCH  24  26
HETATM   26  O   UNK N   1      35.491  12.900  17.618  0.00  0.00    -0.776 OA
HETATM   27  H   UNK N   1      35.965  13.654  17.908  0.00  0.00     0.167 HD
ENDBRANCH  24  26
ENDBRANCH  23  24
ENDBRANCH   3  23
TORSDOF 6
ENDMDL
MODEL 7
REMARK VINA RESULT:      -6.5      1.699      2.080
REMARK  6 active torsions:
REMARK  status: ('A' for Active; 'I' for Inactive)
REMARK    1  A    between atoms: C_3  and  C_23 
REMARK    2  A    between atoms: N_11  and  C_12 
REMARK    3  A    between atoms: C_12  and  C_13 
REMARK    4  A    between atoms: C_16  and  S_19 
REMARK    5  A    between atoms: C_23  and  C_24 
REMARK    6  A    between atoms: C_24  and  O_26 
ROOT
HETATM    1  C   UNK N   1      36.803  11.217   9.756  0.00  0.00     0.069 C 
HETATM    2  C   UNK N   1      36.653  11.797  11.123  0.00  0.00     0.017 A 
HETATM    3  C   UNK N   1      36.193  11.108  12.246  0.00  0.00    -0.012 A 
HETATM    4  C   UNK N   1      36.223  12.024  13.288  0.00  0.00     0.017 A 
HETATM    5  C   UNK N   1      35.895  11.922  14.638  0.00  0.00     0.017 A 
HETATM    6  C   UNK N   1      36.052  13.065  15.439  0.00  0.00     0.018 A 
HETATM    7  C   UNK N   1      36.533  14.260  14.865  0.00  0.00     0.090 A 
HETATM    8  N   UNK N   1      36.844  14.312  13.536  0.00  0.00    -0.351 N 
ATOM      9  HN  UNK N   1      37.194  15.176  13.124  1.00  0.00     0.166 HD
HETATM   10  C   UNK N   1      36.683  13.203  12.769  0.00  0.00     0.118 A 
HETATM   11  N   UNK N   1      36.948  13.081  11.444  0.00  0.00    -0.332 N 
ENDROOT
BRANCH  11  12
HETATM   12  C   UNK N   1      37.463  14.088  10.497  0.00  0.00     0.169 C 
BRANCH  12  13
HETATM   13  C   UNK N   1      36.367  14.860   9.840  0.00  0.00    -0.040 A 
HETATM   14  C   UNK N   1      35.859  16.005  10.460  0.00  0.00     0.010 A 
HETATM   15  C   UNK N   1      34.953  16.826   9.786  0.00  0.00     0.024 A 
HETATM   16  C   UNK N   1      34.542  16.521   8.479  0.00  0.00     0.058 A 
HETATM   17  C   UNK N   1      35.069  15.345   7.860  0.00  0.00     0.024 A 
HETATM   18  C   UNK N   1      35.962  14.522   8.547  0.00  0.00     0.010 A 
BRANCH  16  19
HETATM   19  S   UNK N   1      33.511  17.782   7.606  0.00  0.00     0.171 S 
HETATM   20  O   UNK N   1      33.989  17.893   6.152  0.00  0.00    -0.223 OA
HETATM   21  O   UNK N   1      34.876  18.455   7.836  0.00  0.00    -0.223 OA
HETATM   22  C   UNK N   1      33.311  16.152   6.808  0.00  0.00     0.167 C 
ENDBRANCH  16  19
ENDBRANCH  12  13
ENDBRANCH  11  12
BRANCH   3  23
HETATM   23  C   UNK N   1      35.775   9.659  12.256  0.00  0.00     0.151 C 
BRANCH  23  24
HETATM   24  C   UNK N   1      34.354   9.407  11.860  0.00  0.00     0.143 C 
HETATM   25  O   UNK N   1      34.035   8.320  11.406  0.00  0.00    -0.650 OA
BRANCH  24  26
HETATM   26  O   UNK N   1      33.435  10.385  11.967  0.00  0.00    -0.776 OA
HETATM   27  H   UNK N   1      33.212  11.175  11.516  0.00  0.00     0.167 HD
ENDBRANCH  24  26
ENDBRANCH  23  24
ENDBRANCH   3  23
TORSDOF 6
ENDMDL
MODEL 8
REMARK VINA RESULT:      -6.4      4.037      5.651
REMARK  6 active torsions:
REMARK  status: ('A' for Active; 'I' for Inactive)
REMARK    1  A    between atoms: C_3  and  C_23 
REMARK    2  A    between atoms: N_11  and  C_12 
REMARK    3  A    between atoms: C_12  and  C_13 
REMARK    4  A    between atoms: C_16  and  S_19 
REMARK    5  A    between atoms: C_23  and  C_24 
REMARK    6  A    between atoms: C_24  and  O_26 
ROOT
HETATM    1  C   UNK N   1      33.711  13.437   6.474  0.00  0.00     0.069 C 
HETATM    2  C   UNK N   1      34.179  13.994   7.778  0.00  0.00     0.017 A 
HETATM    3  C   UNK N   1      34.553  13.238   8.890  0.00  0.00    -0.012 A 
HETATM    4  C   UNK N   1      34.921  14.157   9.863  0.00  0.00     0.017 A 
HETATM    5  C   UNK N   1      35.389  14.009  11.165  0.00  0.00     0.017 A 
HETATM    6  C   UNK N   1      35.682  15.174  11.894  0.00  0.00     0.018 A 
HETATM    7  C   UNK N   1      35.499  16.437  11.295  0.00  0.00     0.090 A 
HETATM    8  N   UNK N   1      35.039  16.533  10.012  0.00  0.00    -0.351 N 
ATOM      9  HN  UNK N   1      34.911  17.448   9.580  1.00  0.00     0.166 HD
HETATM   10  C   UNK N   1      34.754  15.401   9.318  0.00  0.00     0.118 A 
HETATM   11  N   UNK N   1      34.297  15.318   8.043  0.00  0.00    -0.332 N 
ENDROOT
BRANCH  11  12
HETATM   12  C   UNK N   1      33.989  16.399   7.089  0.00  0.00     0.169 C 
BRANCH  12  13
HETATM   13  C   UNK N   1      32.626  16.970   7.301  0.00  0.00    -0.040 A 
HETATM   14  C   UNK N   1      31.541  16.452   6.589  0.00  0.00     0.010 A 
HETATM   15  C   UNK N   1      30.241  16.860   6.893  0.00  0.00     0.024 A 
HETATM   16  C   UNK N   1      30.001  17.790   7.916  0.00  0.00     0.058 A 
HETATM   17  C   UNK N   1      31.123  18.313   8.634  0.00  0.00     0.024 A 
HETATM   18  C   UNK N   1      32.419  17.910   8.312  0.00  0.00     0.010 A 
BRANCH  16  19
HETATM   19  S   UNK N   1      28.238  18.099   8.376  0.00  0.00     0.171 S 
HETATM   20  O   UNK N   1      27.816  17.076   9.440  0.00  0.00    -0.223 OA
HETATM   21  O   UNK N   1      28.221  16.826   7.513  0.00  0.00    -0.223 OA
HETATM   22  C   UNK N   1      29.311  18.313   9.839  0.00  0.00     0.167 C 
ENDBRANCH  16  19
ENDBRANCH  12  13
ENDBRANCH  11  12
BRANCH   3  23
HETATM   23  C   UNK N   1      34.547  11.732   8.949  0.00  0.00     0.151 C 
BRANCH  23  24
HETATM   24  C   UNK N   1      33.393  11.132   9.690  0.00  0.00     0.143 C 
HETATM   25  O   UNK N   1      33.589  10.243  10.501  0.00  0.00    -0.650 OA
BRANCH  24  26
HETATM   26  O   UNK N   1      32.135  11.543   9.437  0.00  0.00    -0.776 OA
HETATM   27  H   UNK N   1      31.610  12.300   9.605  0.00  0.00     0.167 HD
ENDBRANCH  24  26
ENDBRANCH  23  24
ENDBRANCH   3  23
TORSDOF 6
ENDMDL
MODEL 9
REMARK VINA RESULT:      -6.2      3.731      5.922
REMARK  6 active torsions:
REMARK  status: ('A' for Active; 'I' for Inactive)
REMARK    1  A    between atoms: C_3  and  C_23 
REMARK    2  A    between atoms: N_11  and  C_12 
REMARK    3  A    between atoms: C_12  and  C_13 
REMARK    4  A    between atoms: C_16  and  S_19 
REMARK    5  A    between atoms: C_23  and  C_24 
REMARK    6  A    between atoms: C_24  and  O_26 
ROOT
HETATM    1  C   UNK N   1      35.157  16.608  10.469  0.00  0.00     0.069 C 
HETATM    2  C   UNK N   1      34.774  15.274   9.918  0.00  0.00     0.017 A 
HETATM    3  C   UNK N   1      34.806  14.070  10.623  0.00  0.00    -0.012 A 
HETATM    4  C   UNK N   1      34.365  13.101   9.732  0.00  0.00     0.017 A 
HETATM    5  C   UNK N   1      34.173  11.728   9.858  0.00  0.00     0.017 A 
HETATM    6  C   UNK N   1      33.697  11.026   8.738  0.00  0.00     0.018 A 
HETATM    7  C   UNK N   1      33.429  11.721   7.541  0.00  0.00     0.090 A 
HETATM    8  N   UNK N   1      33.630  13.070   7.465  0.00  0.00    -0.351 N 
ATOM      9  HN  UNK N   1      33.432  13.571   6.599  1.00  0.00     0.166 HD
HETATM   10  C   UNK N   1      34.096  13.738   8.552  0.00  0.00     0.118 A 
HETATM   11  N   UNK N   1      34.344  15.068   8.648  0.00  0.00    -0.332 N 
ENDROOT
BRANCH  11  12
HETATM   12  C   UNK N   1      34.186  16.124   7.631  0.00  0.00     0.169 C 
BRANCH  12  13
HETATM   13  C   UNK N   1      32.834  16.754   7.673  0.00  0.00    -0.040 A 
HETATM   14  C   UNK N   1      31.745  16.095   7.098  0.00  0.00     0.010 A 
HETATM   15  C   UNK N   1      30.452  16.590   7.270  0.00  0.00     0.024 A 
HETATM   16  C   UNK N   1      30.221  17.750   8.026  0.00  0.00     0.058 A 
HETATM   17  C   UNK N   1      31.347  18.415   8.606  0.00  0.00     0.024 A 
HETATM   18  C   UNK N   1      32.637  17.921   8.415  0.00  0.00     0.010 A 
BRANCH  16  19
HETATM   19  S   UNK N   1      28.461  18.196   8.368  0.00  0.00     0.171 S 
HETATM   20  O   UNK N   1      27.915  17.261   9.455  0.00  0.00    -0.223 OA
HETATM   21  O   UNK N   1      28.405  16.882   7.570  0.00  0.00    -0.223 OA
HETATM   22  C   UNK N   1      29.466  18.419   9.877  0.00  0.00     0.167 C 
ENDBRANCH  16  19
ENDBRANCH  12  13
ENDBRANCH  11  12
BRANCH   3  23
HETATM   23  C   UNK N   1      35.232  13.926  12.062  0.00  0.00     0.151 C 
BRANCH  23  24
HETATM   24  C   UNK N   1      36.593  13.337  12.263  0.00  0.00     0.143 C 
HETATM   25  O   UNK N   1      36.779  12.530  13.158  0.00  0.00    -0.650 OA
BRANCH  24  26
HETATM   26  O   UNK N   1      37.623  13.723  11.485  0.00  0.00    -0.776 OA
HETATM   27  H   UNK N   1      37.762  13.952  10.588  0.00  0.00     0.167 HD
ENDBRANCH  24  26
ENDBRANCH  23  24
ENDBRANCH   3  23
TORSDOF 6
ENDMDL
