MODEL 1
REMARK VINA RESULT:      -8.6      0.000      0.000
REMARK  6 active torsions:
REMARK  status: ('A' for Active; 'I' for Inactive)
REMARK    1  A    between atoms: C_2  and  N_3 
REMARK    2  A    between atoms: N_3  and  C_4 
REMARK    3  A    between atoms: C_4  and  C_36 
REMARK    4  A    between atoms: N_7  and  C_10 
REMARK    5  A    between atoms: N_18  and  C_29 
REMARK    6  A    between atoms: C_19  and  C_22 
REMARK       I    between atoms: C_36  and  N_38 
ROOT
HETATM    1  C   UNK N   1      28.158  18.730   7.274  0.00  0.00     0.135 C 
HETATM    2  C   UNK N   1      29.138  17.791   6.986  0.00  0.00     0.123 A 
HETATM    3  C   UNK N   1      29.811  17.173   7.962  0.00  0.00     0.146 A 
HETATM    4  N   UNK N   1      29.484  17.336   9.268  0.00  0.00    -0.336 N 
ATOM      5  HN  UNK N   1      30.015  16.869  10.004  1.00  0.00     0.168 HD
HETATM    6  C   UNK N   1      28.417  18.150   9.571  0.00  0.00     0.183 C 
HETATM    7  N   UNK N   1      27.783  18.873   8.581  0.00  0.00    -0.337 N 
ATOM      8  HN  UNK N   1      27.030  19.516   8.826  1.00  0.00     0.168 HD
HETATM    9  N   UNK N   1      30.863  16.512   7.422  0.00  0.00    -0.281 N 
HETATM   10  C   UNK N   1      30.719  16.701   6.063  0.00  0.00     0.126 A 
HETATM   11  N   UNK N   1      29.655  17.480   5.796  0.00  0.00    -0.335 N 
ATOM     12  HN  UNK N   1      29.316  17.771   4.880  1.00  0.00     0.168 HD
ENDROOT
BRANCH   1  13
HETATM   13  N   UNK N   1      27.720  19.628   6.252  0.00  0.00    -0.365 N 
HETATM   14  C   UNK N   1      28.167  19.411   4.896  0.00  0.00     0.127 C 
HETATM   15  C   UNK N   1      26.968  19.154   4.014  0.00  0.00     0.060 C 
HETATM   16  C   UNK N   1      25.709  19.922   4.466  0.00  0.00     0.110 C 
HETATM   17  C   UNK N   1      26.160  21.210   5.218  0.00  0.00     0.060 C 
HETATM   18  C   UNK N   1      26.949  20.829   6.508  0.00  0.00     0.127 C 
BRANCH  16  19
HETATM   19  N   UNK N   1      24.957  19.054   5.399  0.00  0.00    -0.405 N 
HETATM   20  H   UNK N   1      24.469  19.417   6.218  0.00  0.00     0.154 HD
BRANCH  19  21
HETATM   21  C   UNK N   1      24.972  17.630   5.046  0.00  0.00     0.110 C 
HETATM   22  C   UNK N   1      23.587  17.001   5.097  0.00  0.00     0.026 C 
ENDBRANCH  19  21
ENDBRANCH  16  19
BRANCH  16  23
HETATM   23  C   UNK N   1      24.903  20.219   3.206  0.00  0.00     0.243 C 
HETATM   24  O   UNK N   1      25.467  20.517   2.160  0.00  0.00    -0.271 OA
HETATM   25  N   UNK N   1      23.560  20.149   3.222  0.00  0.00    -0.368 N 
HETATM   26  H   UNK N   1      23.038  20.125   2.386  0.00  0.00     0.159 HD
HETATM   27  H   UNK N   1      23.088  20.122   4.086  0.00  0.00     0.159 HD
ENDBRANCH  16  23
ENDBRANCH   1  13
BRANCH   9  28
HETATM   28  C   UNK N   1      31.978  15.966   8.152  0.00  0.00     0.043 A 
HETATM   29  C   UNK N   1      32.245  14.591   8.168  0.00  0.00     0.032 A 
HETATM   30  C   UNK N   1      33.489  14.117   8.591  0.00  0.00     0.026 A 
HETATM   31  C   UNK N   1      34.478  15.019   8.993  0.00  0.00     0.034 A 
HETATM   32  C   UNK N   1      34.199  16.384   9.041  0.00  0.00     0.026 A 
HETATM   33 Cl   UNK N   1      36.082  14.444   9.380  0.00  0.00    -0.084 Cl
HETATM   34  C   UNK N   1      32.953  16.854   8.629  0.00  0.00     0.032 A 
ENDBRANCH   9  28
BRANCH  10  35
HETATM   35  C   UNK N   1      31.681  16.402   4.955  0.00  0.00     0.030 A 
HETATM   36  C   UNK N   1      32.430  17.432   4.376  0.00  0.00     0.017 A 
HETATM   37  C   UNK N   1      33.254  17.208   3.275  0.00  0.00     0.001 A 
HETATM   38  C   UNK N   1      33.331  15.937   2.715  0.00  0.00     0.002 A 
HETATM   39  C   UNK N   1      32.591  14.892   3.261  0.00  0.00     0.025 A 
HETATM   40  C   UNK N   1      31.763  15.106   4.366  0.00  0.00     0.048 A 
HETATM   41 Cl   UNK N   1      30.882  13.708   4.977  0.00  0.00    -0.083 Cl
ENDBRANCH  10  35
TORSDOF 6
ENDMDL
MODEL 2
REMARK VINA RESULT:      -8.4      1.407      2.407
REMARK  6 active torsions:
REMARK  status: ('A' for Active; 'I' for Inactive)
REMARK    1  A    between atoms: C_2  and  N_3 
REMARK    2  A    between atoms: N_3  and  C_4 
REMARK    3  A    between atoms: C_4  and  C_36 
REMARK    4  A    between atoms: N_7  and  C_10 
REMARK    5  A    between atoms: N_18  and  C_29 
REMARK    6  A    between atoms: C_19  and  C_22 
REMARK       I    between atoms: C_36  and  N_38 
ROOT
HETATM    1  C   UNK N   1      27.987  17.475   6.450  0.00  0.00     0.135 C 
HETATM    2  C   UNK N   1      29.148  16.717   6.404  0.00  0.00     0.123 A 
HETATM    3  C   UNK N   1      30.007  16.708   7.428  0.00  0.00     0.146 A 
HETATM    4  N   UNK N   1      29.728  17.329   8.601  0.00  0.00    -0.336 N 
ATOM      5  HN  UNK N   1      30.399  17.325   9.369  1.00  0.00     0.168 HD
HETATM    6  C   UNK N   1      28.513  17.964   8.722  0.00  0.00     0.183 C 
HETATM    7  N   UNK N   1      27.665  18.069   7.639  0.00  0.00    -0.337 N 
ATOM      8  HN  UNK N   1      26.793  18.590   7.726  1.00  0.00     0.168 HD
HETATM    9  N   UNK N   1      31.156  16.107   7.034  0.00  0.00    -0.281 N 
HETATM   10  C   UNK N   1      30.891  15.682   5.749  0.00  0.00     0.126 A 
HETATM   11  N   UNK N   1      29.654  16.051   5.365  0.00  0.00    -0.335 N 
ATOM     12  HN  UNK N   1      29.202  15.861   4.472  1.00  0.00     0.168 HD
ENDROOT
BRANCH   1  13
HETATM   13  N   UNK N   1      27.283  17.760   5.239  0.00  0.00    -0.365 N 
HETATM   14  C   UNK N   1      26.143  16.947   4.888  0.00  0.00     0.127 C 
HETATM   15  C   UNK N   1      24.912  17.820   4.822  0.00  0.00     0.060 C 
HETATM   16  C   UNK N   1      25.214  19.254   4.341  0.00  0.00     0.110 C 
HETATM   17  C   UNK N   1      26.482  19.216   3.437  0.00  0.00     0.060 C 
HETATM   18  C   UNK N   1      27.716  18.743   4.266  0.00  0.00     0.127 C 
BRANCH  16  19
HETATM   19  N   UNK N   1      25.493  20.085   5.533  0.00  0.00    -0.405 N 
HETATM   20  H   UNK N   1      25.148  19.849   6.463  0.00  0.00     0.154 HD
BRANCH  19  21
HETATM   21  C   UNK N   1      26.310  21.275   5.264  0.00  0.00     0.110 C 
HETATM   22  C   UNK N   1      27.226  21.629   6.426  0.00  0.00     0.026 C 
ENDBRANCH  19  21
ENDBRANCH  16  19
BRANCH  16  23
HETATM   23  C   UNK N   1      23.970  19.738   3.601  0.00  0.00     0.243 C 
HETATM   24  O   UNK N   1      24.034  20.684   2.826  0.00  0.00    -0.271 OA
HETATM   25  N   UNK N   1      22.786  19.124   3.782  0.00  0.00    -0.368 N 
HETATM   26  H   UNK N   1      22.032  19.275   3.167  0.00  0.00     0.159 HD
HETATM   27  H   UNK N   1      22.671  18.512   4.545  0.00  0.00     0.159 HD
ENDBRANCH  16  23
ENDBRANCH   1  13
BRANCH   9  28
HETATM   28  C   UNK N   1      32.411  16.148   7.738  0.00  0.00     0.043 A 
HETATM   29  C   UNK N   1      33.224  17.290   7.728  0.00  0.00     0.032 A 
HETATM   30  C   UNK N   1      34.251  17.435   8.663  0.00  0.00     0.026 A 
HETATM   31  C   UNK N   1      34.466  16.441   9.621  0.00  0.00     0.034 A 
HETATM   32  C   UNK N   1      33.704  15.273   9.599  0.00  0.00     0.026 A 
HETATM   33 Cl   UNK N   1      35.650  16.682  10.885  0.00  0.00    -0.084 Cl
HETATM   34  C   UNK N   1      32.686  15.126   8.658  0.00  0.00     0.032 A 
ENDBRANCH   9  28
BRANCH  10  35
HETATM   35  C   UNK N   1      31.830  15.149   4.711  0.00  0.00     0.030 A 
HETATM   36  C   UNK N   1      31.983  13.769   4.542  0.00  0.00     0.017 A 
HETATM   37  C   UNK N   1      32.924  13.240   3.661  0.00  0.00     0.001 A 
HETATM   38  C   UNK N   1      33.751  14.091   2.936  0.00  0.00     0.002 A 
HETATM   39  C   UNK N   1      33.632  15.470   3.088  0.00  0.00     0.025 A 
HETATM   40  C   UNK N   1      32.690  16.012   3.968  0.00  0.00     0.048 A 
HETATM   41 Cl   UNK N   1      32.622  17.769   4.071  0.00  0.00    -0.083 Cl
ENDBRANCH  10  35
TORSDOF 6
ENDMDL
MODEL 3
REMARK VINA RESULT:      -8.1      3.932      8.587
REMARK  6 active torsions:
REMARK  status: ('A' for Active; 'I' for Inactive)
REMARK    1  A    between atoms: C_2  and  N_3 
REMARK    2  A    between atoms: N_3  and  C_4 
REMARK    3  A    between atoms: C_4  and  C_36 
REMARK    4  A    between atoms: N_7  and  C_10 
REMARK    5  A    between atoms: N_18  and  C_29 
REMARK    6  A    between atoms: C_19  and  C_22 
REMARK       I    between atoms: C_36  and  N_38 
ROOT
HETATM    1  C   UNK N   1      30.427  15.354   5.741  0.00  0.00     0.135 C 
HETATM    2  C   UNK N   1      29.113  15.569   5.350  0.00  0.00     0.123 A 
HETATM    3  C   UNK N   1      28.433  14.637   4.673  0.00  0.00     0.146 A 
HETATM    4  N   UNK N   1      28.944  13.402   4.449  0.00  0.00    -0.336 N 
ATOM      5  HN  UNK N   1      28.420  12.705   3.919  1.00  0.00     0.168 HD
HETATM    6  C   UNK N   1      30.191  13.116   4.957  0.00  0.00     0.183 C 
HETATM    7  N   UNK N   1      30.943  14.100   5.566  0.00  0.00    -0.337 N 
ATOM      8  HN  UNK N   1      31.887  13.890   5.889  1.00  0.00     0.168 HD
HETATM    9  N   UNK N   1      27.288  15.185   4.200  0.00  0.00    -0.281 N 
HETATM   10  C   UNK N   1      27.289  16.466   4.714  0.00  0.00     0.126 A 
HETATM   11  N   UNK N   1      28.407  16.697   5.426  0.00  0.00    -0.335 N 
ATOM     12  HN  UNK N   1      28.660  17.553   5.920  1.00  0.00     0.168 HD
ENDROOT
BRANCH   1  13
HETATM   13  N   UNK N   1      31.239  16.466   6.126  0.00  0.00    -0.365 N 
HETATM   14  C   UNK N   1      30.867  17.227   7.295  0.00  0.00     0.127 C 
HETATM   15  C   UNK N   1      31.976  17.140   8.317  0.00  0.00     0.060 C 
HETATM   16  C   UNK N   1      33.378  17.038   7.681  0.00  0.00     0.110 C 
HETATM   17  C   UNK N   1      33.337  17.723   6.283  0.00  0.00     0.060 C 
HETATM   18  C   UNK N   1      32.352  16.963   5.342  0.00  0.00     0.127 C 
BRANCH  16  19
HETATM   19  N   UNK N   1      33.696  15.604   7.508  0.00  0.00    -0.405 N 
HETATM   20  H   UNK N   1      33.035  14.860   7.734  0.00  0.00     0.154 HD
BRANCH  19  21
HETATM   21  C   UNK N   1      35.042  15.340   6.984  0.00  0.00     0.110 C 
HETATM   22  C   UNK N   1      35.812  14.338   7.831  0.00  0.00     0.026 C 
ENDBRANCH  19  21
ENDBRANCH  16  19
BRANCH  16  23
HETATM   23  C   UNK N   1      34.346  17.713   8.647  0.00  0.00     0.243 C 
HETATM   24  O   UNK N   1      34.929  18.742   8.329  0.00  0.00    -0.271 OA
HETATM   25  N   UNK N   1      34.565  17.194   9.869  0.00  0.00    -0.368 N 
HETATM   26  H   UNK N   1      35.009  17.717  10.575  0.00  0.00     0.159 HD
HETATM   27  H   UNK N   1      34.277  16.271  10.060  0.00  0.00     0.159 HD
ENDBRANCH  16  23
ENDBRANCH   1  13
BRANCH   9  28
HETATM   28  C   UNK N   1      26.431  14.607   3.198  0.00  0.00     0.043 A 
HETATM   29  C   UNK N   1      25.511  13.597   3.511  0.00  0.00     0.032 A 
HETATM   30  C   UNK N   1      24.477  13.284   2.626  0.00  0.00     0.026 A 
HETATM   31  C   UNK N   1      24.349  13.989   1.426  0.00  0.00     0.034 A 
HETATM   32  C   UNK N   1      25.296  14.952   1.078  0.00  0.00     0.026 A 
HETATM   33 Cl   UNK N   1      22.973  13.707   0.386  0.00  0.00    -0.084 Cl
HETATM   34  C   UNK N   1      26.335  15.254   1.958  0.00  0.00     0.032 A 
ENDBRANCH   9  28
BRANCH  10  35
HETATM   35  C   UNK N   1      26.406  17.627   4.375  0.00  0.00     0.030 A 
HETATM   36  C   UNK N   1      26.944  18.768   3.771  0.00  0.00     0.017 A 
HETATM   37  C   UNK N   1      26.173  19.905   3.539  0.00  0.00     0.001 A 
HETATM   38  C   UNK N   1      24.837  19.928   3.926  0.00  0.00     0.002 A 
HETATM   39  C   UNK N   1      24.273  18.813   4.539  0.00  0.00     0.025 A 
HETATM   40  C   UNK N   1      25.037  17.666   4.775  0.00  0.00     0.048 A 
HETATM   41 Cl   UNK N   1      24.215  16.313   5.547  0.00  0.00    -0.083 Cl
ENDBRANCH  10  35
TORSDOF 6
ENDMDL
MODEL 4
REMARK VINA RESULT:      -7.9      6.376     10.476
REMARK  6 active torsions:
REMARK  status: ('A' for Active; 'I' for Inactive)
REMARK    1  A    between atoms: C_2  and  N_3 
REMARK    2  A    between atoms: N_3  and  C_4 
REMARK    3  A    between atoms: C_4  and  C_36 
REMARK    4  A    between atoms: N_7  and  C_10 
REMARK    5  A    between atoms: N_18  and  C_29 
REMARK    6  A    between atoms: C_19  and  C_22 
REMARK       I    between atoms: C_36  and  N_38 
ROOT
HETATM    1  C   UNK N   1      35.832  13.656  10.145  0.00  0.00     0.135 C 
HETATM    2  C   UNK N   1      36.261  13.356  11.430  0.00  0.00     0.123 A 
HETATM    3  C   UNK N   1      36.871  12.197  11.701  0.00  0.00     0.146 A 
HETATM    4  N   UNK N   1      37.212  11.323  10.722  0.00  0.00    -0.336 N 
ATOM      5  HN  UNK N   1      37.664  10.436  10.945  1.00  0.00     0.168 HD
HETATM    6  C   UNK N   1      36.927  11.667   9.421  0.00  0.00     0.183 C 
HETATM    7  N   UNK N   1      36.207  12.810   9.138  0.00  0.00    -0.337 N 
ATOM      8  HN  UNK N   1      35.954  13.025   8.174  1.00  0.00     0.168 HD
HETATM    9  N   UNK N   1      36.955  12.048  13.045  0.00  0.00    -0.281 N 
HETATM   10  C   UNK N   1      36.442  13.225  13.548  0.00  0.00     0.126 A 
HETATM   11  N   UNK N   1      36.023  14.031  12.555  0.00  0.00    -0.335 N 
ATOM     12  HN  UNK N   1      35.612  14.960  12.644  1.00  0.00     0.168 HD
ENDROOT
BRANCH   1  13
HETATM   13  N   UNK N   1      34.879  14.702   9.947  0.00  0.00    -0.365 N 
HETATM   14  C   UNK N   1      35.350  16.065   9.861  0.00  0.00     0.127 C 
HETATM   15  C   UNK N   1      34.995  16.628   8.505  0.00  0.00     0.060 C 
HETATM   16  C   UNK N   1      33.674  16.064   7.943  0.00  0.00     0.110 C 
HETATM   17  C   UNK N   1      32.767  15.647   9.139  0.00  0.00     0.060 C 
HETATM   18  C   UNK N   1      33.444  14.500   9.951  0.00  0.00     0.127 C 
BRANCH  16  19
HETATM   19  N   UNK N   1      33.997  14.865   7.139  0.00  0.00    -0.405 N 
HETATM   20  H   UNK N   1      33.433  14.016   7.163  0.00  0.00     0.154 HD
BRANCH  19  21
HETATM   21  C   UNK N   1      35.196  15.001   6.302  0.00  0.00     0.110 C 
HETATM   22  C   UNK N   1      34.944  14.612   4.853  0.00  0.00     0.026 C 
ENDBRANCH  19  21
ENDBRANCH  16  19
BRANCH  16  23
HETATM   23  C   UNK N   1      33.060  17.165   7.085  0.00  0.00     0.243 C 
HETATM   24  O   UNK N   1      33.755  18.066   6.634  0.00  0.00    -0.271 OA
HETATM   25  N   UNK N   1      31.744  17.157   6.802  0.00  0.00    -0.368 N 
HETATM   26  H   UNK N   1      31.370  17.722   6.087  0.00  0.00     0.159 HD
HETATM   27  H   UNK N   1      31.142  16.573   7.320  0.00  0.00     0.159 HD
ENDBRANCH  16  23
ENDBRANCH   1  13
BRANCH   9  28
HETATM   28  C   UNK N   1      37.280  10.827  13.737  0.00  0.00     0.043 A 
HETATM   29  C   UNK N   1      36.518   9.663  13.572  0.00  0.00     0.032 A 
HETATM   30  C   UNK N   1      37.022   8.425  13.976  0.00  0.00     0.026 A 
HETATM   31  C   UNK N   1      38.299   8.343  14.539  0.00  0.00     0.034 A 
HETATM   32  C   UNK N   1      39.037   9.504  14.765  0.00  0.00     0.026 A 
HETATM   33 Cl   UNK N   1      38.996   6.783  14.908  0.00  0.00    -0.084 Cl
HETATM   34  C   UNK N   1      38.527  10.740  14.371  0.00  0.00     0.032 A 
ENDBRANCH   9  28
BRANCH  10  35
HETATM   35  C   UNK N   1      36.066  13.574  14.956  0.00  0.00     0.030 A 
HETATM   36  C   UNK N   1      36.842  14.480  15.687  0.00  0.00     0.017 A 
HETATM   37  C   UNK N   1      36.583  14.747  17.030  0.00  0.00     0.001 A 
HETATM   38  C   UNK N   1      35.543  14.091  17.679  0.00  0.00     0.002 A 
HETATM   39  C   UNK N   1      34.758  13.175  16.983  0.00  0.00     0.025 A 
HETATM   40  C   UNK N   1      35.008  12.902  15.635  0.00  0.00     0.048 A 
HETATM   41 Cl   UNK N   1      33.945  11.733  14.855  0.00  0.00    -0.083 Cl
ENDBRANCH  10  35
TORSDOF 6
ENDMDL
MODEL 5
REMARK VINA RESULT:      -7.8      3.841      7.278
REMARK  6 active torsions:
REMARK  status: ('A' for Active; 'I' for Inactive)
REMARK    1  A    between atoms: C_2  and  N_3 
REMARK    2  A    between atoms: N_3  and  C_4 
REMARK    3  A    between atoms: C_4  and  C_36 
REMARK    4  A    between atoms: N_7  and  C_10 
REMARK    5  A    between atoms: N_18  and  C_29 
REMARK    6  A    between atoms: C_19  and  C_22 
REMARK       I    between atoms: C_36  and  N_38 
ROOT
HETATM    1  C   UNK N   1      30.494  17.431   8.353  0.00  0.00     0.135 C 
HETATM    2  C   UNK N   1      29.593  17.043   7.372  0.00  0.00     0.123 A 
HETATM    3  C   UNK N   1      28.275  17.055   7.601  0.00  0.00     0.146 A 
HETATM    4  N   UNK N   1      27.754  17.563   8.745  0.00  0.00    -0.336 N 
ATOM      5  HN  UNK N   1      26.747  17.553   8.912  1.00  0.00     0.168 HD
HETATM    6  C   UNK N   1      28.622  18.091   9.672  0.00  0.00     0.183 C 
HETATM    7  N   UNK N   1      29.987  17.991   9.493  0.00  0.00    -0.337 N 
ATOM      8  HN  UNK N   1      30.620  18.336  10.214  1.00  0.00     0.168 HD
HETATM    9  N   UNK N   1      27.647  16.400   6.595  0.00  0.00    -0.281 N 
HETATM   10  C   UNK N   1      28.661  16.082   5.715  0.00  0.00     0.126 A 
HETATM   11  N   UNK N   1      29.854  16.484   6.190  0.00  0.00    -0.335 N 
ATOM     12  HN  UNK N   1      30.764  16.383   5.741  1.00  0.00     0.168 HD
ENDROOT
BRANCH   1  13
HETATM   13  N   UNK N   1      31.871  17.071   8.227  0.00  0.00    -0.365 N 
HETATM   14  C   UNK N   1      32.293  15.763   8.671  0.00  0.00     0.127 C 
HETATM   15  C   UNK N   1      32.853  14.998   7.496  0.00  0.00     0.060 C 
HETATM   16  C   UNK N   1      33.562  15.902   6.467  0.00  0.00     0.110 C 
HETATM   17  C   UNK N   1      34.097  17.165   7.205  0.00  0.00     0.060 C 
HETATM   18  C   UNK N   1      32.909  17.986   7.794  0.00  0.00     0.127 C 
BRANCH  16  19
HETATM   19  N   UNK N   1      32.560  16.318   5.461  0.00  0.00    -0.405 N 
HETATM   20  H   UNK N   1      31.567  16.097   5.545  0.00  0.00     0.154 HD
BRANCH  19  21
HETATM   21  C   UNK N   1      33.114  17.075   4.332  0.00  0.00     0.110 C 
HETATM   22  C   UNK N   1      32.231  17.007   3.094  0.00  0.00     0.026 C 
ENDBRANCH  19  21
ENDBRANCH  16  19
BRANCH  16  23
HETATM   23  C   UNK N   1      34.671  15.065   5.839  0.00  0.00     0.243 C 
HETATM   24  O   UNK N   1      35.831  15.455   5.852  0.00  0.00    -0.271 OA
HETATM   25  N   UNK N   1      34.391  13.878   5.269  0.00  0.00    -0.368 N 
HETATM   26  H   UNK N   1      35.104  13.232   5.055  0.00  0.00     0.159 HD
HETATM   27  H   UNK N   1      33.456  13.649   5.063  0.00  0.00     0.159 HD
ENDBRANCH  16  23
ENDBRANCH   1  13
BRANCH   9  28
HETATM   28  C   UNK N   1      26.279  15.951   6.608  0.00  0.00     0.043 A 
HETATM   29  C   UNK N   1      25.329  16.459   5.712  0.00  0.00     0.032 A 
HETATM   30  C   UNK N   1      24.117  15.794   5.515  0.00  0.00     0.026 A 
HETATM   31  C   UNK N   1      23.852  14.609   6.206  0.00  0.00     0.034 A 
HETATM   32  C   UNK N   1      24.764  14.130   7.146  0.00  0.00     0.026 A 
HETATM   33 Cl   UNK N   1      22.406  13.692   5.853  0.00  0.00    -0.084 Cl
HETATM   34  C   UNK N   1      25.969  14.802   7.350  0.00  0.00     0.032 A 
ENDBRANCH   9  28
BRANCH  10  35
HETATM   35  C   UNK N   1      28.636  15.172   4.525  0.00  0.00     0.030 A 
HETATM   36  C   UNK N   1      29.258  13.921   4.583  0.00  0.00     0.017 A 
HETATM   37  C   UNK N   1      29.345  13.095   3.464  0.00  0.00     0.001 A 
HETATM   38  C   UNK N   1      28.821  13.518   2.247  0.00  0.00     0.002 A 
HETATM   39  C   UNK N   1      28.204  14.763   2.153  0.00  0.00     0.025 A 
HETATM   40  C   UNK N   1      28.110  15.598   3.270  0.00  0.00     0.048 A 
HETATM   41 Cl   UNK N   1      27.300  17.145   3.034  0.00  0.00    -0.083 Cl
ENDBRANCH  10  35
TORSDOF 6
ENDMDL
MODEL 6
REMARK VINA RESULT:      -7.8      3.499      6.140
REMARK  6 active torsions:
REMARK  status: ('A' for Active; 'I' for Inactive)
REMARK    1  A    between atoms: C_2  and  N_3 
REMARK    2  A    between atoms: N_3  and  C_4 
REMARK    3  A    between atoms: C_4  and  C_36 
REMARK    4  A    between atoms: N_7  and  C_10 
REMARK    5  A    between atoms: N_18  and  C_29 
REMARK    6  A    between atoms: C_19  and  C_22 
REMARK       I    between atoms: C_36  and  N_38 
ROOT
HETATM    1  C   UNK N   1      25.470  15.091   2.912  0.00  0.00     0.135 C 
HETATM    2  C   UNK N   1      26.406  16.045   3.287  0.00  0.00     0.123 A 
HETATM    3  C   UNK N   1      27.716  15.778   3.253  0.00  0.00     0.146 A 
HETATM    4  N   UNK N   1      28.195  14.620   2.735  0.00  0.00    -0.336 N 
ATOM      5  HN  UNK N   1      29.196  14.423   2.729  1.00  0.00     0.168 HD
HETATM    6  C   UNK N   1      27.291  13.719   2.221  0.00  0.00     0.183 C 
HETATM    7  N   UNK N   1      25.934  13.938   2.344  0.00  0.00    -0.337 N 
ATOM      8  HN  UNK N   1      25.274  13.236   2.009  1.00  0.00     0.168 HD
HETATM    9  N   UNK N   1      28.383  16.764   3.898  0.00  0.00    -0.281 N 
HETATM   10  C   UNK N   1      27.401  17.673   4.233  0.00  0.00     0.126 A 
HETATM   11  N   UNK N   1      26.188  17.234   3.850  0.00  0.00    -0.335 N 
ATOM     12  HN  UNK N   1      25.293  17.709   3.966  1.00  0.00     0.168 HD
ENDROOT
BRANCH   1  13
HETATM   13  N   UNK N   1      24.103  15.257   3.295  0.00  0.00    -0.365 N 
HETATM   14  C   UNK N   1      23.305  14.082   3.556  0.00  0.00     0.127 C 
HETATM   15  C   UNK N   1      22.836  14.110   4.991  0.00  0.00     0.060 C 
HETATM   16  C   UNK N   1      22.586  15.537   5.518  0.00  0.00     0.110 C 
HETATM   17  C   UNK N   1      22.220  16.452   4.311  0.00  0.00     0.060 C 
HETATM   18  C   UNK N   1      23.420  16.535   3.318  0.00  0.00     0.127 C 
BRANCH  16  19
HETATM   19  N   UNK N   1      23.842  16.023   6.130  0.00  0.00    -0.405 N 
HETATM   20  H   UNK N   1      24.143  16.996   6.076  0.00  0.00     0.154 HD
BRANCH  19  21
HETATM   21  C   UNK N   1      24.619  14.987   6.822  0.00  0.00     0.110 C 
HETATM   22  C   UNK N   1      26.104  15.311   6.877  0.00  0.00     0.026 C 
ENDBRANCH  19  21
ENDBRANCH  16  19
BRANCH  16  23
HETATM   23  C   UNK N   1      21.465  15.433   6.547  0.00  0.00     0.243 C 
HETATM   24  O   UNK N   1      21.128  16.411   7.204  0.00  0.00    -0.271 OA
HETATM   25  N   UNK N   1      20.822  14.267   6.742  0.00  0.00    -0.368 N 
HETATM   26  H   UNK N   1      19.970  14.228   7.234  0.00  0.00     0.159 HD
HETATM   27  H   UNK N   1      21.212  13.436   6.386  0.00  0.00     0.159 HD
ENDBRANCH  16  23
ENDBRANCH   1  13
BRANCH   9  28
HETATM   28  C   UNK N   1      29.757  16.711   4.324  0.00  0.00     0.043 A 
HETATM   29  C   UNK N   1      30.778  17.343   3.602  0.00  0.00     0.032 A 
HETATM   30  C   UNK N   1      32.027  17.563   4.186  0.00  0.00     0.026 A 
HETATM   31  C   UNK N   1      32.260  17.160   5.504  0.00  0.00     0.034 A 
HETATM   32  C   UNK N   1      31.272  16.473   6.208  0.00  0.00     0.026 A 
HETATM   33 Cl   UNK N   1      33.767  17.565   6.291  0.00  0.00    -0.084 Cl
HETATM   34  C   UNK N   1      30.029  16.245   5.619  0.00  0.00     0.032 A 
ENDBRANCH   9  28
BRANCH  10  35
HETATM   35  C   UNK N   1      27.475  18.861   5.143  0.00  0.00     0.030 A 
HETATM   36  C   UNK N   1      27.835  18.699   6.484  0.00  0.00     0.017 A 
HETATM   37  C   UNK N   1      27.812  19.764   7.382  0.00  0.00     0.001 A 
HETATM   38  C   UNK N   1      27.407  21.023   6.953  0.00  0.00     0.002 A 
HETATM   39  C   UNK N   1      27.032  21.217   5.626  0.00  0.00     0.025 A 
HETATM   40  C   UNK N   1      27.054  20.155   4.717  0.00  0.00     0.048 A 
HETATM   41 Cl   UNK N   1      26.568  20.521   3.063  0.00  0.00    -0.083 Cl
ENDBRANCH  10  35
TORSDOF 6
ENDMDL
MODEL 7
REMARK VINA RESULT:      -7.5     12.301     16.370
REMARK  6 active torsions:
REMARK  status: ('A' for Active; 'I' for Inactive)
REMARK    1  A    between atoms: C_2  and  N_3 
REMARK    2  A    between atoms: N_3  and  C_4 
REMARK    3  A    between atoms: C_4  and  C_36 
REMARK    4  A    between atoms: N_7  and  C_10 
REMARK    5  A    between atoms: N_18  and  C_29 
REMARK    6  A    between atoms: C_19  and  C_22 
REMARK       I    between atoms: C_36  and  N_38 
ROOT
HETATM    1  C   UNK N   1      35.171  11.513  17.595  0.00  0.00     0.135 C 
HETATM    2  C   UNK N   1      34.604  10.613  18.485  0.00  0.00     0.123 A 
HETATM    3  C   UNK N   1      34.601  10.851  19.801  0.00  0.00     0.146 A 
HETATM    4  N   UNK N   1      35.031  12.030  20.314  0.00  0.00    -0.336 N 
ATOM      5  HN  UNK N   1      35.037  12.194  21.321  1.00  0.00     0.168 HD
HETATM    6  C   UNK N   1      35.462  12.998  19.436  0.00  0.00     0.183 C 
HETATM    7  N   UNK N   1      35.567  12.726  18.087  0.00  0.00    -0.337 N 
ATOM      8  HN  UNK N   1      35.940  13.433  17.454  1.00  0.00     0.168 HD
HETATM    9  N   UNK N   1      34.227   9.724  20.452  0.00  0.00    -0.281 N 
HETATM   10  C   UNK N   1      33.922   8.836  19.441  0.00  0.00     0.126 A 
HETATM   11  N   UNK N   1      34.146   9.386  18.234  0.00  0.00    -0.335 N 
ATOM     12  HN  UNK N   1      33.998   8.955  17.321  1.00  0.00     0.168 HD
ENDROOT
BRANCH   1  13
HETATM   13  N   UNK N   1      35.490  11.087  16.269  0.00  0.00    -0.365 N 
HETATM   14  C   UNK N   1      34.503  11.253  15.227  0.00  0.00     0.127 C 
HETATM   15  C   UNK N   1      35.054  12.172  14.163  0.00  0.00     0.060 C 
HETATM   16  C   UNK N   1      36.581  12.042  13.984  0.00  0.00     0.110 C 
HETATM   17  C   UNK N   1      37.007  10.605  14.405  0.00  0.00     0.060 C 
HETATM   18  C   UNK N   1      36.704  10.377  15.918  0.00  0.00     0.127 C 
BRANCH  16  19
HETATM   19  N   UNK N   1      37.229  13.022  14.883  0.00  0.00    -0.405 N 
HETATM   20  H   UNK N   1      38.008  12.779  15.496  0.00  0.00     0.154 HD
BRANCH  19  21
HETATM   21  C   UNK N   1      36.659  14.374  14.818  0.00  0.00     0.110 C 
HETATM   22  C   UNK N   1      37.301  15.326  15.816  0.00  0.00     0.026 C 
ENDBRANCH  19  21
ENDBRANCH  16  19
BRANCH  16  23
HETATM   23  C   UNK N   1      36.876  12.346  12.519  0.00  0.00     0.243 C 
HETATM   24  O   UNK N   1      35.970  12.630  11.746  0.00  0.00    -0.271 OA
HETATM   25  N   UNK N   1      38.140  12.316  12.056  0.00  0.00    -0.368 N 
HETATM   26  H   UNK N   1      38.375  12.711  11.185  0.00  0.00     0.159 HD
HETATM   27  H   UNK N   1      38.843  11.890  12.599  0.00  0.00     0.159 HD
ENDBRANCH  16  23
ENDBRANCH   1  13
BRANCH   9  28
HETATM   28  C   UNK N   1      34.370   9.482  21.864  0.00  0.00     0.043 A 
HETATM   29  C   UNK N   1      35.609   9.159  22.434  0.00  0.00     0.032 A 
HETATM   30  C   UNK N   1      35.798   9.252  23.815  0.00  0.00     0.026 A 
HETATM   31  C   UNK N   1      34.749   9.679  24.634  0.00  0.00     0.034 A 
HETATM   32  C   UNK N   1      33.495   9.940  24.083  0.00  0.00     0.026 A 
HETATM   33 Cl   UNK N   1      35.021   9.941  26.341  0.00  0.00    -0.084 Cl
HETATM   34  C   UNK N   1      33.305   9.836  22.706  0.00  0.00     0.032 A 
ENDBRANCH   9  28
BRANCH  10  35
HETATM   35  C   UNK N   1      33.659   7.363  19.517  0.00  0.00     0.030 A 
HETATM   36  C   UNK N   1      34.694   6.451  19.287  0.00  0.00     0.017 A 
HETATM   37  C   UNK N   1      34.463   5.077  19.246  0.00  0.00     0.001 A 
HETATM   38  C   UNK N   1      33.173   4.586  19.418  0.00  0.00     0.002 A 
HETATM   39  C   UNK N   1      32.118   5.467  19.639  0.00  0.00     0.025 A 
HETATM   40  C   UNK N   1      32.340   6.847  19.684  0.00  0.00     0.048 A 
HETATM   41 Cl   UNK N   1      30.932   7.865  19.979  0.00  0.00    -0.083 Cl
ENDBRANCH  10  35
TORSDOF 6
ENDMDL
MODEL 8
REMARK VINA RESULT:      -7.5      3.782      8.406
REMARK  6 active torsions:
REMARK  status: ('A' for Active; 'I' for Inactive)
REMARK    1  A    between atoms: C_2  and  N_3 
REMARK    2  A    between atoms: N_3  and  C_4 
REMARK    3  A    between atoms: C_4  and  C_36 
REMARK    4  A    between atoms: N_7  and  C_10 
REMARK    5  A    between atoms: N_18  and  C_29 
REMARK    6  A    between atoms: C_19  and  C_22 
REMARK       I    between atoms: C_36  and  N_38 
ROOT
HETATM    1  C   UNK N   1      28.625  17.663   5.081  0.00  0.00     0.135 C 
HETATM    2  C   UNK N   1      27.457  17.243   4.461  0.00  0.00     0.123 A 
HETATM    3  C   UNK N   1      26.270  17.750   4.811  0.00  0.00     0.146 A 
HETATM    4  N   UNK N   1      26.163  18.779   5.687  0.00  0.00    -0.336 N 
ATOM      5  HN  UNK N   1      25.249  19.146   5.956  1.00  0.00     0.168 HD
HETATM    6  C   UNK N   1      27.321  19.312   6.204  0.00  0.00     0.183 C 
HETATM    7  N   UNK N   1      28.544  18.731   5.930  0.00  0.00    -0.337 N 
ATOM      8  HN  UNK N   1      29.389  19.101   6.364  1.00  0.00     0.168 HD
HETATM    9  N   UNK N   1      25.290  17.002   4.250  0.00  0.00    -0.281 N 
HETATM   10  C   UNK N   1      25.967  16.083   3.476  0.00  0.00     0.126 A 
HETATM   11  N   UNK N   1      27.298  16.237   3.601  0.00  0.00    -0.335 N 
ATOM     12  HN  UNK N   1      28.029  15.699   3.137  1.00  0.00     0.168 HD
ENDROOT
BRANCH   1  13
HETATM   13  N   UNK N   1      29.809  16.871   4.963  0.00  0.00    -0.365 N 
HETATM   14  C   UNK N   1      30.770  17.203   3.936  0.00  0.00     0.127 C 
HETATM   15  C   UNK N   1      32.085  17.563   4.586  0.00  0.00     0.060 C 
HETATM   16  C   UNK N   1      32.350  16.780   5.888  0.00  0.00     0.110 C 
HETATM   17  C   UNK N   1      31.594  15.421   5.811  0.00  0.00     0.060 C 
HETATM   18  C   UNK N   1      30.056  15.667   5.731  0.00  0.00     0.127 C 
BRANCH  16  19
HETATM   19  N   UNK N   1      31.807  17.573   7.014  0.00  0.00    -0.405 N 
HETATM   20  H   UNK N   1      31.514  18.545   6.914  0.00  0.00     0.154 HD
BRANCH  19  21
HETATM   21  C   UNK N   1      31.727  16.844   8.285  0.00  0.00     0.110 C 
HETATM   22  C   UNK N   1      30.463  17.170   9.066  0.00  0.00     0.026 C 
ENDBRANCH  19  21
ENDBRANCH  16  19
BRANCH  16  23
HETATM   23  C   UNK N   1      33.862  16.615   5.999  0.00  0.00     0.243 C 
HETATM   24  O   UNK N   1      34.562  17.534   6.405  0.00  0.00    -0.271 OA
HETATM   25  N   UNK N   1      34.449  15.452   5.661  0.00  0.00    -0.368 N 
HETATM   26  H   UNK N   1      35.377  15.252   5.923  0.00  0.00     0.159 HD
HETATM   27  H   UNK N   1      33.940  14.787   5.141  0.00  0.00     0.159 HD
ENDBRANCH  16  23
ENDBRANCH   1  13
BRANCH   9  28
HETATM   28  C   UNK N   1      23.894  17.041   4.604  0.00  0.00     0.043 A 
HETATM   29  C   UNK N   1      22.953  17.712   3.813  0.00  0.00     0.032 A 
HETATM   30  C   UNK N   1      21.587  17.469   3.979  0.00  0.00     0.026 A 
HETATM   31  C   UNK N   1      21.156  16.544   4.934  0.00  0.00     0.034 A 
HETATM   32  C   UNK N   1      22.082  15.920   5.769  0.00  0.00     0.026 A 
HETATM   33 Cl   UNK N   1      19.463  16.125   5.046  0.00  0.00    -0.084 Cl
HETATM   34  C   UNK N   1      23.444  16.172   5.608  0.00  0.00     0.032 A 
ENDBRANCH   9  28
BRANCH  10  35
HETATM   35  C   UNK N   1      25.453  14.856   2.788  0.00  0.00     0.030 A 
HETATM   36  C   UNK N   1      24.952  14.938   1.484  0.00  0.00     0.017 A 
HETATM   37  C   UNK N   1      24.370  13.840   0.854  0.00  0.00     0.001 A 
HETATM   38  C   UNK N   1      24.260  12.630   1.531  0.00  0.00     0.002 A 
HETATM   39  C   UNK N   1      24.739  12.517   2.833  0.00  0.00     0.025 A 
HETATM   40  C   UNK N   1      25.327  13.612   3.474  0.00  0.00     0.048 A 
HETATM   41 Cl   UNK N   1      25.905  13.350   5.117  0.00  0.00    -0.083 Cl
ENDBRANCH  10  35
TORSDOF 6
ENDMDL
MODEL 9
REMARK VINA RESULT:      -7.5      4.486      6.935
REMARK  6 active torsions:
REMARK  status: ('A' for Active; 'I' for Inactive)
REMARK    1  A    between atoms: C_2  and  N_3 
REMARK    2  A    between atoms: N_3  and  C_4 
REMARK    3  A    between atoms: C_4  and  C_36 
REMARK    4  A    between atoms: N_7  and  C_10 
REMARK    5  A    between atoms: N_18  and  C_29 
REMARK    6  A    between atoms: C_19  and  C_22 
REMARK       I    between atoms: C_36  and  N_38 
ROOT
HETATM    1  C   UNK N   1      34.221  16.307   9.415  0.00  0.00     0.135 C 
HETATM    2  C   UNK N   1      34.726  15.065   9.057  0.00  0.00     0.123 A 
HETATM    3  C   UNK N   1      35.782  14.541   9.688  0.00  0.00     0.146 A 
HETATM    4  N   UNK N   1      36.326  15.131  10.781  0.00  0.00    -0.336 N 
ATOM      5  HN  UNK N   1      37.141  14.728  11.245  1.00  0.00     0.168 HD
HETATM    6  C   UNK N   1      35.747  16.290  11.246  0.00  0.00     0.183 C 
HETATM    7  N   UNK N   1      34.724  16.894  10.543  0.00  0.00    -0.337 N 
ATOM      8  HN  UNK N   1      34.341  17.782  10.867  1.00  0.00     0.168 HD
HETATM    9  N   UNK N   1      36.222  13.466   8.991  0.00  0.00    -0.281 N 
HETATM   10  C   UNK N   1      35.310  13.333   7.965  0.00  0.00     0.126 A 
HETATM   11  N   UNK N   1      34.388  14.311   8.011  0.00  0.00    -0.335 N 
ATOM     12  HN  UNK N   1      33.598  14.446   7.380  1.00  0.00     0.168 HD
ENDROOT
BRANCH   1  13
HETATM   13  N   UNK N   1      33.352  17.000   8.517  0.00  0.00    -0.365 N 
HETATM   14  C   UNK N   1      33.889  18.081   7.723  0.00  0.00     0.127 C 
HETATM   15  C   UNK N   1      33.752  17.736   6.259  0.00  0.00     0.060 C 
HETATM   16  C   UNK N   1      32.499  16.892   5.952  0.00  0.00     0.110 C 
HETATM   17  C   UNK N   1      31.416  17.205   7.028  0.00  0.00     0.060 C 
HETATM   18  C   UNK N   1      31.923  16.773   8.438  0.00  0.00     0.127 C 
BRANCH  16  19
HETATM   19  N   UNK N   1      32.877  15.465   6.045  0.00  0.00    -0.405 N 
HETATM   20  H   UNK N   1      33.757  15.152   6.457  0.00  0.00     0.154 HD
BRANCH  19  21
HETATM   21  C   UNK N   1      31.880  14.537   5.498  0.00  0.00     0.110 C 
HETATM   22  C   UNK N   1      32.502  13.469   4.610  0.00  0.00     0.026 C 
ENDBRANCH  19  21
ENDBRANCH  16  19
BRANCH  16  23
HETATM   23  C   UNK N   1      32.058  17.263   4.539  0.00  0.00     0.243 C 
HETATM   24  O   UNK N   1      32.838  17.174   3.599  0.00  0.00    -0.271 OA
HETATM   25  N   UNK N   1      30.802  17.683   4.303  0.00  0.00    -0.368 N 
HETATM   26  H   UNK N   1      30.437  17.720   3.389  0.00  0.00     0.159 HD
HETATM   27  H   UNK N   1      30.235  17.959   5.060  0.00  0.00     0.159 HD
ENDBRANCH  16  23
ENDBRANCH   1  13
BRANCH   9  28
HETATM   28  C   UNK N   1      37.488  12.805   9.176  0.00  0.00     0.043 A 
HETATM   29  C   UNK N   1      37.578  11.545   9.782  0.00  0.00     0.032 A 
HETATM   30  C   UNK N   1      38.742  10.783   9.659  0.00  0.00     0.026 A 
HETATM   31  C   UNK N   1      39.821  11.273   8.919  0.00  0.00     0.034 A 
HETATM   32  C   UNK N   1      39.764  12.552   8.366  0.00  0.00     0.026 A 
HETATM   33 Cl   UNK N   1      41.220  10.265   8.635  0.00  0.00    -0.084 Cl
HETATM   34  C   UNK N   1      38.605  13.316   8.500  0.00  0.00     0.032 A 
ENDBRANCH   9  28
BRANCH  10  35
HETATM   35  C   UNK N   1      35.375  12.469   6.742  0.00  0.00     0.030 A 
HETATM   36  C   UNK N   1      34.790  11.198   6.747  0.00  0.00     0.017 A 
HETATM   37  C   UNK N   1      34.922  10.329   5.666  0.00  0.00     0.001 A 
HETATM   38  C   UNK N   1      35.665  10.713   4.554  0.00  0.00     0.002 A 
HETATM   39  C   UNK N   1      36.268  11.967   4.522  0.00  0.00     0.025 A 
HETATM   40  C   UNK N   1      36.141  12.848   5.600  0.00  0.00     0.048 A 
HETATM   41 Cl   UNK N   1      36.939  14.410   5.444  0.00  0.00    -0.083 Cl
ENDBRANCH  10  35
TORSDOF 6
ENDMDL
