REMARK  6 active torsions:
REMARK  status: ('A' for Active; 'I' for Inactive)
REMARK    1  A    between atoms: C_6  and  C_8 
REMARK    2  A    between atoms: C_9  and  C_8 
REMARK    3  A    between atoms: C_11  and  C_16 
REMARK    4  A    between atoms: C_19  and  O_28 
REMARK    5  A    between atoms: C_20  and  O_22 
REMARK    6  A    between atoms: O_22  and  C_23 
ROOT
HETATM    1  C   UNK N   1      -1.235   2.241   0.700  0.00  0.00     0.083 C 
HETATM    2  C   UNK N   1      -0.911   2.821  -0.668  0.00  0.00     0.025 C 
HETATM    3  C   UNK N   1       0.389   2.250  -1.231  0.00  0.00     0.037 C 
HETATM    4  C   UNK N   1       0.335   0.715  -1.306  0.00  0.00     0.132 C 
HETATM    5  N   UNK N   1      -0.269   0.089  -0.143  0.00  0.00    -0.360 N 
HETATM    6  C   UNK N   1      -1.000   0.749   0.797  0.00  0.00     0.222 C 
HETATM    7  O   UNK N   1      -1.441   0.133   1.750  0.00  0.00    -0.273 OA
HETATM    8  H   UNK N   1      -0.141  -0.880  -0.026  0.00  0.00     0.162 HD
ENDROOT
BRANCH   3   9
HETATM    9  C   UNK N   1       1.681   2.833  -0.688  0.00  0.00    -0.050 A 
HETATM   10  C   UNK N   1       1.819   4.215  -0.522  0.00  0.00     0.010 A 
HETATM   11  C   UNK N   1       3.047   4.764  -0.136  0.00  0.00     0.040 A 
HETATM   12  C   UNK N   1       4.175   3.954   0.061  0.00  0.00     0.101 A 
HETATM   13  C   UNK N   1       4.048   2.549  -0.115  0.00  0.00     0.103 A 
HETATM   14  C   UNK N   1       2.798   2.018  -0.488  0.00  0.00     0.047 A 
BRANCH  12  15
HETATM   15  O   UNK N   1       5.341   4.571   0.395  0.00  0.00    -0.353 OA
HETATM   16  C   UNK N   1       6.563   3.953   0.529  0.00  0.00     0.210 C 
ENDBRANCH  12  15
BRANCH  13  17
HETATM   17  O   UNK N   1       5.115   1.719   0.047  0.00  0.00    -0.343 OA
BRANCH  17  18
HETATM   18  C   UNK N   1       5.050   0.360  -0.207  0.00  0.00     0.129 C 
HETATM   19  C   UNK N   1       6.390  -0.311  -0.083  0.00  0.00     0.032 C 
HETATM   20  C   UNK N   1       6.033  -1.780   0.077  0.00  0.00     0.002 C 
HETATM   21  C   UNK N   1       4.615  -1.818   0.635  0.00  0.00     0.002 C 
HETATM   22  C   UNK N   1       4.192  -0.374   0.797  0.00  0.00     0.032 C 
ENDBRANCH  17  18
ENDBRANCH  13  17
ENDBRANCH   3   9
BRANCH   1  23
HETATM   23  C   UNK N   1      -2.597   2.702   1.251  0.00  0.00     0.052 C 
BRANCH  23  24
HETATM   24  C   UNK N   1      -3.843   2.263   0.526  0.00  0.00    -0.057 A 
HETATM   25  C   UNK N   1      -4.918   3.156   0.428  0.00  0.00     0.007 A 
HETATM   26  C   UNK N   1      -6.128   2.748  -0.144  0.00  0.00     0.001 A 
HETATM   27  C   UNK N   1      -6.271   1.441  -0.617  0.00  0.00     0.007 A 
HETATM   28  C   UNK N   1      -5.205   0.543  -0.520  0.00  0.00    -0.061 A 
HETATM   29  C   UNK N   1      -5.358  -0.848  -1.021  0.00  0.00     0.048 C 
HETATM   30  C   UNK N   1      -3.998   0.949   0.061  0.00  0.00     0.013 A 
ENDBRANCH  23  24
ENDBRANCH   1  23
TORSDOF 6
