MODEL 1
REMARK VINA RESULT:      -6.5      0.000      0.000
REMARK  7 active torsions:
REMARK  status: ('A' for Active; 'I' for Inactive)
REMARK    1  A    between atoms: C_15  and  C_3 
REMARK    2  A    between atoms: C_16  and  C_4 
REMARK    3  A    between atoms: C_6  and  C_5 
REMARK    4  A    between atoms: N_22  and  C_5 
REMARK    5  A    between atoms: O_23  and  C_6 
REMARK    6  A    between atoms: O_24  and  C_14 
REMARK    7  A    between atoms: O_24  and  C_17 
ROOT
HETATM    1  C   UNK N   1      33.716  17.353   5.652  0.00  0.00     0.044 C 
HETATM    2  C   UNK N   1      32.305  17.116   7.592  0.00  0.00     0.032 C 
HETATM    3  C   UNK N   1      31.780  15.931   5.583  0.00  0.00     0.032 C 
HETATM    4  C   UNK N   1      34.375  18.356   7.805  0.00  0.00     0.099 C 
HETATM    5  C   UNK N   1      33.256  16.068   3.627  0.00  0.00     0.099 C 
HETATM    6  C   UNK N   1      33.468  17.590   7.014  0.00  0.00     0.045 C 
HETATM    7  C   UNK N   1      32.904  16.449   4.959  0.00  0.00     0.045 C 
HETATM    8  C   UNK N   1      31.359  16.616   6.729  0.00  0.00     0.177 C 
HETATM    9  N   UNK N   1      35.103  18.975   8.455  0.00  0.00    -0.191 NA
HETATM   10  N   UNK N   1      33.577  15.789   2.552  0.00  0.00    -0.191 NA
ENDROOT
BRANCH   8  11
HETATM   11  O   UNK N   1      30.444  17.568   6.440  0.00  0.00    -0.334 OA
BRANCH  11  12
HETATM   12  C   UNK N   1      29.150  17.284   6.559  0.00  0.00     0.118 A 
HETATM   13  C   UNK N   1      28.320  17.183   7.676  0.00  0.00     0.061 A 
HETATM   14  N   UNK N   1      27.051  17.161   7.229  0.00  0.00    -0.300 N 
HETATM   15  N   UNK N   1      27.080  17.237   5.903  0.00  0.00    -0.291 N 
ATOM     16  HN  UNK N   1      26.213  17.097   7.807  1.00  0.00     0.187 HD
HETATM   17  C   UNK N   1      28.359  17.290   5.483  0.00  0.00     0.063 A 
BRANCH  13  18
HETATM   18  C   UNK N   1      28.680  17.270   9.135  0.00  0.00     0.057 C 
HETATM   19  C   UNK N   1      29.363  18.600   9.453  0.00  0.00     0.011 C 
ENDBRANCH  13  18
BRANCH  15  20
HETATM   20  C   UNK N   1      25.864  17.345   5.111  0.00  0.00     0.175 C 
BRANCH  20  21
HETATM   21  C   UNK N   1      25.475  18.774   4.794  0.00  0.00     0.185 C 
BRANCH  21  22
HETATM   22  O   UNK N   1      25.672  19.548   5.929  0.00  0.00    -0.399 OA
HETATM   23  H   UNK N   1      25.524  20.507   5.913  0.00  0.00     0.209 HD
ENDBRANCH  21  22
ENDBRANCH  20  21
ENDBRANCH  15  20
BRANCH  17  24
HETATM   24  C   UNK N   1      28.878  17.518   4.093  0.00  0.00     0.057 C 
HETATM   25  C   UNK N   1      28.888  16.235   3.283  0.00  0.00     0.011 C 
ENDBRANCH  17  24
ENDBRANCH  11  12
ENDBRANCH   8  11
TORSDOF 7
ENDMDL
MODEL 2
REMARK VINA RESULT:      -6.0      8.658      9.980
REMARK  7 active torsions:
REMARK  status: ('A' for Active; 'I' for Inactive)
REMARK    1  A    between atoms: C_15  and  C_3 
REMARK    2  A    between atoms: C_16  and  C_4 
REMARK    3  A    between atoms: C_6  and  C_5 
REMARK    4  A    between atoms: N_22  and  C_5 
REMARK    5  A    between atoms: O_23  and  C_6 
REMARK    6  A    between atoms: O_24  and  C_14 
REMARK    7  A    between atoms: O_24  and  C_17 
ROOT
HETATM    1  C   UNK N   1      23.462  11.672   9.663  0.00  0.00     0.044 C 
HETATM    2  C   UNK N   1      21.568  12.911  10.492  0.00  0.00     0.032 C 
HETATM    3  C   UNK N   1      21.687  12.319   8.179  0.00  0.00     0.032 C 
HETATM    4  C   UNK N   1      23.192  12.069  12.080  0.00  0.00     0.099 C 
HETATM    5  C   UNK N   1      23.549  10.968   7.327  0.00  0.00     0.099 C 
HETATM    6  C   UNK N   1      22.731  12.204  10.737  0.00  0.00     0.045 C 
HETATM    7  C   UNK N   1      22.889  11.663   8.387  0.00  0.00     0.045 C 
HETATM    8  C   UNK N   1      21.316  13.227   9.178  0.00  0.00     0.177 C 
HETATM    9  N   UNK N   1      23.556  11.965  13.173  0.00  0.00    -0.191 NA
HETATM   10  N   UNK N   1      24.117  10.394   6.498  0.00  0.00    -0.191 NA
ENDROOT
BRANCH   8  11
HETATM   11  O   UNK N   1      21.751  14.478   8.910  0.00  0.00    -0.334 OA
BRANCH  11  12
HETATM   12  C   UNK N   1      21.054  15.244   8.075  0.00  0.00     0.118 A 
HETATM   13  C   UNK N   1      19.844  15.922   8.227  0.00  0.00     0.061 A 
HETATM   14  N   UNK N   1      19.731  16.774   7.190  0.00  0.00    -0.300 N 
HETATM   15  N   UNK N   1      20.807  16.634   6.423  0.00  0.00    -0.291 N 
ATOM     16  HN  UNK N   1      18.956  17.415   7.022  1.00  0.00     0.187 HD
HETATM   17  C   UNK N   1      21.610  15.686   6.944  0.00  0.00     0.063 A 
BRANCH  13  18
HETATM   18  C   UNK N   1      18.888  15.906   9.389  0.00  0.00     0.057 C 
HETATM   19  C   UNK N   1      17.951  17.114   9.346  0.00  0.00     0.011 C 
ENDBRANCH  13  18
BRANCH  15  20
HETATM   20  C   UNK N   1      21.049  17.490   5.273  0.00  0.00     0.175 C 
BRANCH  20  21
HETATM   21  C   UNK N   1      20.416  16.978   3.996  0.00  0.00     0.185 C 
BRANCH  21  22
HETATM   22  O   UNK N   1      19.054  16.821   4.209  0.00  0.00    -0.399 OA
HETATM   23  H   UNK N   1      18.615  15.972   4.043  0.00  0.00     0.209 HD
ENDBRANCH  21  22
ENDBRANCH  20  21
ENDBRANCH  15  20
BRANCH  17  24
HETATM   24  C   UNK N   1      22.988  15.283   6.505  0.00  0.00     0.057 C 
HETATM   25  C   UNK N   1      22.942  14.256   5.390  0.00  0.00     0.011 C 
ENDBRANCH  17  24
ENDBRANCH  11  12
ENDBRANCH   8  11
TORSDOF 7
ENDMDL
MODEL 3
REMARK VINA RESULT:      -6.0     14.104     16.530
REMARK  7 active torsions:
REMARK  status: ('A' for Active; 'I' for Inactive)
REMARK    1  A    between atoms: C_15  and  C_3 
REMARK    2  A    between atoms: C_16  and  C_4 
REMARK    3  A    between atoms: C_6  and  C_5 
REMARK    4  A    between atoms: N_22  and  C_5 
REMARK    5  A    between atoms: O_23  and  C_6 
REMARK    6  A    between atoms: O_24  and  C_14 
REMARK    7  A    between atoms: O_24  and  C_17 
ROOT
HETATM    1  C   UNK N   1      26.025  23.731  -5.663  0.00  0.00     0.044 C 
HETATM    2  C   UNK N   1      26.817  24.854  -7.644  0.00  0.00     0.032 C 
HETATM    3  C   UNK N   1      27.824  25.318  -5.525  0.00  0.00     0.032 C 
HETATM    4  C   UNK N   1      25.182  23.084  -7.887  0.00  0.00     0.099 C 
HETATM    5  C   UNK N   1      27.110  24.114  -3.510  0.00  0.00     0.099 C 
HETATM    6  C   UNK N   1      26.024  23.883  -7.059  0.00  0.00     0.045 C 
HETATM    7  C   UNK N   1      26.992  24.400  -4.905  0.00  0.00     0.045 C 
HETATM    8  C   UNK N   1      27.403  25.756  -6.787  0.00  0.00     0.177 C 
HETATM    9  N   UNK N   1      24.503  22.440  -8.567  0.00  0.00    -0.191 NA
HETATM   10  N   UNK N   1      27.171  23.853  -2.385  0.00  0.00    -0.191 NA
ENDROOT
BRANCH   8  11
HETATM   11  O   UNK N   1      26.651  26.876  -6.707  0.00  0.00    -0.334 OA
BRANCH  11  12
HETATM   12  C   UNK N   1      27.194  27.991  -6.225  0.00  0.00     0.118 A 
HETATM   13  C   UNK N   1      28.152  28.859  -6.750  0.00  0.00     0.061 A 
HETATM   14  N   UNK N   1      28.133  29.975  -5.997  0.00  0.00    -0.300 N 
HETATM   15  N   UNK N   1      27.219  29.815  -5.047  0.00  0.00    -0.291 N 
ATOM     16  HN  UNK N   1      28.718  30.800  -6.133  1.00  0.00     0.187 HD
HETATM   17  C   UNK N   1      26.656  28.597  -5.165  0.00  0.00     0.063 A 
BRANCH  13  18
HETATM   18  C   UNK N   1      28.954  28.732  -8.017  0.00  0.00     0.057 C 
HETATM   19  C   UNK N   1      29.756  30.005  -8.289  0.00  0.00     0.011 C 
ENDBRANCH  13  18
BRANCH  15  20
HETATM   20  C   UNK N   1      26.871  30.886  -4.125  0.00  0.00     0.175 C 
BRANCH  20  21
HETATM   21  C   UNK N   1      27.610  30.811  -2.806  0.00  0.00     0.185 C 
BRANCH  21  22
HETATM   22  O   UNK N   1      28.871  30.278  -3.034  0.00  0.00    -0.399 OA
HETATM   23  H   UNK N   1      29.144  29.443  -2.623  0.00  0.00     0.209 HD
ENDBRANCH  21  22
ENDBRANCH  20  21
ENDBRANCH  15  20
BRANCH  17  24
HETATM   24  C   UNK N   1      25.491  28.028  -4.408  0.00  0.00     0.057 C 
HETATM   25  C   UNK N   1      25.917  27.467  -3.065  0.00  0.00     0.011 C 
ENDBRANCH  17  24
ENDBRANCH  11  12
ENDBRANCH   8  11
TORSDOF 7
ENDMDL
MODEL 4
REMARK VINA RESULT:      -5.9      2.169      4.394
REMARK  7 active torsions:
REMARK  status: ('A' for Active; 'I' for Inactive)
REMARK    1  A    between atoms: C_15  and  C_3 
REMARK    2  A    between atoms: C_16  and  C_4 
REMARK    3  A    between atoms: C_6  and  C_5 
REMARK    4  A    between atoms: N_22  and  C_5 
REMARK    5  A    between atoms: O_23  and  C_6 
REMARK    6  A    between atoms: O_24  and  C_14 
REMARK    7  A    between atoms: O_24  and  C_17 
ROOT
HETATM    1  C   UNK N   1      31.831  18.058   8.616  0.00  0.00     0.044 C 
HETATM    2  C   UNK N   1      30.590  16.487   7.274  0.00  0.00     0.032 C 
HETATM    3  C   UNK N   1      32.861  16.994   6.725  0.00  0.00     0.032 C 
HETATM    4  C   UNK N   1      29.582  17.327   9.309  0.00  0.00     0.099 C 
HETATM    5  C   UNK N   1      34.182  18.507   8.134  0.00  0.00     0.099 C 
HETATM    6  C   UNK N   1      30.682  17.280   8.403  0.00  0.00     0.045 C 
HETATM    7  C   UNK N   1      32.956  17.848   7.812  0.00  0.00     0.045 C 
HETATM    8  C   UNK N   1      31.559  16.679   6.318  0.00  0.00     0.177 C 
HETATM    9  N   UNK N   1      28.684  17.358  10.038  0.00  0.00    -0.191 NA
HETATM   10  N   UNK N   1      35.153  19.062   8.430  0.00  0.00    -0.191 NA
ENDROOT
BRANCH   8  11
HETATM   11  O   UNK N   1      31.110  17.526   5.365  0.00  0.00    -0.334 OA
BRANCH  11  12
HETATM   12  C   UNK N   1      30.398  17.046   4.350  0.00  0.00     0.118 A 
HETATM   13  C   UNK N   1      30.683  16.068   3.396  0.00  0.00     0.061 A 
HETATM   14  N   UNK N   1      29.525  15.761   2.782  0.00  0.00    -0.300 N 
HETATM   15  N   UNK N   1      28.565  16.509   3.315  0.00  0.00    -0.291 N 
ATOM     16  HN  UNK N   1      29.406  15.074   2.037  1.00  0.00     0.187 HD
HETATM   17  C   UNK N   1      29.093  17.312   4.258  0.00  0.00     0.063 A 
BRANCH  13  18
HETATM   18  C   UNK N   1      31.965  15.313   3.166  0.00  0.00     0.057 C 
HETATM   19  C   UNK N   1      33.128  16.271   2.906  0.00  0.00     0.011 C 
ENDBRANCH  13  18
BRANCH  15  20
HETATM   20  C   UNK N   1      27.168  16.344   2.947  0.00  0.00     0.175 C 
BRANCH  20  21
HETATM   21  C   UNK N   1      26.434  15.330   3.798  0.00  0.00     0.185 C 
BRANCH  21  22
HETATM   22  O   UNK N   1      27.249  14.218   3.962  0.00  0.00    -0.399 OA
HETATM   23  H   UNK N   1      27.117  13.417   3.431  0.00  0.00     0.209 HD
ENDBRANCH  21  22
ENDBRANCH  20  21
ENDBRANCH  15  20
BRANCH  17  24
HETATM   24  C   UNK N   1      28.381  18.225   5.215  0.00  0.00     0.057 C 
HETATM   25  C   UNK N   1      28.072  19.568   4.581  0.00  0.00     0.011 C 
ENDBRANCH  17  24
ENDBRANCH  11  12
ENDBRANCH   8  11
TORSDOF 7
ENDMDL
MODEL 5
REMARK VINA RESULT:      -5.8      1.983      3.683
REMARK  7 active torsions:
REMARK  status: ('A' for Active; 'I' for Inactive)
REMARK    1  A    between atoms: C_15  and  C_3 
REMARK    2  A    between atoms: C_16  and  C_4 
REMARK    3  A    between atoms: C_6  and  C_5 
REMARK    4  A    between atoms: N_22  and  C_5 
REMARK    5  A    between atoms: O_23  and  C_6 
REMARK    6  A    between atoms: O_24  and  C_14 
REMARK    7  A    between atoms: O_24  and  C_17 
ROOT
HETATM    1  C   UNK N   1      31.631  17.647   7.599  0.00  0.00     0.044 C 
HETATM    2  C   UNK N   1      29.315  17.169   7.128  0.00  0.00     0.032 C 
HETATM    3  C   UNK N   1      31.022  16.369   5.658  0.00  0.00     0.032 C 
HETATM    4  C   UNK N   1      29.878  18.237   9.228  0.00  0.00     0.099 C 
HETATM    5  C   UNK N   1      33.393  16.749   6.167  0.00  0.00     0.099 C 
HETATM    6  C   UNK N   1      30.281  17.667   7.984  0.00  0.00     0.045 C 
HETATM    7  C   UNK N   1      32.005  16.920   6.464  0.00  0.00     0.045 C 
HETATM    8  C   UNK N   1      29.731  16.875   5.851  0.00  0.00     0.177 C 
HETATM    9  N   UNK N   1      29.541  18.697  10.234  0.00  0.00    -0.191 NA
HETATM   10  N   UNK N   1      34.526  16.636   5.964  0.00  0.00    -0.191 NA
ENDROOT
BRANCH   8  11
HETATM   11  O   UNK N   1      29.467  17.912   5.026  0.00  0.00    -0.334 OA
BRANCH  11  12
HETATM   12  C   UNK N   1      28.322  17.929   4.349  0.00  0.00     0.118 A 
HETATM   13  C   UNK N   1      27.593  16.914   3.732  0.00  0.00     0.061 A 
HETATM   14  N   UNK N   1      26.377  17.414   3.443  0.00  0.00    -0.300 N 
HETATM   15  N   UNK N   1      26.345  18.678   3.850  0.00  0.00    -0.291 N 
ATOM     16  HN  UNK N   1      25.613  16.911   2.991  1.00  0.00     0.187 HD
HETATM   17  C   UNK N   1      27.537  19.009   4.384  0.00  0.00     0.063 A 
BRANCH  13  18
HETATM   18  C   UNK N   1      27.949  15.461   3.558  0.00  0.00     0.057 C 
HETATM   19  C   UNK N   1      29.012  15.282   2.474  0.00  0.00     0.011 C 
ENDBRANCH  13  18
BRANCH  15  20
HETATM   20  C   UNK N   1      25.132  19.478   3.783  0.00  0.00     0.175 C 
BRANCH  20  21
HETATM   21  C   UNK N   1      23.897  18.743   4.256  0.00  0.00     0.185 C 
BRANCH  21  22
HETATM   22  O   UNK N   1      24.193  18.103   5.451  0.00  0.00    -0.399 OA
HETATM   23  H   UNK N   1      25.069  18.186   5.860  0.00  0.00     0.209 HD
ENDBRANCH  21  22
ENDBRANCH  20  21
ENDBRANCH  15  20
BRANCH  17  24
HETATM   24  C   UNK N   1      27.926  20.274   5.093  0.00  0.00     0.057 C 
HETATM   25  C   UNK N   1      27.411  20.296   6.519  0.00  0.00     0.011 C 
ENDBRANCH  17  24
ENDBRANCH  11  12
ENDBRANCH   8  11
TORSDOF 7
ENDMDL
MODEL 6
REMARK VINA RESULT:      -5.7      2.697      6.150
REMARK  7 active torsions:
REMARK  status: ('A' for Active; 'I' for Inactive)
REMARK    1  A    between atoms: C_15  and  C_3 
REMARK    2  A    between atoms: C_16  and  C_4 
REMARK    3  A    between atoms: C_6  and  C_5 
REMARK    4  A    between atoms: N_22  and  C_5 
REMARK    5  A    between atoms: O_23  and  C_6 
REMARK    6  A    between atoms: O_24  and  C_14 
REMARK    7  A    between atoms: O_24  and  C_17 
ROOT
HETATM    1  C   UNK N   1      31.460  15.643   3.185  0.00  0.00     0.044 C 
HETATM    2  C   UNK N   1      31.051  17.261   4.924  0.00  0.00     0.032 C 
HETATM    3  C   UNK N   1      33.293  16.633   4.382  0.00  0.00     0.032 C 
HETATM    4  C   UNK N   1      29.182  16.495   3.586  0.00  0.00     0.099 C 
HETATM    5  C   UNK N   1      33.746  15.069   2.546  0.00  0.00     0.099 C 
HETATM    6  C   UNK N   1      30.576  16.477   3.889  0.00  0.00     0.045 C 
HETATM    7  C   UNK N   1      32.837  15.787   3.384  0.00  0.00     0.045 C 
HETATM    8  C   UNK N   1      32.338  17.009   5.335  0.00  0.00     0.177 C 
HETATM    9  N   UNK N   1      28.051  16.518   3.349  0.00  0.00    -0.191 NA
HETATM   10  N   UNK N   1      34.445  14.469   1.847  0.00  0.00    -0.191 NA
ENDROOT
BRANCH   8  11
HETATM   11  O   UNK N   1      32.332  16.176   6.399  0.00  0.00    -0.334 OA
BRANCH  11  12
HETATM   12  C   UNK N   1      33.019  16.507   7.489  0.00  0.00     0.118 A 
HETATM   13  C   UNK N   1      32.774  17.444   8.493  0.00  0.00     0.061 A 
HETATM   14  N   UNK N   1      33.622  17.177   9.503  0.00  0.00    -0.300 N 
HETATM   15  N   UNK N   1      34.367  16.135   9.151  0.00  0.00    -0.291 N 
ATOM     16  HN  UNK N   1      33.683  17.687  10.385  1.00  0.00     0.187 HD
HETATM   17  C   UNK N   1      34.021  15.732   7.913  0.00  0.00     0.063 A 
BRANCH  13  18
HETATM   18  C   UNK N   1      31.669  18.461   8.590  0.00  0.00     0.057 C 
HETATM   19  C   UNK N   1      30.317  17.784   8.821  0.00  0.00     0.011 C 
ENDBRANCH  13  18
BRANCH  15  20
HETATM   20  C   UNK N   1      35.315  15.522  10.068  0.00  0.00     0.175 C 
BRANCH  20  21
HETATM   21  C   UNK N   1      34.670  14.954  11.315  0.00  0.00     0.185 C 
BRANCH  21  22
HETATM   22  O   UNK N   1      33.296  14.918  11.125  0.00  0.00    -0.399 OA
HETATM   23  H   UNK N   1      32.738  15.679  11.352  0.00  0.00     0.209 HD
ENDBRANCH  21  22
ENDBRANCH  20  21
ENDBRANCH  15  20
BRANCH  17  24
HETATM   24  C   UNK N   1      34.487  14.521   7.159  0.00  0.00     0.057 C 
HETATM   25  C   UNK N   1      35.718  14.821   6.325  0.00  0.00     0.011 C 
ENDBRANCH  17  24
ENDBRANCH  11  12
ENDBRANCH   8  11
TORSDOF 7
ENDMDL
MODEL 7
REMARK VINA RESULT:      -5.7      2.319      5.828
REMARK  7 active torsions:
REMARK  status: ('A' for Active; 'I' for Inactive)
REMARK    1  A    between atoms: C_15  and  C_3 
REMARK    2  A    between atoms: C_16  and  C_4 
REMARK    3  A    between atoms: C_6  and  C_5 
REMARK    4  A    between atoms: N_22  and  C_5 
REMARK    5  A    between atoms: O_23  and  C_6 
REMARK    6  A    between atoms: O_24  and  C_14 
REMARK    7  A    between atoms: O_24  and  C_17 
ROOT
HETATM    1  C   UNK N   1      26.670  18.287   4.671  0.00  0.00     0.044 C 
HETATM    2  C   UNK N   1      28.807  19.078   5.457  0.00  0.00     0.032 C 
HETATM    3  C   UNK N   1      28.697  17.183   4.003  0.00  0.00     0.032 C 
HETATM    4  C   UNK N   1      26.829  20.383   5.957  0.00  0.00     0.099 C 
HETATM    5  C   UNK N   1      26.546  16.420   3.101  0.00  0.00     0.099 C 
HETATM    6  C   UNK N   1      27.439  19.249   5.344  0.00  0.00     0.045 C 
HETATM    7  C   UNK N   1      27.318  17.293   3.929  0.00  0.00     0.045 C 
HETATM    8  C   UNK N   1      29.298  17.851   5.078  0.00  0.00     0.177 C 
HETATM    9  N   UNK N   1      26.343  21.306   6.457  0.00  0.00    -0.191 NA
HETATM   10  N   UNK N   1      25.884  15.735   2.446  0.00  0.00    -0.191 NA
ENDROOT
BRANCH   8  11
HETATM   11  O   UNK N   1      29.432  17.049   6.158  0.00  0.00    -0.334 OA
BRANCH  11  12
HETATM   12  C   UNK N   1      30.321  17.365   7.096  0.00  0.00     0.118 A 
HETATM   13  C   UNK N   1      30.172  17.923   8.366  0.00  0.00     0.061 A 
HETATM   14  N   UNK N   1      31.345  17.767   9.009  0.00  0.00    -0.300 N 
HETATM   15  N   UNK N   1      32.187  17.153   8.186  0.00  0.00    -0.291 N 
ATOM     16  HN  UNK N   1      31.550  18.069   9.962  1.00  0.00     0.187 HD
HETATM   17  C   UNK N   1      31.578  16.923   7.007  0.00  0.00     0.063 A 
BRANCH  13  18
HETATM   18  C   UNK N   1      28.927  18.441   9.034  0.00  0.00     0.057 C 
HETATM   19  C   UNK N   1      27.864  17.347   9.138  0.00  0.00     0.011 C 
ENDBRANCH  13  18
BRANCH  15  20
HETATM   20  C   UNK N   1      33.514  16.737   8.613  0.00  0.00     0.175 C 
BRANCH  20  21
HETATM   21  C   UNK N   1      34.608  17.708   8.220  0.00  0.00     0.185 C 
BRANCH  21  22
HETATM   22  O   UNK N   1      34.071  18.987   8.182  0.00  0.00    -0.399 OA
HETATM   23  H   UNK N   1      33.547  19.333   8.922  0.00  0.00     0.209 HD
ENDBRANCH  21  22
ENDBRANCH  20  21
ENDBRANCH  15  20
BRANCH  17  24
HETATM   24  C   UNK N   1      32.083  16.141   5.830  0.00  0.00     0.057 C 
HETATM   25  C   UNK N   1      32.907  17.006   4.896  0.00  0.00     0.011 C 
ENDBRANCH  17  24
ENDBRANCH  11  12
ENDBRANCH   8  11
TORSDOF 7
ENDMDL
MODEL 8
REMARK VINA RESULT:      -5.7      2.822      6.635
REMARK  7 active torsions:
REMARK  status: ('A' for Active; 'I' for Inactive)
REMARK    1  A    between atoms: C_15  and  C_3 
REMARK    2  A    between atoms: C_16  and  C_4 
REMARK    3  A    between atoms: C_6  and  C_5 
REMARK    4  A    between atoms: N_22  and  C_5 
REMARK    5  A    between atoms: O_23  and  C_6 
REMARK    6  A    between atoms: O_24  and  C_14 
REMARK    7  A    between atoms: O_24  and  C_17 
ROOT
HETATM    1  C   UNK N   1      25.753  20.876   5.445  0.00  0.00     0.044 C 
HETATM    2  C   UNK N   1      27.668  20.420   6.836  0.00  0.00     0.032 C 
HETATM    3  C   UNK N   1      27.728  19.880   4.508  0.00  0.00     0.032 C 
HETATM    4  C   UNK N   1      25.812  21.655   7.783  0.00  0.00     0.099 C 
HETATM    5  C   UNK N   1      25.835  20.429   3.046  0.00  0.00     0.099 C 
HETATM    6  C   UNK N   1      26.420  20.993   6.675  0.00  0.00     0.045 C 
HETATM    7  C   UNK N   1      26.450  20.386   4.336  0.00  0.00     0.045 C 
HETATM    8  C   UNK N   1      28.085  19.582   5.829  0.00  0.00     0.177 C 
HETATM    9  N   UNK N   1      25.328  22.190   8.687  0.00  0.00    -0.191 NA
HETATM   10  N   UNK N   1      25.300  20.483   2.022  0.00  0.00    -0.191 NA
ENDROOT
BRANCH   8  11
HETATM   11  O   UNK N   1      27.810  18.298   6.148  0.00  0.00    -0.334 OA
BRANCH  11  12
HETATM   12  C   UNK N   1      28.806  17.421   6.233  0.00  0.00     0.118 A 
HETATM   13  C   UNK N   1      29.595  16.814   5.255  0.00  0.00     0.061 A 
HETATM   14  N   UNK N   1      30.638  16.239   5.884  0.00  0.00    -0.300 N 
HETATM   15  N   UNK N   1      30.508  16.465   7.187  0.00  0.00    -0.291 N 
ATOM     16  HN  UNK N   1      31.395  15.721   5.438  1.00  0.00     0.187 HD
HETATM   17  C   UNK N   1      29.381  17.167   7.411  0.00  0.00     0.063 A 
BRANCH  13  18
HETATM   18  C   UNK N   1      29.482  16.902   3.757  0.00  0.00     0.057 C 
HETATM   19  C   UNK N   1      30.799  16.518   3.083  0.00  0.00     0.011 C 
ENDBRANCH  13  18
BRANCH  15  20
HETATM   20  C   UNK N   1      31.530  16.067   8.142  0.00  0.00     0.175 C 
BRANCH  20  21
HETATM   21  C   UNK N   1      32.817  16.853   8.012  0.00  0.00     0.185 C 
BRANCH  21  22
HETATM   22  O   UNK N   1      33.262  17.187   9.283  0.00  0.00    -0.399 OA
HETATM   23  H   UNK N   1      33.940  16.658   9.733  0.00  0.00     0.209 HD
ENDBRANCH  21  22
ENDBRANCH  20  21
ENDBRANCH  15  20
BRANCH  17  24
HETATM   24  C   UNK N   1      28.893  17.766   8.699  0.00  0.00     0.057 C 
HETATM   25  C   UNK N   1      29.872  18.785   9.248  0.00  0.00     0.011 C 
ENDBRANCH  17  24
ENDBRANCH  11  12
ENDBRANCH   8  11
TORSDOF 7
ENDMDL
MODEL 9
REMARK VINA RESULT:      -5.7      2.506      4.251
REMARK  7 active torsions:
REMARK  status: ('A' for Active; 'I' for Inactive)
REMARK    1  A    between atoms: C_15  and  C_3 
REMARK    2  A    between atoms: C_16  and  C_4 
REMARK    3  A    between atoms: C_6  and  C_5 
REMARK    4  A    between atoms: N_22  and  C_5 
REMARK    5  A    between atoms: O_23  and  C_6 
REMARK    6  A    between atoms: O_24  and  C_14 
REMARK    7  A    between atoms: O_24  and  C_17 
ROOT
HETATM    1  C   UNK N   1      34.231  15.876   8.555  0.00  0.00     0.044 C 
HETATM    2  C   UNK N   1      33.274  14.480   6.839  0.00  0.00     0.032 C 
HETATM    3  C   UNK N   1      33.574  16.819   6.445  0.00  0.00     0.032 C 
HETATM    4  C   UNK N   1      34.149  13.429   8.838  0.00  0.00     0.099 C 
HETATM    5  C   UNK N   1      34.643  18.245   8.131  0.00  0.00     0.099 C 
HETATM    6  C   UNK N   1      33.898  14.602   8.067  0.00  0.00     0.045 C 
HETATM    7  C   UNK N   1      34.140  16.979   7.699  0.00  0.00     0.045 C 
HETATM    8  C   UNK N   1      32.828  15.647   6.266  0.00  0.00     0.177 C 
HETATM    9  N   UNK N   1      34.348  12.472   9.455  0.00  0.00    -0.191 NA
HETATM   10  N   UNK N   1      35.061  19.250   8.521  0.00  0.00    -0.191 NA
ENDROOT
BRANCH   8  11
HETATM   11  O   UNK N   1      31.520  15.835   6.550  0.00  0.00    -0.334 OA
BRANCH  11  12
HETATM   12  C   UNK N   1      30.832  16.750   5.872  0.00  0.00     0.118 A 
HETATM   13  C   UNK N   1      30.702  16.989   4.504  0.00  0.00     0.061 A 
HETATM   14  N   UNK N   1      29.671  17.840   4.344  0.00  0.00    -0.300 N 
HETATM   15  N   UNK N   1      29.185  18.127   5.547  0.00  0.00    -0.291 N 
ATOM     16  HN  UNK N   1      29.325  18.202   3.456  1.00  0.00     0.187 HD
HETATM   17  C   UNK N   1      29.901  17.483   6.487  0.00  0.00     0.063 A 
BRANCH  13  18
HETATM   18  C   UNK N   1      31.405  16.320   3.354  0.00  0.00     0.057 C 
HETATM   19  C   UNK N   1      30.819  14.934   3.082  0.00  0.00     0.011 C 
ENDBRANCH  13  18
BRANCH  15  20
HETATM   20  C   UNK N   1      27.991  18.941   5.719  0.00  0.00     0.175 C 
BRANCH  20  21
HETATM   21  C   UNK N   1      27.958  20.163   4.827  0.00  0.00     0.185 C 
BRANCH  21  22
HETATM   22  O   UNK N   1      27.472  19.789   3.582  0.00  0.00    -0.399 OA
HETATM   23  H   UNK N   1      26.807  20.326   3.122  0.00  0.00     0.209 HD
ENDBRANCH  21  22
ENDBRANCH  20  21
ENDBRANCH  15  20
BRANCH  17  24
HETATM   24  C   UNK N   1      29.641  17.394   7.964  0.00  0.00     0.057 C 
HETATM   25  C   UNK N   1      30.614  18.246   8.755  0.00  0.00     0.011 C 
ENDBRANCH  17  24
ENDBRANCH  11  12
ENDBRANCH   8  11
TORSDOF 7
ENDMDL
