REMARK  6 active torsions:
REMARK  status: ('A' for Active; 'I' for Inactive)
REMARK    1  A    between atoms: C_2  and  C_6 
REMARK    2  A    between atoms: C_6  and  O_7 
REMARK    3  A    between atoms: O_7  and  C_8 
REMARK    4  A    between atoms: N_17  and  C_18 
REMARK    5  A    between atoms: C_25  and  N_29 
REMARK    6  A    between atoms: C_32  and  N_35 
ROOT
HETATM    1  C   UNK N   1       1.204  -0.885   0.565  0.00  0.00     0.113 A 
HETATM    2  C   UNK N   1       1.338   0.509   0.619  0.00  0.00     0.050 A 
HETATM    3  C   UNK N   1       2.599   1.089   0.515  0.00  0.00     0.017 A 
HETATM    4  C   UNK N   1       3.716   0.279   0.328  0.00  0.00    -0.007 A 
HETATM    5  C   UNK N   1       4.969   0.854   0.131  0.00  0.00     0.014 A 
HETATM    6  C   UNK N   1       6.074   0.043  -0.122  0.00  0.00     0.003 A 
HETATM    7  C   UNK N   1       5.933  -1.347  -0.160  0.00  0.00     0.032 A 
HETATM    8  C   UNK N   1       4.686  -1.958   0.072  0.00  0.00     0.058 A 
HETATM    9  C   UNK N   1       3.560  -1.126   0.303  0.00  0.00     0.070 A 
HETATM   10  N   UNK N   1       2.314  -1.657   0.433  0.00  0.00    -0.340 N 
ATOM     11  HN  UNK N   1       2.210  -2.672   0.433  1.00  0.00     0.167 HD
ENDROOT
BRANCH   1  12
HETATM   12  N   UNK N   1      -0.094  -1.501   0.540  0.00  0.00    -0.292 N 
HETATM   13  C   UNK N   1      -0.361  -2.831   0.610  0.00  0.00     0.191 A 
HETATM   14  N   UNK N   1      -1.697  -3.075   0.506  0.00  0.00    -0.350 N 
HETATM   15  C   UNK N   1      -2.252  -1.859   0.353  0.00  0.00     0.063 A 
ATOM     16  HN  UNK N   1      -2.171  -3.978   0.537  1.00  0.00     0.166 HD
HETATM   17  C   UNK N   1      -1.285  -0.907   0.369  0.00  0.00     0.068 A 
HETATM   18  C   UNK N   1      -3.596  -1.540   0.180  0.00  0.00     0.068 A 
HETATM   19  C   UNK N   1      -1.570   0.442   0.179  0.00  0.00     0.035 A 
HETATM   20  C   UNK N   1      -2.910   0.804  -0.025  0.00  0.00     0.039 A 
HETATM   21  C   UNK N   1      -3.929  -0.174  -0.011  0.00  0.00     0.071 A 
BRANCH  21  22
HETATM   22  O   UNK N   1      -5.210   0.227  -0.164  0.00  0.00    -0.350 OA
BRANCH  22  23
HETATM   23  C   UNK N   1      -6.256  -0.424   0.451  0.00  0.00     0.189 C 
BRANCH  23  24
HETATM   24  C   UNK N   1      -7.141  -1.167  -0.531  0.00  0.00     0.021 A 
HETATM   25  C   UNK N   1      -7.772  -0.342  -1.636  0.00  0.00     0.022 C 
HETATM   26  C   UNK N   1      -6.573  -2.477  -0.986  0.00  0.00     0.181 A 
HETATM   27  O   UNK N   1      -7.517  -3.212  -0.248  0.00  0.00    -0.389 OA
HETATM   28  C   UNK N   1      -8.132  -2.026   0.191  0.00  0.00     0.181 A 
ENDBRANCH  23  24
ENDBRANCH  22  23
ENDBRANCH  21  22
ENDBRANCH   1  12
BRANCH   8  29
HETATM   29  N   UNK N   1       4.584  -3.390   0.045  0.00  0.00    -0.379 N 
HETATM   30  C   UNK N   1       5.626  -4.186  -0.588  0.00  0.00     0.125 C 
HETATM   31  C   UNK N   1       5.282  -5.681  -0.573  0.00  0.00     0.044 C 
HETATM   32  C   UNK N   1       3.831  -5.926  -1.016  0.00  0.00     0.077 C 
HETATM   33  C   UNK N   1       2.810  -5.010  -0.328  0.00  0.00     0.044 C 
HETATM   34  C   UNK N   1       3.468  -4.074   0.672  0.00  0.00     0.125 C 
BRANCH  32  35
HETATM   35  N   UNK N   1       3.477  -7.310  -0.762  0.00  0.00    -0.426 N 
HETATM   36  H   UNK N   1       2.510  -7.580  -0.583  0.00  0.00     0.150 HD
HETATM   37  H   UNK N   1       4.206  -8.023  -0.762  0.00  0.00     0.150 HD
ENDBRANCH  32  35
ENDBRANCH   8  29
TORSDOF 6
