REMARK  14 active torsions:
REMARK  status: ('A' for Active; 'I' for Inactive)
REMARK    1  A    between atoms: C_9  and  C_8 
REMARK    2  A    between atoms: C_17  and  C_8 
REMARK    3  A    between atoms: O_31  and  C_9 
REMARK    4  A    between atoms: C_16  and  C_11 
REMARK    5  A    between atoms: N_25  and  C_11 
REMARK    6  A    between atoms: N_25  and  C_12 
REMARK    7  A    between atoms: N_25  and  C_13 
REMARK    8  A    between atoms: C_19  and  C_15 
REMARK    9  A    between atoms: S_33  and  C_17 
REMARK   10  A    between atoms: N_20  and  C_18 
REMARK   11  A    between atoms: S_33  and  C_19 
REMARK   12  A    between atoms: P_32  and  O_28 
REMARK   13  A    between atoms: P_32  and  O_29 
REMARK   14  A    between atoms: P_32  and  O_31 
ROOT
HETATM    1  C   UNK N   1      -7.140   0.178   0.826  0.00  0.00     0.069 C 
HETATM    2  C   UNK N   1      -5.766   0.767   0.700  0.00  0.00     0.023 C 
HETATM    3  C   UNK N   1      -4.736  -0.098   1.010  0.00  0.00     0.011 C 
ENDROOT
BRANCH   3   4
HETATM    4  C   UNK N   1      -5.065  -1.546   1.306  0.00  0.00     0.075 C 
BRANCH   4   5
HETATM    5  C   UNK N   1      -5.293  -2.375   0.027  0.00  0.00     0.185 C 
BRANCH   5   6
HETATM    6  O   UNK N   1      -6.493  -2.064  -0.625  0.00  0.00    -0.297 OA
BRANCH   6   7
HETATM    7  P   UNK N   1      -7.701  -3.149   0.016  0.00  0.00     0.390 P 
HETATM    8  O   UNK N   1      -8.577  -3.618  -1.176  0.00  0.00    -0.632 OA
BRANCH   7   9
HETATM    9  O   UNK N   1      -8.762  -2.349   1.133  0.00  0.00    -0.307 OA
HETATM   10  H   UNK N   1      -8.672  -1.612   1.757  0.00  0.00     0.222 HD
ENDBRANCH   7   9
BRANCH   7  11
HETATM   11  O   UNK N   1      -7.010  -4.580   0.718  0.00  0.00    -0.307 OA
HETATM   12  H   UNK N   1      -7.510  -5.314   1.110  0.00  0.00     0.222 HD
ENDBRANCH   7  11
ENDBRANCH   6   7
ENDBRANCH   5   6
ENDBRANCH   4   5
ENDBRANCH   3   4
BRANCH   3  13
HETATM   13  S   UNK N   1      -2.989   0.375   1.234  0.00  0.00    -0.050 SA
BRANCH  13  14
HETATM   14  C   UNK N   1      -2.259  -0.545  -0.131  0.00  0.00     0.223 C 
HETATM   15  O   UNK N   1      -1.917   0.068  -1.129  0.00  0.00    -0.279 OA
BRANCH  14  16
HETATM   16  C   UNK N   1      -2.023  -2.008  -0.048  0.00  0.00     0.021 A 
HETATM   17  C   UNK N   1      -1.495  -2.695  -1.152  0.00  0.00     0.016 A 
HETATM   18  C   UNK N   1      -1.316  -4.080  -1.104  0.00  0.00     0.001 A 
HETATM   19  C   UNK N   1      -1.667  -4.792   0.046  0.00  0.00     0.000 A 
HETATM   20  C   UNK N   1      -2.178  -4.116   1.156  0.00  0.00     0.001 A 
HETATM   21  C   UNK N   1      -2.347  -2.729   1.111  0.00  0.00     0.016 A 
ENDBRANCH  14  16
ENDBRANCH  13  14
ENDBRANCH   3  13
BRANCH   2  22
HETATM   22  N   UNK N   1      -5.611   2.183   0.341  0.00  0.00    -0.324 N 
BRANCH  22  23
HETATM   23  C   UNK N   1      -6.725   3.051  -0.105  0.00  0.00     0.175 C 
BRANCH  23  24
HETATM   24  C   UNK N   1      -8.052   2.400  -0.378  0.00  0.00     0.019 A 
HETATM   25  C   UNK N   1      -8.214   1.547  -1.477  0.00  0.00     0.102 A 
HETATM   26  N   UNK N   1      -9.368   0.846  -1.625  0.00  0.00    -0.355 N 
HETATM   27  C   UNK N   1     -10.378   0.965  -0.723  0.00  0.00     0.078 A 
ATOM     28  HN  UNK N   1      -9.478   0.222  -2.424  1.00  0.00     0.166 HD
HETATM   29  C   UNK N   1     -11.604   0.139  -0.866  0.00  0.00     0.089 C 
HETATM   30  N   UNK N   1     -10.258   1.822   0.328  0.00  0.00    -0.332 N 
HETATM   31  C   UNK N   1      -9.125   2.543   0.514  0.00  0.00     0.109 A 
HETATM   32  H   UNK N   1     -11.004   1.918   0.963  0.00  0.00     0.168 HD
BRANCH  31  33
HETATM   33  N   UNK N   1      -9.022   3.307   1.539  0.00  0.00    -0.385 N 
HETATM   34  H   UNK N   1      -8.475   3.532   2.326  0.00  0.00     0.157 HD
ATOM     35  HN  UNK N   1      -9.830   3.931   1.539  1.00  0.00     0.157 HD
ENDBRANCH  31  33
ENDBRANCH  23  24
ENDBRANCH  22  23
BRANCH  22  36
HETATM   36  C   UNK N   1      -4.385   2.766   0.394  0.00  0.00     0.355 C 
HETATM   37  O   UNK N   1      -4.222   3.943   0.101  0.00  0.00    -0.283 OA
ENDBRANCH  22  36
ENDBRANCH   2  22
TORSDOF 14
