MODEL 1
REMARK VINA RESULT:      -8.8      0.000      0.000
REMARK  4 active torsions:
REMARK  status: ('A' for Active; 'I' for Inactive)
REMARK    1  A    between atoms: S_2  and  C_5 
REMARK    2  A    between atoms: C_8  and  N_12 
REMARK    3  A    between atoms: C_15  and  O_19 
REMARK    4  A    between atoms: O_19  and  C_20 
REMARK       I    between atoms: N_23  and  C_26 
ROOT
HETATM    1  N   UNK N   1      28.513  18.059   5.128  0.00  0.00    -0.285 N 
HETATM    2  C   UNK N   1      28.014  19.182   5.729  0.00  0.00     0.127 A 
HETATM    3  C   UNK N   1      26.837  19.785   5.267  0.00  0.00     0.083 A 
HETATM    4  C   UNK N   1      26.186  19.232   4.161  0.00  0.00     0.097 A 
HETATM    5  C   UNK N   1      26.633  18.017   3.642  0.00  0.00     0.113 A 
HETATM    6  C   UNK N   1      27.779  17.428   4.133  0.00  0.00     0.254 A 
HETATM    7  O   UNK N   1      28.120  16.355   3.673  0.00  0.00    -0.268 OA
HETATM    8 Cl   UNK N   1      26.310  21.309   5.957  0.00  0.00    -0.080 Cl
ENDROOT
BRANCH   4   9
HETATM    9  O   UNK N   1      25.224  19.923   3.502  0.00  0.00    -0.344 OA
BRANCH   9  10
HETATM   10  C   UNK N   1      23.958  19.361   3.441  0.00  0.00     0.132 C 
HETATM   11  C   UNK N   1      23.515  18.690   4.740  0.00  0.00     0.053 C 
HETATM   12  C   UNK N   1      22.007  18.333   4.701  0.00  0.00     0.143 C 
HETATM   13  N   UNK N   1      21.444  18.541   3.376  0.00  0.00    -0.217 N 
HETATM   14  C   UNK N   1      21.581  19.837   2.745  0.00  0.00     0.143 C 
HETATM   15  C   UNK N   1      20.847  17.466   2.665  0.00  0.00     0.679 A 
HETATM   16  C   UNK N   1      22.937  20.448   3.062  0.00  0.00     0.053 C 
HETATM   17  N   UNK N   1      20.646  16.268   3.281  0.00  0.00    -0.200 N 
HETATM   18  N   UNK N   1      20.461  17.630   1.366  0.00  0.00    -0.200 N 
HETATM   19  C   UNK N   1      20.062  15.234   2.624  0.00  0.00     0.131 A 
ATOM     20  HN  UNK N   1      20.940  16.147   4.250  1.00  0.00     0.183 HD
HETATM   21  C   UNK N   1      19.668  15.388   1.299  0.00  0.00     0.065 A 
HETATM   22  C   UNK N   1      19.882  16.614   0.675  0.00  0.00     0.131 A 
HETATM   23 Cl   UNK N   1      18.913  14.065   0.437  0.00  0.00    -0.081 Cl
ATOM     24  HN  UNK N   1      20.610  18.529   0.907  1.00  0.00     0.183 HD
ENDBRANCH   9  10
ENDBRANCH   4   9
BRANCH   1  25
HETATM   25  C   UNK N   1      29.821  17.575   5.523  0.00  0.00     0.080 A 
HETATM   26  C   UNK N   1      30.886  17.609   4.607  0.00  0.00     0.035 A 
HETATM   27  C   UNK N   1      32.162  17.191   4.992  0.00  0.00     0.026 A 
HETATM   28  C   UNK N   1      32.380  16.697   6.281  0.00  0.00     0.061 A 
HETATM   29  C   UNK N   1      31.320  16.588   7.175  0.00  0.00     0.068 A 
HETATM   30  C   UNK N   1      30.046  17.008   6.807  0.00  0.00     0.145 A 
HETATM   31  F   UNK N   1      29.038  16.817   7.693  0.00  0.00    -0.204 F 
BRANCH  28  32
HETATM   32  S   UNK N   1      34.044  16.429   6.864  0.00  0.00     0.172 S 
HETATM   33  C   UNK N   1      34.921  16.271   8.446  0.00  0.00     0.167 C 
HETATM   34  O   UNK N   1      34.378  17.921   6.753  0.00  0.00    -0.223 OA
HETATM   35  O   UNK N   1      34.963  16.061   5.689  0.00  0.00    -0.223 OA
ENDBRANCH  28  32
ENDBRANCH   1  25
TORSDOF 4
ENDMDL
MODEL 2
REMARK VINA RESULT:      -8.7      3.243      4.394
REMARK  4 active torsions:
REMARK  status: ('A' for Active; 'I' for Inactive)
REMARK    1  A    between atoms: S_2  and  C_5 
REMARK    2  A    between atoms: C_8  and  N_12 
REMARK    3  A    between atoms: C_15  and  O_19 
REMARK    4  A    between atoms: O_19  and  C_20 
REMARK       I    between atoms: N_23  and  C_26 
ROOT
HETATM    1  N   UNK N   1      31.012  16.938   7.369  0.00  0.00    -0.285 N 
HETATM    2  C   UNK N   1      29.983  17.669   7.898  0.00  0.00     0.127 A 
HETATM    3  C   UNK N   1      28.986  18.210   7.075  0.00  0.00     0.083 A 
HETATM    4  C   UNK N   1      29.070  18.011   5.695  0.00  0.00     0.097 A 
HETATM    5  C   UNK N   1      30.048  17.158   5.185  0.00  0.00     0.113 A 
HETATM    6  C   UNK N   1      31.002  16.613   6.019  0.00  0.00     0.254 A 
HETATM    7  O   UNK N   1      31.822  15.852   5.542  0.00  0.00    -0.268 OA
HETATM    8 Cl   UNK N   1      27.771  19.272   7.764  0.00  0.00    -0.080 Cl
ENDROOT
BRANCH   4   9
HETATM    9  O   UNK N   1      28.312  18.739   4.839  0.00  0.00    -0.344 OA
BRANCH   9  10
HETATM   10  C   UNK N   1      26.972  18.399   4.719  0.00  0.00     0.132 C 
HETATM   11  C   UNK N   1      26.094  19.521   4.169  0.00  0.00     0.053 C 
HETATM   12  C   UNK N   1      24.683  18.999   3.799  0.00  0.00     0.143 C 
HETATM   13  N   UNK N   1      24.485  17.631   4.251  0.00  0.00    -0.217 N 
HETATM   14  C   UNK N   1      25.426  16.609   3.843  0.00  0.00     0.143 C 
HETATM   15  C   UNK N   1      23.437  17.310   5.155  0.00  0.00     0.679 A 
HETATM   16  C   UNK N   1      26.841  17.165   3.809  0.00  0.00     0.053 C 
HETATM   17  N   UNK N   1      22.505  18.247   5.479  0.00  0.00    -0.200 N 
HETATM   18  N   UNK N   1      23.352  16.058   5.694  0.00  0.00    -0.200 N 
HETATM   19  C   UNK N   1      21.487  17.956   6.329  0.00  0.00     0.131 A 
ATOM     20  HN  UNK N   1      22.574  19.183   5.079  1.00  0.00     0.183 HD
HETATM   21  C   UNK N   1      21.392  16.685   6.887  0.00  0.00     0.065 A 
HETATM   22  C   UNK N   1      22.352  15.734   6.554  0.00  0.00     0.131 A 
HETATM   23 Cl   UNK N   1      20.085  16.292   7.983  0.00  0.00    -0.081 Cl
ATOM     24  HN  UNK N   1      24.050  15.356   5.447  1.00  0.00     0.183 HD
ENDBRANCH   9  10
ENDBRANCH   4   9
BRANCH   1  25
HETATM   25  C   UNK N   1      32.111  16.551   8.230  0.00  0.00     0.080 A 
HETATM   26  C   UNK N   1      32.056  15.336   8.933  0.00  0.00     0.035 A 
HETATM   27  C   UNK N   1      33.131  14.929   9.727  0.00  0.00     0.026 A 
HETATM   28  C   UNK N   1      34.255  15.749   9.859  0.00  0.00     0.061 A 
HETATM   29  C   UNK N   1      34.293  16.988   9.229  0.00  0.00     0.068 A 
HETATM   30  C   UNK N   1      33.232  17.402   8.430  0.00  0.00     0.145 A 
HETATM   31  F   UNK N   1      33.294  18.646   7.894  0.00  0.00    -0.204 F 
BRANCH  28  32
HETATM   32  S   UNK N   1      35.733  15.118  10.635  0.00  0.00     0.172 S 
HETATM   33  C   UNK N   1      36.304  14.658  12.295  0.00  0.00     0.167 C 
HETATM   34  O   UNK N   1      36.336  16.523  10.744  0.00  0.00    -0.223 OA
HETATM   35  O   UNK N   1      36.748  14.686   9.567  0.00  0.00    -0.223 OA
ENDBRANCH  28  32
ENDBRANCH   1  25
TORSDOF 4
ENDMDL
MODEL 3
REMARK VINA RESULT:      -8.6      5.546      8.738
REMARK  4 active torsions:
REMARK  status: ('A' for Active; 'I' for Inactive)
REMARK    1  A    between atoms: S_2  and  C_5 
REMARK    2  A    between atoms: C_8  and  N_12 
REMARK    3  A    between atoms: C_15  and  O_19 
REMARK    4  A    between atoms: O_19  and  C_20 
REMARK       I    between atoms: N_23  and  C_26 
ROOT
HETATM    1  N   UNK N   1      35.124  15.472   8.259  0.00  0.00    -0.285 N 
HETATM    2  C   UNK N   1      35.313  14.685   7.156  0.00  0.00     0.127 A 
HETATM    3  C   UNK N   1      34.889  15.105   5.888  0.00  0.00     0.083 A 
HETATM    4  C   UNK N   1      34.246  16.340   5.768  0.00  0.00     0.097 A 
HETATM    5  C   UNK N   1      34.178  17.185   6.875  0.00  0.00     0.113 A 
HETATM    6  C   UNK N   1      34.628  16.760   8.107  0.00  0.00     0.254 A 
HETATM    7  O   UNK N   1      34.577  17.537   9.042  0.00  0.00    -0.268 OA
HETATM    8 Cl   UNK N   1      35.003  14.008   4.524  0.00  0.00    -0.080 Cl
ENDROOT
BRANCH   4   9
HETATM    9  O   UNK N   1      33.569  16.665   4.640  0.00  0.00    -0.344 OA
BRANCH   9  10
HETATM   10  C   UNK N   1      32.209  16.914   4.757  0.00  0.00     0.132 C 
HETATM   11  C   UNK N   1      31.459  16.895   3.427  0.00  0.00     0.053 C 
HETATM   12  C   UNK N   1      29.925  16.900   3.647  0.00  0.00     0.143 C 
HETATM   13  N   UNK N   1      29.588  17.123   5.045  0.00  0.00    -0.217 N 
HETATM   14  C   UNK N   1      30.150  16.252   6.055  0.00  0.00     0.143 C 
HETATM   15  C   UNK N   1      28.793  18.235   5.430  0.00  0.00     0.679 A 
HETATM   16  C   UNK N   1      31.582  15.876   5.703  0.00  0.00     0.053 C 
HETATM   17  N   UNK N   1      28.198  19.011   4.482  0.00  0.00    -0.200 N 
HETATM   18  N   UNK N   1      28.609  18.525   6.752  0.00  0.00    -0.200 N 
HETATM   19  C   UNK N   1      27.421  20.068   4.830  0.00  0.00     0.131 A 
ATOM     20  HN  UNK N   1      28.341  18.795   3.495  1.00  0.00     0.183 HD
HETATM   21  C   UNK N   1      27.230  20.375   6.174  0.00  0.00     0.065 A 
HETATM   22  C   UNK N   1      27.845  19.580   7.136  0.00  0.00     0.131 A 
HETATM   23 Cl   UNK N   1      26.230  21.734   6.640  0.00  0.00    -0.081 Cl
ATOM     24  HN  UNK N   1      29.053  17.941   7.461  1.00  0.00     0.183 HD
ENDBRANCH   9  10
ENDBRANCH   4   9
BRANCH   1  25
HETATM   25  C   UNK N   1      35.414  14.925   9.569  0.00  0.00     0.080 A 
HETATM   26  C   UNK N   1      36.722  14.526   9.887  0.00  0.00     0.035 A 
HETATM   27  C   UNK N   1      37.023  14.044  11.163  0.00  0.00     0.026 A 
HETATM   28  C   UNK N   1      36.014  13.917  12.122  0.00  0.00     0.061 A 
HETATM   29  C   UNK N   1      34.700  14.238  11.798  0.00  0.00     0.068 A 
HETATM   30  C   UNK N   1      34.389  14.726  10.533  0.00  0.00     0.145 A 
HETATM   31  F   UNK N   1      33.083  14.960  10.251  0.00  0.00    -0.204 F 
BRANCH  28  32
HETATM   32  S   UNK N   1      36.435  13.573  13.821  0.00  0.00     0.172 S 
HETATM   33  C   UNK N   1      36.821  12.136  14.860  0.00  0.00     0.167 C 
HETATM   34  O   UNK N   1      34.960  13.562  14.237  0.00  0.00    -0.223 OA
HETATM   35  O   UNK N   1      36.713  14.883  14.573  0.00  0.00    -0.223 OA
ENDBRANCH  28  32
ENDBRANCH   1  25
TORSDOF 4
ENDMDL
MODEL 4
REMARK VINA RESULT:      -8.4      4.644     11.206
REMARK  4 active torsions:
REMARK  status: ('A' for Active; 'I' for Inactive)
REMARK    1  A    between atoms: S_2  and  C_5 
REMARK    2  A    between atoms: C_8  and  N_12 
REMARK    3  A    between atoms: C_15  and  O_19 
REMARK    4  A    between atoms: O_19  and  C_20 
REMARK       I    between atoms: N_23  and  C_26 
ROOT
HETATM    1  N   UNK N   1      26.936  18.348   4.470  0.00  0.00    -0.285 N 
HETATM    2  C   UNK N   1      27.528  17.420   3.657  0.00  0.00     0.127 A 
HETATM    3  C   UNK N   1      28.860  17.034   3.852  0.00  0.00     0.083 A 
HETATM    4  C   UNK N   1      29.590  17.631   4.884  0.00  0.00     0.097 A 
HETATM    5  C   UNK N   1      28.938  18.476   5.782  0.00  0.00     0.113 A 
HETATM    6  C   UNK N   1      27.617  18.818   5.585  0.00  0.00     0.254 A 
HETATM    7  O   UNK N   1      27.076  19.534   6.406  0.00  0.00    -0.268 OA
HETATM    8 Cl   UNK N   1      29.635  15.964   2.699  0.00  0.00    -0.080 Cl
ENDROOT
BRANCH   4   9
HETATM    9  O   UNK N   1      30.939  17.516   4.939  0.00  0.00    -0.344 OA
BRANCH   9  10
HETATM   10  C   UNK N   1      31.480  16.816   6.007  0.00  0.00     0.132 C 
HETATM   11  C   UNK N   1      31.051  17.344   7.375  0.00  0.00     0.053 C 
HETATM   12  C   UNK N   1      31.455  16.366   8.507  0.00  0.00     0.143 C 
HETATM   13  N   UNK N   1      32.310  15.299   8.009  0.00  0.00    -0.217 N 
HETATM   14  C   UNK N   1      31.854  14.487   6.900  0.00  0.00     0.143 C 
HETATM   15  C   UNK N   1      33.615  15.109   8.538  0.00  0.00     0.679 A 
HETATM   16  C   UNK N   1      31.088  15.333   5.895  0.00  0.00     0.053 C 
HETATM   17  N   UNK N   1      34.019  15.815   9.629  0.00  0.00    -0.200 N 
HETATM   18  N   UNK N   1      34.466  14.209   7.963  0.00  0.00    -0.200 N 
HETATM   19  C   UNK N   1      35.256  15.636  10.159  0.00  0.00     0.131 A 
ATOM     20  HN  UNK N   1      33.382  16.490  10.053  1.00  0.00     0.183 HD
HETATM   21  C   UNK N   1      36.133  14.725   9.580  0.00  0.00     0.065 A 
HETATM   22  C   UNK N   1      35.713  14.011   8.461  0.00  0.00     0.131 A 
HETATM   23 Cl   UNK N   1      37.731  14.481  10.251  0.00  0.00    -0.081 Cl
ATOM     24  HN  UNK N   1      34.160  13.678   7.147  1.00  0.00     0.183 HD
ENDBRANCH   9  10
ENDBRANCH   4   9
BRANCH   1  25
HETATM   25  C   UNK N   1      25.620  18.847   4.124  0.00  0.00     0.080 A 
HETATM   26  C   UNK N   1      25.493  20.037   3.389  0.00  0.00     0.035 A 
HETATM   27  C   UNK N   1      24.232  20.500   3.008  0.00  0.00     0.026 A 
HETATM   28  C   UNK N   1      23.083  19.803   3.390  0.00  0.00     0.061 A 
HETATM   29  C   UNK N   1      23.188  18.664   4.180  0.00  0.00     0.068 A 
HETATM   30  C   UNK N   1      24.439  18.188   4.561  0.00  0.00     0.145 A 
HETATM   31  F   UNK N   1      24.480  17.112   5.385  0.00  0.00    -0.204 F 
BRANCH  28  32
HETATM   32  S   UNK N   1      21.504  20.228   2.677  0.00  0.00     0.172 S 
HETATM   33  C   UNK N   1      20.715  20.256   1.043  0.00  0.00     0.167 C 
HETATM   34  O   UNK N   1      21.884  21.711   2.593  0.00  0.00    -0.223 OA
HETATM   35  O   UNK N   1      20.473  20.480   3.787  0.00  0.00    -0.223 OA
ENDBRANCH  28  32
ENDBRANCH   1  25
TORSDOF 4
ENDMDL
MODEL 5
REMARK VINA RESULT:      -8.3      3.624      4.322
REMARK  4 active torsions:
REMARK  status: ('A' for Active; 'I' for Inactive)
REMARK    1  A    between atoms: S_2  and  C_5 
REMARK    2  A    between atoms: C_8  and  N_12 
REMARK    3  A    between atoms: C_15  and  O_19 
REMARK    4  A    between atoms: O_19  and  C_20 
REMARK       I    between atoms: N_23  and  C_26 
ROOT
HETATM    1  N   UNK N   1      27.993  17.675   4.873  0.00  0.00    -0.285 N 
HETATM    2  C   UNK N   1      27.542  16.817   3.907  0.00  0.00     0.127 A 
HETATM    3  C   UNK N   1      26.227  16.895   3.429  0.00  0.00     0.083 A 
HETATM    4  C   UNK N   1      25.369  17.855   3.972  0.00  0.00     0.097 A 
HETATM    5  C   UNK N   1      25.878  18.804   4.859  0.00  0.00     0.113 A 
HETATM    6  C   UNK N   1      27.184  18.723   5.293  0.00  0.00     0.254 A 
HETATM    7  O   UNK N   1      27.599  19.586   6.044  0.00  0.00    -0.268 OA
HETATM    8 Cl   UNK N   1      25.635  15.683   2.309  0.00  0.00    -0.080 Cl
ENDROOT
BRANCH   4   9
HETATM    9  O   UNK N   1      24.031  17.791   3.763  0.00  0.00    -0.344 OA
BRANCH   9  10
HETATM   10  C   UNK N   1      23.292  16.955   4.587  0.00  0.00     0.132 C 
HETATM   11  C   UNK N   1      22.444  17.695   5.620  0.00  0.00     0.053 C 
HETATM   12  C   UNK N   1      21.443  16.738   6.314  0.00  0.00     0.143 C 
HETATM   13  N   UNK N   1      21.697  15.351   5.957  0.00  0.00    -0.217 N 
HETATM   14  C   UNK N   1      21.730  14.975   4.559  0.00  0.00     0.143 C 
HETATM   15  C   UNK N   1      22.001  14.388   6.957  0.00  0.00     0.679 A 
HETATM   16  C   UNK N   1      22.376  16.071   3.725  0.00  0.00     0.053 C 
HETATM   17  N   UNK N   1      21.895  14.716   8.274  0.00  0.00    -0.200 N 
HETATM   18  N   UNK N   1      22.388  13.128   6.604  0.00  0.00    -0.200 N 
HETATM   19  C   UNK N   1      22.165  13.806   9.245  0.00  0.00     0.131 A 
ATOM     20  HN  UNK N   1      21.610  15.660   8.535  1.00  0.00     0.183 HD
HETATM   21  C   UNK N   1      22.564  12.519   8.897  0.00  0.00     0.065 A 
HETATM   22  C   UNK N   1      22.674  12.194   7.548  0.00  0.00     0.131 A 
HETATM   23 Cl   UNK N   1      22.915  11.333  10.136  0.00  0.00    -0.081 Cl
ATOM     24  HN  UNK N   1      22.464  12.883   5.616  1.00  0.00     0.183 HD
ENDBRANCH   9  10
ENDBRANCH   4   9
BRANCH   1  25
HETATM   25  C   UNK N   1      29.296  17.446   5.463  0.00  0.00     0.080 A 
HETATM   26  C   UNK N   1      30.450  17.536   4.668  0.00  0.00     0.035 A 
HETATM   27  C   UNK N   1      31.715  17.366   5.236  0.00  0.00     0.026 A 
HETATM   28  C   UNK N   1      31.838  17.062   6.595  0.00  0.00     0.061 A 
HETATM   29  C   UNK N   1      30.702  16.896   7.379  0.00  0.00     0.068 A 
HETATM   30  C   UNK N   1      29.437  17.070   6.827  0.00  0.00     0.145 A 
HETATM   31  F   UNK N   1      28.364  16.831   7.620  0.00  0.00    -0.204 F 
BRANCH  28  32
HETATM   32  S   UNK N   1      33.440  17.120   7.380  0.00  0.00     0.172 S 
HETATM   33  C   UNK N   1      34.271  16.401   8.824  0.00  0.00     0.167 C 
HETATM   34  O   UNK N   1      33.075  18.399   8.143  0.00  0.00    -0.223 OA
HETATM   35  O   UNK N   1      34.444  17.857   6.480  0.00  0.00    -0.223 OA
ENDBRANCH  28  32
ENDBRANCH   1  25
TORSDOF 4
ENDMDL
MODEL 6
REMARK VINA RESULT:      -8.3      6.079     13.042
REMARK  4 active torsions:
REMARK  status: ('A' for Active; 'I' for Inactive)
REMARK    1  A    between atoms: S_2  and  C_5 
REMARK    2  A    between atoms: C_8  and  N_12 
REMARK    3  A    between atoms: C_15  and  O_19 
REMARK    4  A    between atoms: O_19  and  C_20 
REMARK       I    between atoms: N_23  and  C_26 
ROOT
HETATM    1  N   UNK N   1      31.547  16.288   7.172  0.00  0.00    -0.285 N 
HETATM    2  C   UNK N   1      31.662  14.966   6.839  0.00  0.00     0.127 A 
HETATM    3  C   UNK N   1      32.834  14.251   7.118  0.00  0.00     0.083 A 
HETATM    4  C   UNK N   1      33.901  14.918   7.726  0.00  0.00     0.097 A 
HETATM    5  C   UNK N   1      33.723  16.226   8.176  0.00  0.00     0.113 A 
HETATM    6  C   UNK N   1      32.548  16.900   7.914  0.00  0.00     0.254 A 
HETATM    7  O   UNK N   1      32.420  18.029   8.347  0.00  0.00    -0.268 OA
HETATM    8 Cl   UNK N   1      33.009  12.605   6.539  0.00  0.00    -0.080 Cl
ENDROOT
BRANCH   4   9
HETATM    9  O   UNK N   1      35.139  14.368   7.757  0.00  0.00    -0.344 OA
BRANCH   9  10
HETATM   10  C   UNK N   1      35.570  13.823   8.958  0.00  0.00     0.132 C 
HETATM   11  C   UNK N   1      35.256  12.336   9.112  0.00  0.00     0.053 C 
HETATM   12  C   UNK N   1      35.997  11.730  10.331  0.00  0.00     0.143 C 
HETATM   13  N   UNK N   1      36.639  12.761  11.131  0.00  0.00    -0.217 N 
HETATM   14  C   UNK N   1      37.564  13.676  10.496  0.00  0.00     0.143 C 
HETATM   15  C   UNK N   1      36.299  12.933  12.500  0.00  0.00     0.679 A 
HETATM   16  C   UNK N   1      37.087  14.034   9.096  0.00  0.00     0.053 C 
HETATM   17  N   UNK N   1      35.492  12.030  13.121  0.00  0.00    -0.200 N 
HETATM   18  N   UNK N   1      36.789  13.996  13.202  0.00  0.00    -0.200 N 
HETATM   19  C   UNK N   1      35.169  12.168  14.433  0.00  0.00     0.131 A 
ATOM     20  HN  UNK N   1      35.124  11.239  12.593  1.00  0.00     0.183 HD
HETATM   21  C   UNK N   1      35.659  13.249  15.158  0.00  0.00     0.065 A 
HETATM   22  C   UNK N   1      36.480  14.170  14.513  0.00  0.00     0.131 A 
HETATM   23 Cl   UNK N   1      35.254  13.441  16.850  0.00  0.00    -0.081 Cl
ATOM     24  HN  UNK N   1      37.396  14.671  12.736  1.00  0.00     0.183 HD
ENDBRANCH   9  10
ENDBRANCH   4   9
BRANCH   1  25
HETATM   25  C   UNK N   1      30.393  17.030   6.706  0.00  0.00     0.080 A 
HETATM   26  C   UNK N   1      29.316  17.268   7.576  0.00  0.00     0.035 A 
HETATM   27  C   UNK N   1      28.220  18.025   7.154  0.00  0.00     0.026 A 
HETATM   28  C   UNK N   1      28.169  18.517   5.847  0.00  0.00     0.061 A 
HETATM   29  C   UNK N   1      29.193  18.228   4.952  0.00  0.00     0.068 A 
HETATM   30  C   UNK N   1      30.293  17.481   5.362  0.00  0.00     0.145 A 
HETATM   31  F   UNK N   1      31.229  17.173   4.430  0.00  0.00    -0.204 F 
BRANCH  28  32
HETATM   32  S   UNK N   1      26.921  19.708   5.390  0.00  0.00     0.172 S 
HETATM   33  C   UNK N   1      25.291  19.728   4.593  0.00  0.00     0.167 C 
HETATM   34  O   UNK N   1      27.642  20.034   4.077  0.00  0.00    -0.223 OA
HETATM   35  O   UNK N   1      27.251  21.080   5.998  0.00  0.00    -0.223 OA
ENDBRANCH  28  32
ENDBRANCH   1  25
TORSDOF 4
ENDMDL
MODEL 7
REMARK VINA RESULT:      -8.3      4.720     10.253
REMARK  4 active torsions:
REMARK  status: ('A' for Active; 'I' for Inactive)
REMARK    1  A    between atoms: S_2  and  C_5 
REMARK    2  A    between atoms: C_8  and  N_12 
REMARK    3  A    between atoms: C_15  and  O_19 
REMARK    4  A    between atoms: O_19  and  C_20 
REMARK       I    between atoms: N_23  and  C_26 
ROOT
HETATM    1  N   UNK N   1      27.153  18.423   5.188  0.00  0.00    -0.285 N 
HETATM    2  C   UNK N   1      27.401  18.883   6.452  0.00  0.00     0.127 A 
HETATM    3  C   UNK N   1      28.522  18.447   7.171  0.00  0.00     0.083 A 
HETATM    4  C   UNK N   1      29.378  17.513   6.582  0.00  0.00     0.097 A 
HETATM    5  C   UNK N   1      29.185  17.153   5.249  0.00  0.00     0.113 A 
HETATM    6  C   UNK N   1      28.089  17.618   4.553  0.00  0.00     0.254 A 
HETATM    7  O   UNK N   1      27.971  17.304   3.383  0.00  0.00    -0.268 OA
HETATM    8 Cl   UNK N   1      28.726  18.933   8.844  0.00  0.00    -0.080 Cl
ENDROOT
BRANCH   4   9
HETATM    9  O   UNK N   1      30.299  16.849   7.323  0.00  0.00    -0.344 OA
BRANCH   9  10
HETATM   10  C   UNK N   1      31.324  16.205   6.647  0.00  0.00     0.132 C 
HETATM   11  C   UNK N   1      32.490  17.120   6.274  0.00  0.00     0.053 C 
HETATM   12  C   UNK N   1      33.709  16.301   5.777  0.00  0.00     0.143 C 
HETATM   13  N   UNK N   1      33.372  14.897   5.602  0.00  0.00    -0.217 N 
HETATM   14  C   UNK N   1      32.802  14.162   6.712  0.00  0.00     0.143 C 
HETATM   15  C   UNK N   1      33.511  14.271   4.334  0.00  0.00     0.679 A 
HETATM   16  C   UNK N   1      31.851  15.044   7.507  0.00  0.00     0.053 C 
HETATM   17  N   UNK N   1      34.118  14.931   3.310  0.00  0.00    -0.200 N 
HETATM   18  N   UNK N   1      33.050  13.001   4.139  0.00  0.00    -0.200 N 
HETATM   19  C   UNK N   1      34.275  14.344   2.096  0.00  0.00     0.131 A 
ATOM     20  HN  UNK N   1      34.457  15.882   3.457  1.00  0.00     0.183 HD
HETATM   21  C   UNK N   1      33.806  13.052   1.884  0.00  0.00     0.065 A 
HETATM   22  C   UNK N   1      33.183  12.386   2.935  0.00  0.00     0.131 A 
HETATM   23 Cl   UNK N   1      34.002  12.280   0.326  0.00  0.00    -0.081 Cl
ATOM     24  HN  UNK N   1      32.599  12.506   4.909  1.00  0.00     0.183 HD
ENDBRANCH   9  10
ENDBRANCH   4   9
BRANCH   1  25
HETATM   25  C   UNK N   1      25.894  18.760   4.554  0.00  0.00     0.080 A 
HETATM   26  C   UNK N   1      24.765  17.951   4.763  0.00  0.00     0.035 A 
HETATM   27  C   UNK N   1      23.535  18.294   4.198  0.00  0.00     0.026 A 
HETATM   28  C   UNK N   1      23.428  19.425   3.384  0.00  0.00     0.061 A 
HETATM   29  C   UNK N   1      24.552  20.194   3.106  0.00  0.00     0.068 A 
HETATM   30  C   UNK N   1      25.782  19.867   3.669  0.00  0.00     0.145 A 
HETATM   31  F   UNK N   1      26.857  20.612   3.312  0.00  0.00    -0.204 F 
BRANCH  28  32
HETATM   32  S   UNK N   1      21.820  20.021   2.892  0.00  0.00     0.172 S 
HETATM   33  C   UNK N   1      20.890  20.315   1.361  0.00  0.00     0.167 C 
HETATM   34  O   UNK N   1      22.281  21.481   2.972  0.00  0.00    -0.223 OA
HETATM   35  O   UNK N   1      20.910  20.165   4.122  0.00  0.00    -0.223 OA
ENDBRANCH  28  32
ENDBRANCH   1  25
TORSDOF 4
ENDMDL
MODEL 8
REMARK VINA RESULT:      -8.3      4.290      5.583
REMARK  4 active torsions:
REMARK  status: ('A' for Active; 'I' for Inactive)
REMARK    1  A    between atoms: S_2  and  C_5 
REMARK    2  A    between atoms: C_8  and  N_12 
REMARK    3  A    between atoms: C_15  and  O_19 
REMARK    4  A    between atoms: O_19  and  C_20 
REMARK       I    between atoms: N_23  and  C_26 
ROOT
HETATM    1  N   UNK N   1      31.698  16.954   6.857  0.00  0.00    -0.285 N 
HETATM    2  C   UNK N   1      32.112  16.932   5.553  0.00  0.00     0.127 A 
HETATM    3  C   UNK N   1      31.209  17.156   4.506  0.00  0.00     0.083 A 
HETATM    4  C   UNK N   1      29.864  17.384   4.812  0.00  0.00     0.097 A 
HETATM    5  C   UNK N   1      29.483  17.533   6.146  0.00  0.00     0.113 A 
HETATM    6  C   UNK N   1      30.397  17.335   7.159  0.00  0.00     0.254 A 
HETATM    7  O   UNK N   1      30.033  17.502   8.307  0.00  0.00    -0.268 OA
HETATM    8 Cl   UNK N   1      31.737  16.965   2.844  0.00  0.00    -0.080 Cl
ENDROOT
BRANCH   4   9
HETATM    9  O   UNK N   1      28.911  17.320   3.851  0.00  0.00    -0.344 OA
BRANCH   9  10
HETATM   10  C   UNK N   1      27.794  16.537   4.105  0.00  0.00     0.132 C 
HETATM   11  C   UNK N   1      26.492  17.119   3.559  0.00  0.00     0.053 C 
HETATM   12  C   UNK N   1      25.342  16.083   3.626  0.00  0.00     0.143 C 
HETATM   13  N   UNK N   1      25.737  14.897   4.371  0.00  0.00    -0.217 N 
HETATM   14  C   UNK N   1      26.925  14.173   3.970  0.00  0.00     0.143 C 
HETATM   15  C   UNK N   1      25.023  14.499   5.533  0.00  0.00     0.679 A 
HETATM   16  C   UNK N   1      28.009  15.136   3.509  0.00  0.00     0.053 C 
HETATM   17  N   UNK N   1      23.862  15.127   5.869  0.00  0.00    -0.200 N 
HETATM   18  N   UNK N   1      25.489  13.480   6.312  0.00  0.00    -0.200 N 
HETATM   19  C   UNK N   1      23.157  14.751   6.967  0.00  0.00     0.131 A 
ATOM     20  HN  UNK N   1      23.519  15.892   5.288  1.00  0.00     0.183 HD
HETATM   21  C   UNK N   1      23.624  13.716   7.770  0.00  0.00     0.065 A 
HETATM   22  C   UNK N   1      24.814  13.083   7.422  0.00  0.00     0.131 A 
HETATM   23 Cl   UNK N   1      22.726  13.218   9.187  0.00  0.00    -0.081 Cl
ATOM     24  HN  UNK N   1      26.357  13.008   6.057  1.00  0.00     0.183 HD
ENDBRANCH   9  10
ENDBRANCH   4   9
BRANCH   1  25
HETATM   25  C   UNK N   1      32.623  16.543   7.893  0.00  0.00     0.080 A 
HETATM   26  C   UNK N   1      32.550  15.243   8.422  0.00  0.00     0.035 A 
HETATM   27  C   UNK N   1      33.468  14.820   9.385  0.00  0.00     0.026 A 
HETATM   28  C   UNK N   1      34.443  15.701   9.861  0.00  0.00     0.061 A 
HETATM   29  C   UNK N   1      34.482  17.013   9.402  0.00  0.00     0.068 A 
HETATM   30  C   UNK N   1      33.578  17.445   8.437  0.00  0.00     0.145 A 
HETATM   31  F   UNK N   1      33.618  18.751   8.075  0.00  0.00    -0.204 F 
BRANCH  28  32
HETATM   32  S   UNK N   1      35.780  15.090  10.873  0.00  0.00     0.172 S 
HETATM   33  C   UNK N   1      36.148  14.844  12.633  0.00  0.00     0.167 C 
HETATM   34  O   UNK N   1      36.487  16.450  10.846  0.00  0.00    -0.223 OA
HETATM   35  O   UNK N   1      36.852  14.432   9.992  0.00  0.00    -0.223 OA
ENDBRANCH  28  32
ENDBRANCH   1  25
TORSDOF 4
ENDMDL
MODEL 9
REMARK VINA RESULT:      -8.0     11.476     15.282
REMARK  4 active torsions:
REMARK  status: ('A' for Active; 'I' for Inactive)
REMARK    1  A    between atoms: S_2  and  C_5 
REMARK    2  A    between atoms: C_8  and  N_12 
REMARK    3  A    between atoms: C_15  and  O_19 
REMARK    4  A    between atoms: O_19  and  C_20 
REMARK       I    between atoms: N_23  and  C_26 
ROOT
HETATM    1  N   UNK N   1      29.567  23.091  -3.931  0.00  0.00    -0.285 N 
HETATM    2  C   UNK N   1      29.385  22.347  -5.064  0.00  0.00     0.127 A 
HETATM    3  C   UNK N   1      30.092  21.155  -5.266  0.00  0.00     0.083 A 
HETATM    4  C   UNK N   1      31.009  20.743  -4.296  0.00  0.00     0.097 A 
HETATM    5  C   UNK N   1      31.088  21.441  -3.090  0.00  0.00     0.113 A 
HETATM    6  C   UNK N   1      30.360  22.597  -2.904  0.00  0.00     0.254 A 
HETATM    7  O   UNK N   1      30.435  23.160  -1.829  0.00  0.00    -0.268 OA
HETATM    8 Cl   UNK N   1      29.953  20.309  -6.796  0.00  0.00    -0.080 Cl
ENDROOT
BRANCH   4   9
HETATM    9  O   UNK N   1      31.916  19.772  -4.563  0.00  0.00    -0.344 OA
BRANCH   9  10
HETATM   10  C   UNK N   1      33.241  20.154  -4.710  0.00  0.00     0.132 C 
HETATM   11  C   UNK N   1      34.245  19.048  -4.386  0.00  0.00     0.053 C 
HETATM   12  C   UNK N   1      35.676  19.441  -4.831  0.00  0.00     0.143 C 
HETATM   13  N   UNK N   1      35.739  20.830  -5.258  0.00  0.00    -0.217 N 
HETATM   14  C   UNK N   1      34.840  21.293  -6.294  0.00  0.00     0.143 C 
HETATM   15  C   UNK N   1      36.605  21.750  -4.607  0.00  0.00     0.679 A 
HETATM   16  C   UNK N   1      33.474  20.638  -6.151  0.00  0.00     0.053 C 
HETATM   17  N   UNK N   1      37.507  21.305  -3.689  0.00  0.00    -0.200 N 
HETATM   18  N   UNK N   1      36.548  23.080  -4.908  0.00  0.00    -0.200 N 
HETATM   19  C   UNK N   1      38.354  22.166  -3.068  0.00  0.00     0.131 A 
ATOM     20  HN  UNK N   1      37.544  20.311  -3.462  1.00  0.00     0.183 HD
HETATM   21  C   UNK N   1      38.302  23.524  -3.364  0.00  0.00     0.065 A 
HETATM   22  C   UNK N   1      37.375  23.970  -4.301  0.00  0.00     0.131 A 
HETATM   23 Cl   UNK N   1      39.388  24.647  -2.575  0.00  0.00    -0.081 Cl
ATOM     24  HN  UNK N   1      35.874  23.411  -5.599  1.00  0.00     0.183 HD
ENDBRANCH   9  10
ENDBRANCH   4   9
BRANCH   1  25
HETATM   25  C   UNK N   1      28.952  24.401  -3.845  0.00  0.00     0.080 A 
HETATM   26  C   UNK N   1      29.717  25.551  -4.100  0.00  0.00     0.035 A 
HETATM   27  C   UNK N   1      29.123  26.815  -4.069  0.00  0.00     0.026 A 
HETATM   28  C   UNK N   1      27.771  26.948  -3.742  0.00  0.00     0.061 A 
HETATM   29  C   UNK N   1      27.019  25.825  -3.414  0.00  0.00     0.068 A 
HETATM   30  C   UNK N   1      27.596  24.560  -3.449  0.00  0.00     0.145 A 
HETATM   31  F   UNK N   1      26.835  23.508  -3.056  0.00  0.00    -0.204 F 
BRANCH  28  32
HETATM   32  S   UNK N   1      26.947  28.513  -3.973  0.00  0.00     0.172 S 
HETATM   33  C   UNK N   1      26.974  30.181  -3.257  0.00  0.00     0.167 C 
HETATM   34  O   UNK N   1      25.771  28.081  -3.089  0.00  0.00    -0.223 OA
HETATM   35  O   UNK N   1      26.094  28.479  -5.250  0.00  0.00    -0.223 OA
ENDBRANCH  28  32
ENDBRANCH   1  25
TORSDOF 4
ENDMDL
