MODEL 1
REMARK VINA RESULT:      -5.7      0.000      0.000
REMARK  16 active torsions:
REMARK  status: ('A' for Active; 'I' for Inactive)
REMARK    1  A    between atoms: C_5  and  C_2 
REMARK    2  A    between atoms: C_6  and  C_2 
REMARK    3  A    between atoms: C_7  and  C_3 
REMARK    4  A    between atoms: O_14  and  C_3 
REMARK    5  A    between atoms: O_15  and  C_4 
REMARK    6  A    between atoms: C_8  and  C_5 
REMARK    7  A    between atoms: C_5  and  O_16 
REMARK    8  A    between atoms: C_11  and  C_6 
REMARK    9  A    between atoms: C_9  and  C_7 
REMARK   10  A    between atoms: C_7  and  O_18 
REMARK   11  A    between atoms: C_10  and  C_8 
REMARK   12  A    between atoms: C_8  and  N_12 
REMARK   13  A    between atoms: C_10  and  C_9 
REMARK   14  A    between atoms: C_9  and  O_19 
REMARK   15  A    between atoms: C_10  and  O_20 
REMARK   16  A    between atoms: O_21  and  C_11 
ROOT
HETATM    1  C   UNK N   1      35.309  14.103  10.597  0.00  0.00     0.143 C 
ENDROOT
BRANCH   1   2
HETATM    2  C   UNK N   1      33.991  14.707  10.021  0.00  0.00     0.151 C 
BRANCH   2   3
HETATM    3  C   UNK N   1      34.253  15.774   8.938  0.00  0.00     0.124 C 
BRANCH   3   4
HETATM    4  C   UNK N   1      34.825  17.127   9.298  0.00  0.00     0.224 C 
HETATM    5  O   UNK N   1      35.262  17.358  10.413  0.00  0.00    -0.286 OA
BRANCH   4   6
HETATM    6  C   UNK N   1      34.840  18.193   8.278  0.00  0.00     0.213 C 
HETATM    7  O   UNK N   1      35.273  19.302   8.549  0.00  0.00    -0.644 OA
BRANCH   6   8
HETATM    8  O   UNK N   1      34.369  17.948   7.040  0.00  0.00    -0.771 OA
HETATM    9  H   UNK N   1      34.863  17.578   6.335  0.00  0.00     0.167 HD
ENDBRANCH   6   8
ENDBRANCH   4   6
ENDBRANCH   3   4
ENDBRANCH   2   3
BRANCH   2  10
HETATM   10  O   UNK N   1      33.176  15.194  11.047  0.00  0.00    -0.393 OA
HETATM   11  H   UNK N   1      32.212  15.091  11.010  0.00  0.00     0.210 HD
ENDBRANCH   2  10
ENDBRANCH   1   2
BRANCH   1  12
HETATM   12  C   UNK N   1      35.403  14.411  12.125  0.00  0.00     0.174 C 
BRANCH  12  13
HETATM   13  C   UNK N   1      35.542  13.173  13.057  0.00  0.00     0.179 C 
BRANCH  13  14
HETATM   14  C   UNK N   1      35.932  13.605  14.492  0.00  0.00     0.173 C 
BRANCH  14  15
HETATM   15  C   UNK N   1      35.290  12.726  15.563  0.00  0.00     0.198 C 
BRANCH  15  16
HETATM   16  O   UNK N   1      34.044  13.228  15.944  0.00  0.00    -0.398 OA
HETATM   17  H   UNK N   1      33.283  13.740  16.257  0.00  0.00     0.209 HD
ENDBRANCH  15  16
ENDBRANCH  14  15
BRANCH  14  18
HETATM   18  O   UNK N   1      37.318  13.594  14.665  0.00  0.00    -0.391 OA
HETATM   19  H   UNK N   1      37.847  14.397  14.536  0.00  0.00     0.210 HD
ENDBRANCH  14  18
ENDBRANCH  13  14
BRANCH  13  20
HETATM   20  O   UNK N   1      34.324  12.489  13.131  0.00  0.00    -0.390 OA
HETATM   21  H   UNK N   1      33.575  12.740  12.567  0.00  0.00     0.210 HD
ENDBRANCH  13  20
ENDBRANCH  12  13
BRANCH  12  22
HETATM   22  O   UNK N   1      36.484  15.267  12.359  0.00  0.00    -0.391 OA
HETATM   23  H   UNK N   1      36.825  15.853  11.664  0.00  0.00     0.210 HD
ENDBRANCH  12  22
ENDBRANCH   1  12
BRANCH   1  24
HETATM   24  N   UNK N   1      35.300  12.659  10.407  0.00  0.00    -0.365 N 
HETATM   25  C   UNK N   1      35.843  12.049   9.404  0.00  0.00     0.107 C 
HETATM   26  C   UNK N   1      35.758  10.566   9.319  0.00  0.00     0.097 C 
ATOM     27  HN  UNK N   1      34.834  12.090  11.112  1.00  0.00     0.161 HD
BRANCH  25  28
HETATM   28  O   UNK N   1      36.490  12.731   8.438  0.00  0.00    -0.350 OA
HETATM   29  H   UNK N   1      36.319  13.292   7.706  0.00  0.00     0.219 HD
ENDBRANCH  25  28
ENDBRANCH   1  24
TORSDOF 16
ENDMDL
MODEL 2
REMARK VINA RESULT:      -5.5     13.676     16.336
REMARK  16 active torsions:
REMARK  status: ('A' for Active; 'I' for Inactive)
REMARK    1  A    between atoms: C_5  and  C_2 
REMARK    2  A    between atoms: C_6  and  C_2 
REMARK    3  A    between atoms: C_7  and  C_3 
REMARK    4  A    between atoms: O_14  and  C_3 
REMARK    5  A    between atoms: O_15  and  C_4 
REMARK    6  A    between atoms: C_8  and  C_5 
REMARK    7  A    between atoms: C_5  and  O_16 
REMARK    8  A    between atoms: C_11  and  C_6 
REMARK    9  A    between atoms: C_9  and  C_7 
REMARK   10  A    between atoms: C_7  and  O_18 
REMARK   11  A    between atoms: C_10  and  C_8 
REMARK   12  A    between atoms: C_8  and  N_12 
REMARK   13  A    between atoms: C_10  and  C_9 
REMARK   14  A    between atoms: C_9  and  O_19 
REMARK   15  A    between atoms: C_10  and  O_20 
REMARK   16  A    between atoms: O_21  and  C_11 
ROOT
HETATM    1  C   UNK N   1      22.075  18.343   5.478  0.00  0.00     0.143 C 
ENDROOT
BRANCH   1   2
HETATM    2  C   UNK N   1      23.475  17.715   5.194  0.00  0.00     0.151 C 
BRANCH   2   3
HETATM    3  C   UNK N   1      24.141  18.300   3.931  0.00  0.00     0.124 C 
BRANCH   3   4
HETATM    4  C   UNK N   1      24.727  19.695   3.934  0.00  0.00     0.224 C 
HETATM    5  O   UNK N   1      25.496  20.061   4.808  0.00  0.00    -0.286 OA
BRANCH   4   6
HETATM    6  C   UNK N   1      24.348  20.633   2.860  0.00  0.00     0.213 C 
HETATM    7  O   UNK N   1      25.066  20.776   1.884  0.00  0.00    -0.644 OA
BRANCH   6   8
HETATM    8  O   UNK N   1      23.207  21.343   2.957  0.00  0.00    -0.771 OA
HETATM    9  H   UNK N   1      22.342  20.980   2.963  0.00  0.00     0.167 HD
ENDBRANCH   6   8
ENDBRANCH   4   6
ENDBRANCH   3   4
ENDBRANCH   2   3
BRANCH   2  10
HETATM   10  O   UNK N   1      23.396  16.321   5.144  0.00  0.00    -0.393 OA
HETATM   11  H   UNK N   1      24.183  15.771   5.276  0.00  0.00     0.210 HD
ENDBRANCH   2  10
ENDBRANCH   1   2
BRANCH   1  12
HETATM   12  C   UNK N   1      21.387  18.720   4.128  0.00  0.00     0.174 C 
BRANCH  12  13
HETATM   13  C   UNK N   1      20.365  17.684   3.577  0.00  0.00     0.179 C 
BRANCH  13  14
HETATM   14  C   UNK N   1      19.756  18.171   2.238  0.00  0.00     0.173 C 
BRANCH  14  15
HETATM   15  C   UNK N   1      19.862  17.124   1.132  0.00  0.00     0.198 C 
BRANCH  15  16
HETATM   16  O   UNK N   1      18.658  17.006   0.436  0.00  0.00    -0.398 OA
HETATM   17  H   UNK N   1      17.817  16.740   0.032  0.00  0.00     0.209 HD
ENDBRANCH  15  16
ENDBRANCH  14  15
BRANCH  14  18
HETATM   18  O   UNK N   1      18.416  18.534   2.394  0.00  0.00    -0.391 OA
HETATM   19  H   UNK N   1      18.168  19.415   2.716  0.00  0.00     0.210 HD
ENDBRANCH  14  18
ENDBRANCH  13  14
BRANCH  13  20
HETATM   20  O   UNK N   1      21.002  16.462   3.339  0.00  0.00    -0.390 OA
HETATM   21  H   UNK N   1      20.745  15.663   3.826  0.00  0.00     0.210 HD
ENDBRANCH  13  20
ENDBRANCH  12  13
BRANCH  12  22
HETATM   22  O   UNK N   1      20.739  19.952   4.268  0.00  0.00    -0.391 OA
HETATM   23  H   UNK N   1      20.256  20.181   5.078  0.00  0.00     0.210 HD
ENDBRANCH  12  22
ENDBRANCH   1  12
BRANCH   1  24
HETATM   24  N   UNK N   1      21.244  17.370   6.174  0.00  0.00    -0.365 N 
HETATM   25  C   UNK N   1      20.578  17.616   7.255  0.00  0.00     0.107 C 
HETATM   26  C   UNK N   1      19.770  16.532   7.878  0.00  0.00     0.097 C 
ATOM     27  HN  UNK N   1      21.182  16.430   5.783  1.00  0.00     0.161 HD
BRANCH  25  28
HETATM   28  O   UNK N   1      20.597  18.838   7.825  0.00  0.00    -0.350 OA
HETATM   29  H   UNK N   1      20.667  19.245   8.667  0.00  0.00     0.219 HD
ENDBRANCH  25  28
ENDBRANCH   1  24
TORSDOF 16
ENDMDL
MODEL 3
REMARK VINA RESULT:      -5.5      4.340      7.322
REMARK  16 active torsions:
REMARK  status: ('A' for Active; 'I' for Inactive)
REMARK    1  A    between atoms: C_5  and  C_2 
REMARK    2  A    between atoms: C_6  and  C_2 
REMARK    3  A    between atoms: C_7  and  C_3 
REMARK    4  A    between atoms: O_14  and  C_3 
REMARK    5  A    between atoms: O_15  and  C_4 
REMARK    6  A    between atoms: C_8  and  C_5 
REMARK    7  A    between atoms: C_5  and  O_16 
REMARK    8  A    between atoms: C_11  and  C_6 
REMARK    9  A    between atoms: C_9  and  C_7 
REMARK   10  A    between atoms: C_7  and  O_18 
REMARK   11  A    between atoms: C_10  and  C_8 
REMARK   12  A    between atoms: C_8  and  N_12 
REMARK   13  A    between atoms: C_10  and  C_9 
REMARK   14  A    between atoms: C_9  and  O_19 
REMARK   15  A    between atoms: C_10  and  O_20 
REMARK   16  A    between atoms: O_21  and  C_11 
ROOT
HETATM    1  C   UNK N   1      31.325  16.161   8.165  0.00  0.00     0.143 C 
ENDROOT
BRANCH   1   2
HETATM    2  C   UNK N   1      32.302  16.036   9.375  0.00  0.00     0.151 C 
BRANCH   2   3
HETATM    3  C   UNK N   1      33.782  16.000   8.939  0.00  0.00     0.124 C 
BRANCH   3   4
HETATM    4  C   UNK N   1      34.704  17.166   9.215  0.00  0.00     0.224 C 
HETATM    5  O   UNK N   1      35.368  17.227  10.237  0.00  0.00    -0.286 OA
BRANCH   4   6
HETATM    6  C   UNK N   1      34.792  18.259   8.227  0.00  0.00     0.213 C 
HETATM    7  O   UNK N   1      34.354  18.107   7.098  0.00  0.00    -0.644 OA
BRANCH   6   8
HETATM    8  O   UNK N   1      35.363  19.431   8.568  0.00  0.00    -0.771 OA
HETATM    9  H   UNK N   1      36.174  19.757   8.229  0.00  0.00     0.167 HD
ENDBRANCH   6   8
ENDBRANCH   4   6
ENDBRANCH   3   4
ENDBRANCH   2   3
BRANCH   2  10
HETATM   10  O   UNK N   1      31.967  14.941  10.176  0.00  0.00    -0.393 OA
HETATM   11  H   UNK N   1      31.670  15.064  11.091  0.00  0.00     0.210 HD
ENDBRANCH   2  10
ENDBRANCH   1   2
BRANCH   1  12
HETATM   12  C   UNK N   1      30.589  17.537   8.226  0.00  0.00     0.174 C 
BRANCH  12  13
HETATM   13  C   UNK N   1      29.171  17.574   7.586  0.00  0.00     0.179 C 
BRANCH  13  14
HETATM   14  C   UNK N   1      28.345  18.758   8.149  0.00  0.00     0.173 C 
BRANCH  14  15
HETATM   15  C   UNK N   1      27.441  19.393   7.095  0.00  0.00     0.198 C 
BRANCH  15  16
HETATM   16  O   UNK N   1      28.015  20.554   6.574  0.00  0.00    -0.398 OA
HETATM   17  H   UNK N   1      28.230  21.436   6.233  0.00  0.00     0.209 HD
ENDBRANCH  15  16
ENDBRANCH  14  15
BRANCH  14  18
HETATM   18  O   UNK N   1      27.565  18.359   9.237  0.00  0.00    -0.391 OA
HETATM   19  H   UNK N   1      27.184  19.010   9.847  0.00  0.00     0.210 HD
ENDBRANCH  14  18
ENDBRANCH  13  14
BRANCH  13  20
HETATM   20  O   UNK N   1      29.273  17.742   6.201  0.00  0.00    -0.390 OA
HETATM   21  H   UNK N   1      28.481  17.861   5.654  0.00  0.00     0.210 HD
ENDBRANCH  13  20
ENDBRANCH  12  13
BRANCH  12  22
HETATM   22  O   UNK N   1      30.486  17.947   9.559  0.00  0.00    -0.391 OA
HETATM   23  H   UNK N   1      30.171  18.835   9.793  0.00  0.00     0.210 HD
ENDBRANCH  12  22
ENDBRANCH   1  12
BRANCH   1  24
HETATM   24  N   UNK N   1      32.083  16.087   6.924  0.00  0.00    -0.365 N 
HETATM   25  C   UNK N   1      31.848  15.245   5.971  0.00  0.00     0.107 C 
HETATM   26  C   UNK N   1      32.703  15.264   4.752  0.00  0.00     0.097 C 
ATOM     27  HN  UNK N   1      32.853  16.744   6.797  1.00  0.00     0.161 HD
BRANCH  25  28
HETATM   28  O   UNK N   1      30.839  14.354   6.058  0.00  0.00    -0.350 OA
HETATM   29  H   UNK N   1      30.654  13.449   5.897  0.00  0.00     0.219 HD
ENDBRANCH  25  28
ENDBRANCH   1  24
TORSDOF 16
ENDMDL
MODEL 4
REMARK VINA RESULT:      -5.4      1.731      2.108
REMARK  16 active torsions:
REMARK  status: ('A' for Active; 'I' for Inactive)
REMARK    1  A    between atoms: C_5  and  C_2 
REMARK    2  A    between atoms: C_6  and  C_2 
REMARK    3  A    between atoms: C_7  and  C_3 
REMARK    4  A    between atoms: O_14  and  C_3 
REMARK    5  A    between atoms: O_15  and  C_4 
REMARK    6  A    between atoms: C_8  and  C_5 
REMARK    7  A    between atoms: C_5  and  O_16 
REMARK    8  A    between atoms: C_11  and  C_6 
REMARK    9  A    between atoms: C_9  and  C_7 
REMARK   10  A    between atoms: C_7  and  O_18 
REMARK   11  A    between atoms: C_10  and  C_8 
REMARK   12  A    between atoms: C_8  and  N_12 
REMARK   13  A    between atoms: C_10  and  C_9 
REMARK   14  A    between atoms: C_9  and  O_19 
REMARK   15  A    between atoms: C_10  and  O_20 
REMARK   16  A    between atoms: O_21  and  C_11 
ROOT
HETATM    1  C   UNK N   1      36.114  14.915  10.731  0.00  0.00     0.143 C 
ENDROOT
BRANCH   1   2
HETATM    2  C   UNK N   1      35.012  15.996  10.503  0.00  0.00     0.151 C 
BRANCH   2   3
HETATM    3  C   UNK N   1      34.385  15.914   9.095  0.00  0.00     0.124 C 
BRANCH   3   4
HETATM    4  C   UNK N   1      33.618  17.081   8.514  0.00  0.00     0.224 C 
HETATM    5  O   UNK N   1      32.412  17.191   8.668  0.00  0.00    -0.286 OA
BRANCH   4   6
HETATM    6  C   UNK N   1      34.346  18.100   7.735  0.00  0.00     0.213 C 
HETATM    7  O   UNK N   1      34.329  18.073   6.515  0.00  0.00    -0.644 OA
BRANCH   6   8
HETATM    8  O   UNK N   1      35.039  19.066   8.370  0.00  0.00    -0.771 OA
HETATM    9  H   UNK N   1      34.668  19.836   8.755  0.00  0.00     0.167 HD
ENDBRANCH   6   8
ENDBRANCH   4   6
ENDBRANCH   3   4
ENDBRANCH   2   3
BRANCH   2  10
HETATM   10  O   UNK N   1      35.501  17.274  10.783  0.00  0.00    -0.393 OA
HETATM   11  H   UNK N   1      36.304  17.607  10.353  0.00  0.00     0.210 HD
ENDBRANCH   2  10
ENDBRANCH   1   2
BRANCH   1  12
HETATM   12  C   UNK N   1      35.538  13.754  11.603  0.00  0.00     0.174 C 
BRANCH  12  13
HETATM   13  C   UNK N   1      36.420  13.309  12.804  0.00  0.00     0.179 C 
BRANCH  13  14
HETATM   14  C   UNK N   1      36.070  14.123  14.075  0.00  0.00     0.173 C 
BRANCH  14  15
HETATM   15  C   UNK N   1      35.563  13.241  15.213  0.00  0.00     0.198 C 
BRANCH  15  16
HETATM   16  O   UNK N   1      34.238  12.858  15.000  0.00  0.00    -0.398 OA
HETATM   17  H   UNK N   1      33.397  12.412  14.814  0.00  0.00     0.209 HD
ENDBRANCH  15  16
ENDBRANCH  14  15
BRANCH  14  18
HETATM   18  O   UNK N   1      37.170  14.857  14.524  0.00  0.00    -0.391 OA
HETATM   19  H   UNK N   1      37.125  15.822  14.620  0.00  0.00     0.210 HD
ENDBRANCH  14  18
ENDBRANCH  13  14
BRANCH  13  20
HETATM   20  O   UNK N   1      36.199  11.957  13.086  0.00  0.00    -0.390 OA
HETATM   21  H   UNK N   1      36.546  11.262  12.504  0.00  0.00     0.210 HD
ENDBRANCH  13  20
ENDBRANCH  12  13
BRANCH  12  22
HETATM   22  O   UNK N   1      34.278  14.123  12.088  0.00  0.00    -0.391 OA
HETATM   23  H   UNK N   1      33.561  13.477  12.177  0.00  0.00     0.210 HD
ENDBRANCH  12  22
ENDBRANCH   1  12
BRANCH   1  24
HETATM   24  N   UNK N   1      36.532  14.374   9.444  0.00  0.00    -0.365 N 
HETATM   25  C   UNK N   1      37.756  14.109   9.124  0.00  0.00     0.107 C 
HETATM   26  C   UNK N   1      38.056  13.566   7.771  0.00  0.00     0.097 C 
ATOM     27  HN  UNK N   1      35.810  14.193   8.748  1.00  0.00     0.161 HD
BRANCH  25  28
HETATM   28  O   UNK N   1      38.765  14.308   9.996  0.00  0.00    -0.350 OA
HETATM   29  H   UNK N   1      38.996  14.845  10.729  0.00  0.00     0.219 HD
ENDBRANCH  25  28
ENDBRANCH   1  24
TORSDOF 16
ENDMDL
MODEL 5
REMARK VINA RESULT:      -5.4      3.499      5.876
REMARK  16 active torsions:
REMARK  status: ('A' for Active; 'I' for Inactive)
REMARK    1  A    between atoms: C_5  and  C_2 
REMARK    2  A    between atoms: C_6  and  C_2 
REMARK    3  A    between atoms: C_7  and  C_3 
REMARK    4  A    between atoms: O_14  and  C_3 
REMARK    5  A    between atoms: O_15  and  C_4 
REMARK    6  A    between atoms: C_8  and  C_5 
REMARK    7  A    between atoms: C_5  and  O_16 
REMARK    8  A    between atoms: C_11  and  C_6 
REMARK    9  A    between atoms: C_9  and  C_7 
REMARK   10  A    between atoms: C_7  and  O_18 
REMARK   11  A    between atoms: C_10  and  C_8 
REMARK   12  A    between atoms: C_8  and  N_12 
REMARK   13  A    between atoms: C_10  and  C_9 
REMARK   14  A    between atoms: C_9  and  O_19 
REMARK   15  A    between atoms: C_10  and  O_20 
REMARK   16  A    between atoms: O_21  and  C_11 
ROOT
HETATM    1  C   UNK N   1      32.764  16.684   7.669  0.00  0.00     0.143 C 
ENDROOT
BRANCH   1   2
HETATM    2  C   UNK N   1      33.459  17.609   6.622  0.00  0.00     0.151 C 
BRANCH   2   3
HETATM    3  C   UNK N   1      33.743  16.886   5.289  0.00  0.00     0.124 C 
BRANCH   3   4
HETATM    4  C   UNK N   1      32.633  16.207   4.518  0.00  0.00     0.224 C 
HETATM    5  O   UNK N   1      32.574  14.992   4.421  0.00  0.00    -0.286 OA
BRANCH   4   6
HETATM    6  C   UNK N   1      31.606  17.038   3.861  0.00  0.00     0.213 C 
HETATM    7  O   UNK N   1      30.642  17.442   4.491  0.00  0.00    -0.644 OA
BRANCH   6   8
HETATM    8  O   UNK N   1      31.727  17.351   2.555  0.00  0.00    -0.771 OA
HETATM    9  H   UNK N   1      31.137  17.085   1.877  0.00  0.00     0.167 HD
ENDBRANCH   6   8
ENDBRANCH   4   6
ENDBRANCH   3   4
ENDBRANCH   2   3
BRANCH   2  10
HETATM   10  O   UNK N   1      34.612  18.190   7.157  0.00  0.00    -0.393 OA
HETATM   11  H   UNK N   1      35.404  17.659   7.332  0.00  0.00     0.210 HD
ENDBRANCH   2  10
ENDBRANCH   1   2
BRANCH   1  12
HETATM   12  C   UNK N   1      33.846  15.877   8.454  0.00  0.00     0.174 C 
BRANCH  12  13
HETATM   13  C   UNK N   1      34.009  16.248   9.956  0.00  0.00     0.179 C 
BRANCH  13  14
HETATM   14  C   UNK N   1      34.768  15.134  10.719  0.00  0.00     0.173 C 
BRANCH  14  15
HETATM   15  C   UNK N   1      35.865  15.687  11.624  0.00  0.00     0.198 C 
BRANCH  15  16
HETATM   16  O   UNK N   1      37.013  15.994  10.892  0.00  0.00    -0.398 OA
HETATM   17  H   UNK N   1      37.797  16.017  10.321  0.00  0.00     0.209 HD
ENDBRANCH  15  16
ENDBRANCH  14  15
BRANCH  14  18
HETATM   18  O   UNK N   1      33.893  14.359  11.485  0.00  0.00    -0.391 OA
HETATM   19  H   UNK N   1      33.896  13.391  11.426  0.00  0.00     0.210 HD
ENDBRANCH  14  18
ENDBRANCH  13  14
BRANCH  13  20
HETATM   20  O   UNK N   1      34.746  17.431  10.080  0.00  0.00    -0.390 OA
HETATM   21  H   UNK N   1      35.351  17.718   9.378  0.00  0.00     0.210 HD
ENDBRANCH  13  20
ENDBRANCH  12  13
BRANCH  12  22
HETATM   22  O   UNK N   1      33.559  14.511   8.362  0.00  0.00    -0.391 OA
HETATM   23  H   UNK N   1      33.043  14.055   9.046  0.00  0.00     0.210 HD
ENDBRANCH  12  22
ENDBRANCH   1  12
BRANCH   1  24
HETATM   24  N   UNK N   1      32.012  17.503   8.610  0.00  0.00    -0.365 N 
HETATM   25  C   UNK N   1      30.767  17.823   8.470  0.00  0.00     0.107 C 
HETATM   26  C   UNK N   1      30.112  18.675   9.500  0.00  0.00     0.097 C 
ATOM     27  HN  UNK N   1      32.500  17.847   9.436  1.00  0.00     0.161 HD
BRANCH  25  28
HETATM   28  O   UNK N   1      30.049  17.394   7.412  0.00  0.00    -0.350 OA
HETATM   29  H   UNK N   1      30.017  17.470   6.478  0.00  0.00     0.219 HD
ENDBRANCH  25  28
ENDBRANCH   1  24
TORSDOF 16
ENDMDL
MODEL 6
REMARK VINA RESULT:      -5.3      5.370      9.043
REMARK  16 active torsions:
REMARK  status: ('A' for Active; 'I' for Inactive)
REMARK    1  A    between atoms: C_5  and  C_2 
REMARK    2  A    between atoms: C_6  and  C_2 
REMARK    3  A    between atoms: C_7  and  C_3 
REMARK    4  A    between atoms: O_14  and  C_3 
REMARK    5  A    between atoms: O_15  and  C_4 
REMARK    6  A    between atoms: C_8  and  C_5 
REMARK    7  A    between atoms: C_5  and  O_16 
REMARK    8  A    between atoms: C_11  and  C_6 
REMARK    9  A    between atoms: C_9  and  C_7 
REMARK   10  A    between atoms: C_7  and  O_18 
REMARK   11  A    between atoms: C_10  and  C_8 
REMARK   12  A    between atoms: C_8  and  N_12 
REMARK   13  A    between atoms: C_10  and  C_9 
REMARK   14  A    between atoms: C_9  and  O_19 
REMARK   15  A    between atoms: C_10  and  O_20 
REMARK   16  A    between atoms: O_21  and  C_11 
ROOT
HETATM    1  C   UNK N   1      30.775  17.185   6.623  0.00  0.00     0.143 C 
ENDROOT
BRANCH   1   2
HETATM    2  C   UNK N   1      31.766  16.002   6.391  0.00  0.00     0.151 C 
BRANCH   2   3
HETATM    3  C   UNK N   1      33.062  16.145   7.217  0.00  0.00     0.124 C 
BRANCH   3   4
HETATM    4  C   UNK N   1      33.913  17.392   7.120  0.00  0.00     0.224 C 
HETATM    5  O   UNK N   1      34.233  17.864   6.042  0.00  0.00    -0.286 OA
BRANCH   4   6
HETATM    6  C   UNK N   1      34.375  18.040   8.362  0.00  0.00     0.213 C 
HETATM    7  O   UNK N   1      35.042  19.061   8.314  0.00  0.00    -0.644 OA
BRANCH   6   8
HETATM    8  O   UNK N   1      34.067  17.503   9.559  0.00  0.00    -0.771 OA
HETATM    9  H   UNK N   1      33.803  17.985  10.318  0.00  0.00     0.167 HD
ENDBRANCH   6   8
ENDBRANCH   4   6
ENDBRANCH   3   4
ENDBRANCH   2   3
BRANCH   2  10
HETATM   10  O   UNK N   1      32.030  15.832   5.029  0.00  0.00    -0.393 OA
HETATM   11  H   UNK N   1      32.805  15.333   4.729  0.00  0.00     0.210 HD
ENDBRANCH   2  10
ENDBRANCH   1   2
BRANCH   1  12
HETATM   12  C   UNK N   1      29.824  17.321   5.391  0.00  0.00     0.174 C 
BRANCH  12  13
HETATM   13  C   UNK N   1      28.450  17.994   5.669  0.00  0.00     0.179 C 
BRANCH  13  14
HETATM   14  C   UNK N   1      27.824  18.528   4.356  0.00  0.00     0.173 C 
BRANCH  14  15
HETATM   15  C   UNK N   1      26.297  18.500   4.382  0.00  0.00     0.198 C 
BRANCH  15  16
HETATM   16  O   UNK N   1      25.801  19.189   5.490  0.00  0.00    -0.398 OA
HETATM   17  H   UNK N   1      25.619  19.783   6.235  0.00  0.00     0.209 HD
ENDBRANCH  15  16
ENDBRANCH  14  15
BRANCH  14  18
HETATM   18  O   UNK N   1      28.250  19.831   4.085  0.00  0.00    -0.391 OA
HETATM   19  H   UNK N   1      27.626  20.574   4.091  0.00  0.00     0.210 HD
ENDBRANCH  14  18
ENDBRANCH  13  14
BRANCH  13  20
HETATM   20  O   UNK N   1      27.562  17.064   6.220  0.00  0.00    -0.390 OA
HETATM   21  H   UNK N   1      26.906  16.612   5.666  0.00  0.00     0.210 HD
ENDBRANCH  13  20
ENDBRANCH  12  13
BRANCH  12  22
HETATM   22  O   UNK N   1      30.476  18.039   4.383  0.00  0.00    -0.391 OA
HETATM   23  H   UNK N   1      30.089  18.134   3.498  0.00  0.00     0.210 HD
ENDBRANCH  12  22
ENDBRANCH   1  12
BRANCH   1  24
HETATM   24  N   UNK N   1      29.973  16.916   7.809  0.00  0.00    -0.365 N 
HETATM   25  C   UNK N   1      30.143  17.491   8.954  0.00  0.00     0.107 C 
HETATM   26  C   UNK N   1      29.261  17.123  10.095  0.00  0.00     0.097 C 
ATOM     27  HN  UNK N   1      29.226  16.225   7.731  1.00  0.00     0.161 HD
BRANCH  25  28
HETATM   28  O   UNK N   1      31.099  18.425   9.132  0.00  0.00    -0.350 OA
HETATM   29  H   UNK N   1      31.287  19.181   9.654  0.00  0.00     0.219 HD
ENDBRANCH  25  28
ENDBRANCH   1  24
TORSDOF 16
ENDMDL
MODEL 7
REMARK VINA RESULT:      -5.3      3.928      6.991
REMARK  16 active torsions:
REMARK  status: ('A' for Active; 'I' for Inactive)
REMARK    1  A    between atoms: C_5  and  C_2 
REMARK    2  A    between atoms: C_6  and  C_2 
REMARK    3  A    between atoms: C_7  and  C_3 
REMARK    4  A    between atoms: O_14  and  C_3 
REMARK    5  A    between atoms: O_15  and  C_4 
REMARK    6  A    between atoms: C_8  and  C_5 
REMARK    7  A    between atoms: C_5  and  O_16 
REMARK    8  A    between atoms: C_11  and  C_6 
REMARK    9  A    between atoms: C_9  and  C_7 
REMARK   10  A    between atoms: C_7  and  O_18 
REMARK   11  A    between atoms: C_10  and  C_8 
REMARK   12  A    between atoms: C_8  and  N_12 
REMARK   13  A    between atoms: C_10  and  C_9 
REMARK   14  A    between atoms: C_9  and  O_19 
REMARK   15  A    between atoms: C_10  and  O_20 
REMARK   16  A    between atoms: O_21  and  C_11 
ROOT
HETATM    1  C   UNK N   1      32.913  16.814   6.983  0.00  0.00     0.143 C 
ENDROOT
BRANCH   1   2
HETATM    2  C   UNK N   1      34.428  17.002   7.309  0.00  0.00     0.151 C 
BRANCH   2   3
HETATM    3  C   UNK N   1      34.944  15.973   8.336  0.00  0.00     0.124 C 
BRANCH   3   4
HETATM    4  C   UNK N   1      35.051  16.322   9.804  0.00  0.00     0.224 C 
HETATM    5  O   UNK N   1      35.471  17.406  10.173  0.00  0.00    -0.286 OA
BRANCH   4   6
HETATM    6  C   UNK N   1      34.647  15.320  10.809  0.00  0.00     0.213 C 
HETATM    7  O   UNK N   1      35.491  14.684  11.420  0.00  0.00    -0.644 OA
BRANCH   6   8
HETATM    8  O   UNK N   1      33.341  15.099  11.054  0.00  0.00    -0.771 OA
HETATM    9  H   UNK N   1      32.750  15.715  11.440  0.00  0.00     0.167 HD
ENDBRANCH   6   8
ENDBRANCH   4   6
ENDBRANCH   3   4
ENDBRANCH   2   3
BRANCH   2  10
HETATM   10  O   UNK N   1      34.693  18.315   7.708  0.00  0.00    -0.393 OA
HETATM   11  H   UNK N   1      34.487  19.065   7.128  0.00  0.00     0.210 HD
ENDBRANCH   2  10
ENDBRANCH   1   2
BRANCH   1  12
HETATM   12  C   UNK N   1      32.057  17.708   7.935  0.00  0.00     0.174 C 
BRANCH  12  13
HETATM   13  C   UNK N   1      30.523  17.456   7.900  0.00  0.00     0.179 C 
BRANCH  13  14
HETATM   14  C   UNK N   1      29.775  18.491   8.778  0.00  0.00     0.173 C 
BRANCH  14  15
HETATM   15  C   UNK N   1      28.330  18.701   8.333  0.00  0.00     0.198 C 
BRANCH  15  16
HETATM   16  O   UNK N   1      27.435  18.303   9.327  0.00  0.00    -0.398 OA
HETATM   17  H   UNK N   1      26.869  18.197  10.108  0.00  0.00     0.209 HD
ENDBRANCH  15  16
ENDBRANCH  14  15
BRANCH  14  18
HETATM   18  O   UNK N   1      29.786  18.116  10.123  0.00  0.00    -0.391 OA
HETATM   19  H   UNK N   1      30.107  18.721  10.811  0.00  0.00     0.210 HD
ENDBRANCH  14  18
ENDBRANCH  13  14
BRANCH  13  20
HETATM   20  O   UNK N   1      30.046  17.580   6.591  0.00  0.00    -0.390 OA
HETATM   21  H   UNK N   1      29.188  17.205   6.335  0.00  0.00     0.210 HD
ENDBRANCH  13  20
ENDBRANCH  12  13
BRANCH  12  22
HETATM   22  O   UNK N   1      32.505  17.542   9.250  0.00  0.00    -0.391 OA
HETATM   23  H   UNK N   1      32.978  16.741   9.527  0.00  0.00     0.210 HD
ENDBRANCH  12  22
ENDBRANCH   1  12
BRANCH   1  24
HETATM   24  N   UNK N   1      32.664  17.219   5.606  0.00  0.00    -0.365 N 
HETATM   25  C   UNK N   1      32.722  16.426   4.587  0.00  0.00     0.107 C 
HETATM   26  C   UNK N   1      32.454  16.964   3.226  0.00  0.00     0.097 C 
ATOM     27  HN  UNK N   1      32.427  18.196   5.433  1.00  0.00     0.161 HD
BRANCH  25  28
HETATM   28  O   UNK N   1      33.014  15.118   4.735  0.00  0.00    -0.350 OA
HETATM   29  H   UNK N   1      32.593  14.282   4.793  0.00  0.00     0.219 HD
ENDBRANCH  25  28
ENDBRANCH   1  24
TORSDOF 16
ENDMDL
MODEL 8
REMARK VINA RESULT:      -5.2     13.504     15.478
REMARK  16 active torsions:
REMARK  status: ('A' for Active; 'I' for Inactive)
REMARK    1  A    between atoms: C_5  and  C_2 
REMARK    2  A    between atoms: C_6  and  C_2 
REMARK    3  A    between atoms: C_7  and  C_3 
REMARK    4  A    between atoms: O_14  and  C_3 
REMARK    5  A    between atoms: O_15  and  C_4 
REMARK    6  A    between atoms: C_8  and  C_5 
REMARK    7  A    between atoms: C_5  and  O_16 
REMARK    8  A    between atoms: C_11  and  C_6 
REMARK    9  A    between atoms: C_9  and  C_7 
REMARK   10  A    between atoms: C_7  and  O_18 
REMARK   11  A    between atoms: C_10  and  C_8 
REMARK   12  A    between atoms: C_8  and  N_12 
REMARK   13  A    between atoms: C_10  and  C_9 
REMARK   14  A    between atoms: C_9  and  O_19 
REMARK   15  A    between atoms: C_10  and  O_20 
REMARK   16  A    between atoms: O_21  and  C_11 
ROOT
HETATM    1  C   UNK N   1      22.190  18.442   5.002  0.00  0.00     0.143 C 
ENDROOT
BRANCH   1   2
HETATM    2  C   UNK N   1      21.551  18.347   3.581  0.00  0.00     0.151 C 
BRANCH   2   3
HETATM    3  C   UNK N   1      20.761  19.616   3.202  0.00  0.00     0.124 C 
BRANCH   3   4
HETATM    4  C   UNK N   1      21.397  20.713   2.378  0.00  0.00     0.224 C 
HETATM    5  O   UNK N   1      22.336  21.367   2.802  0.00  0.00    -0.286 OA
BRANCH   4   6
HETATM    6  C   UNK N   1      20.860  21.004   1.035  0.00  0.00     0.213 C 
HETATM    7  O   UNK N   1      20.872  20.147   0.166  0.00  0.00    -0.644 OA
BRANCH   6   8
HETATM    8  O   UNK N   1      20.355  22.223   0.759  0.00  0.00    -0.771 OA
HETATM    9  H   UNK N   1      19.457  22.472   0.856  0.00  0.00     0.167 HD
ENDBRANCH   6   8
ENDBRANCH   4   6
ENDBRANCH   3   4
ENDBRANCH   2   3
BRANCH   2  10
HETATM   10  O   UNK N   1      20.773  17.192   3.460  0.00  0.00    -0.393 OA
HETATM   11  H   UNK N   1      21.168  16.350   3.186  0.00  0.00     0.210 HD
ENDBRANCH   2  10
ENDBRANCH   1   2
BRANCH   1  12
HETATM   12  C   UNK N   1      21.201  17.859   6.061  0.00  0.00     0.174 C 
BRANCH  12  13
HETATM   13  C   UNK N   1      21.645  16.533   6.742  0.00  0.00     0.179 C 
BRANCH  13  14
HETATM   14  C   UNK N   1      20.595  16.071   7.784  0.00  0.00     0.173 C 
BRANCH  14  15
HETATM   15  C   UNK N   1      20.798  14.621   8.216  0.00  0.00     0.198 C 
BRANCH  15  16
HETATM   16  O   UNK N   1      20.227  13.738   7.298  0.00  0.00    -0.398 OA
HETATM   17  H   UNK N   1      19.994  13.016   6.695  0.00  0.00     0.209 HD
ENDBRANCH  15  16
ENDBRANCH  14  15
BRANCH  14  18
HETATM   18  O   UNK N   1      20.612  16.890   8.915  0.00  0.00    -0.391 OA
HETATM   19  H   UNK N   1      20.207  17.772   8.903  0.00  0.00     0.210 HD
ENDBRANCH  14  18
ENDBRANCH  13  14
BRANCH  13  20
HETATM   20  O   UNK N   1      21.772  15.520   5.785  0.00  0.00    -0.390 OA
HETATM   21  H   UNK N   1      22.247  14.698   5.988  0.00  0.00     0.210 HD
ENDBRANCH  13  20
ENDBRANCH  12  13
BRANCH  12  22
HETATM   22  O   UNK N   1      20.973  18.815   7.056  0.00  0.00    -0.391 OA
HETATM   23  H   UNK N   1      21.022  19.765   6.865  0.00  0.00     0.210 HD
ENDBRANCH  12  22
ENDBRANCH   1  12
BRANCH   1  24
HETATM   24  N   UNK N   1      23.421  17.664   5.029  0.00  0.00    -0.365 N 
HETATM   25  C   UNK N   1      24.590  18.134   4.737  0.00  0.00     0.107 C 
HETATM   26  C   UNK N   1      25.774  17.233   4.794  0.00  0.00     0.097 C 
ATOM     27  HN  UNK N   1      23.358  16.683   5.296  1.00  0.00     0.161 HD
BRANCH  25  28
HETATM   28  O   UNK N   1      24.758  19.425   4.388  0.00  0.00    -0.350 OA
HETATM   29  H   UNK N   1      24.519  20.032   3.714  0.00  0.00     0.219 HD
ENDBRANCH  25  28
ENDBRANCH   1  24
TORSDOF 16
ENDMDL
MODEL 9
REMARK VINA RESULT:      -5.2      1.473      2.204
REMARK  16 active torsions:
REMARK  status: ('A' for Active; 'I' for Inactive)
REMARK    1  A    between atoms: C_5  and  C_2 
REMARK    2  A    between atoms: C_6  and  C_2 
REMARK    3  A    between atoms: C_7  and  C_3 
REMARK    4  A    between atoms: O_14  and  C_3 
REMARK    5  A    between atoms: O_15  and  C_4 
REMARK    6  A    between atoms: C_8  and  C_5 
REMARK    7  A    between atoms: C_5  and  O_16 
REMARK    8  A    between atoms: C_11  and  C_6 
REMARK    9  A    between atoms: C_9  and  C_7 
REMARK   10  A    between atoms: C_7  and  O_18 
REMARK   11  A    between atoms: C_10  and  C_8 
REMARK   12  A    between atoms: C_8  and  N_12 
REMARK   13  A    between atoms: C_10  and  C_9 
REMARK   14  A    between atoms: C_9  and  O_19 
REMARK   15  A    between atoms: C_10  and  O_20 
REMARK   16  A    between atoms: O_21  and  C_11 
ROOT
HETATM    1  C   UNK N   1      35.145  13.922   9.660  0.00  0.00     0.143 C 
ENDROOT
BRANCH   1   2
HETATM    2  C   UNK N   1      33.847  14.718  10.004  0.00  0.00     0.151 C 
BRANCH   2   3
HETATM    3  C   UNK N   1      33.710  16.013   9.176  0.00  0.00     0.124 C 
BRANCH   3   4
HETATM    4  C   UNK N   1      34.691  17.152   9.342  0.00  0.00     0.224 C 
HETATM    5  O   UNK N   1      35.381  17.259  10.343  0.00  0.00    -0.286 OA
BRANCH   4   6
HETATM    6  C   UNK N   1      34.805  18.160   8.271  0.00  0.00     0.213 C 
HETATM    7  O   UNK N   1      34.437  17.901   7.137  0.00  0.00    -0.644 OA
BRANCH   6   8
HETATM    8  O   UNK N   1      35.323  19.375   8.542  0.00  0.00    -0.771 OA
HETATM    9  H   UNK N   1      35.748  19.934   7.920  0.00  0.00     0.167 HD
ENDBRANCH   6   8
ENDBRANCH   4   6
ENDBRANCH   3   4
ENDBRANCH   2   3
BRANCH   2  10
HETATM   10  O   UNK N   1      33.763  14.965  11.377  0.00  0.00    -0.393 OA
HETATM   11  H   UNK N   1      34.343  14.506  12.004  0.00  0.00     0.210 HD
ENDBRANCH   2  10
ENDBRANCH   1   2
BRANCH   1  12
HETATM   12  C   UNK N   1      35.462  12.914  10.810  0.00  0.00     0.174 C 
BRANCH  12  13
HETATM   13  C   UNK N   1      36.194  13.508  12.047  0.00  0.00     0.179 C 
BRANCH  13  14
HETATM   14  C   UNK N   1      35.766  12.776  13.343  0.00  0.00     0.173 C 
BRANCH  14  15
HETATM   15  C   UNK N   1      36.902  12.666  14.357  0.00  0.00     0.198 C 
BRANCH  15  16
HETATM   16  O   UNK N   1      37.251  13.922  14.857  0.00  0.00    -0.398 OA
HETATM   17  H   UNK N   1      37.340  14.764  15.331  0.00  0.00     0.209 HD
ENDBRANCH  15  16
ENDBRANCH  14  15
BRANCH  14  18
HETATM   18  O   UNK N   1      34.677  13.410  13.948  0.00  0.00    -0.391 OA
HETATM   19  H   UNK N   1      34.270  13.051  14.752  0.00  0.00     0.210 HD
ENDBRANCH  14  18
ENDBRANCH  13  14
BRANCH  13  20
HETATM   20  O   UNK N   1      37.577  13.356  11.906  0.00  0.00    -0.390 OA
HETATM   21  H   UNK N   1      38.113  14.044  11.481  0.00  0.00     0.210 HD
ENDBRANCH  13  20
ENDBRANCH  12  13
BRANCH  12  22
HETATM   22  O   UNK N   1      34.273  12.317  11.240  0.00  0.00    -0.391 OA
HETATM   23  H   UNK N   1      33.425  12.510  10.810  0.00  0.00     0.210 HD
ENDBRANCH  12  22
ENDBRANCH   1  12
BRANCH   1  24
HETATM   24  N   UNK N   1      34.941  13.179   8.424  0.00  0.00    -0.365 N 
HETATM   25  C   UNK N   1      35.450  13.503   7.282  0.00  0.00     0.107 C 
HETATM   26  C   UNK N   1      35.159  12.664   6.087  0.00  0.00     0.097 C 
ATOM     27  HN  UNK N   1      34.356  12.345   8.463  1.00  0.00     0.161 HD
BRANCH  25  28
HETATM   28  O   UNK N   1      36.246  14.584   7.152  0.00  0.00    -0.350 OA
HETATM   29  H   UNK N   1      36.196  15.512   7.030  0.00  0.00     0.219 HD
ENDBRANCH  25  28
ENDBRANCH   1  24
TORSDOF 16
ENDMDL
