REMARK  7 active torsions:
REMARK  status: ('A' for Active; 'I' for Inactive)
REMARK    1  A    between atoms: O_2  and  C_15 
REMARK    2  A    between atoms: O_2  and  C_16 
REMARK    3  A    between atoms: C_8  and  C_9 
REMARK    4  A    between atoms: C_9  and  C_10 
REMARK    5  A    between atoms: C_14  and  C_16 
REMARK    6  A    between atoms: C_14  and  C_19 
REMARK    7  A    between atoms: C_21  and  C_23 
ROOT
HETATM    1  C   UNK N   1       5.229   2.777   0.279  0.00  0.00    -0.056 A 
HETATM    2  C   UNK N   1       6.284   1.903   0.558  0.00  0.00     0.010 A 
HETATM    3  C   UNK N   1       4.009   2.267  -0.181  0.00  0.00     0.010 A 
HETATM    4  C   UNK N   1       4.929   0.020  -0.123  0.00  0.00     0.069 A 
HETATM    5  C   UNK N   1       6.141   0.535   0.354  0.00  0.00     0.037 A 
HETATM    6  C   UNK N   1       3.862   0.890  -0.383  0.00  0.00     0.037 A 
ENDROOT
BRANCH   4   7
HETATM    7  O   UNK N   1       4.764  -1.304  -0.325  0.00  0.00    -0.344 OA
BRANCH   7   8
HETATM    8  C   UNK N   1       5.736  -2.247  -0.076  0.00  0.00     0.261 C 
BRANCH   8   9
HETATM    9  C   UNK N   1       5.177  -3.649  -0.016  0.00  0.00     0.199 C 
HETATM   10  O   UNK N   1       5.971  -4.576   0.018  0.00  0.00    -0.288 OA
BRANCH   9  11
HETATM   11  C   UNK N   1       3.718  -3.955   0.012  0.00  0.00     0.080 A 
HETATM   12  N   UNK N   1       3.304  -5.253  -0.006  0.00  0.00    -0.362 N 
HETATM   13  C   UNK N   1       1.982  -5.583   0.008  0.00  0.00     0.095 A 
ATOM     14  HN  UNK N   1       4.001  -5.997  -0.030  1.00  0.00     0.165 HD
HETATM   15  C   UNK N   1       1.002  -4.580   0.048  0.00  0.00    -0.043 A 
HETATM   16  C   UNK N   1       1.404  -3.249   0.079  0.00  0.00     0.011 A 
HETATM   17  C   UNK N   1       2.758  -2.935   0.061  0.00  0.00     0.034 A 
BRANCH  15  18
HETATM   18  C   UNK N   1      -0.467  -4.884   0.054  0.00  0.00     0.035 C 
HETATM   19  C   UNK N   1      -0.790  -6.367  -0.016  0.00  0.00     0.010 C 
ENDBRANCH  15  18
ENDBRANCH   9  11
ENDBRANCH   8   9
ENDBRANCH   7   8
ENDBRANCH   4   7
BRANCH   1  20
HETATM   20  C   UNK N   1       5.400   4.246   0.500  0.00  0.00     0.063 C 
BRANCH  20  21
HETATM   21  C   UNK N   1       6.331   4.909  -0.523  0.00  0.00     0.153 A 
HETATM   22  S   UNK N   1       8.033   4.181  -0.520  0.00  0.00    -0.054 SA
HETATM   23  C   UNK N   1       8.664   5.753   0.027  0.00  0.00     0.287 A 
HETATM   24  O   UNK N   1       9.846   5.935   0.267  0.00  0.00    -0.260 OA
HETATM   25  N   UNK N   1       7.767   6.736   0.145  0.00  0.00    -0.287 N 
HETATM   26  C   UNK N   1       6.518   6.348  -0.147  0.00  0.00     0.239 A 
HETATM   27  H   UNK N   1       8.000   7.653   0.418  0.00  0.00     0.172 HD
HETATM   28  O   UNK N   1       5.586   7.137  -0.095  0.00  0.00    -0.272 OA
ENDBRANCH  20  21
ENDBRANCH   1  20
TORSDOF 7
