REMARK  9 active torsions:
REMARK  status: ('A' for Active; 'I' for Inactive)
REMARK    1  A    between atoms: C_2  and  N_3 
REMARK       I    between atoms: N_3  and  C_5 
REMARK    2  A    between atoms: C_10  and  N_13 
REMARK    3  A    between atoms: N_13  and  C_14 
REMARK    4  A    between atoms: N_22  and  C_33 
REMARK    5  A    between atoms: C_25  and  C_26 
REMARK       I    between atoms: C_26  and  N_28 
REMARK    6  A    between atoms: N_28  and  S_29 
REMARK    7  A    between atoms: C_33  and  C_34 
REMARK    8  A    between atoms: C_34  and  O_35 
REMARK    9  A    between atoms: O_35  and  C_36 
ROOT
HETATM    1  N   UNK N   1      -1.351  -2.117  -0.050  0.00  0.00    -0.222 N 
HETATM    2  C   UNK N   1      -2.758  -2.345  -0.259  0.00  0.00     0.168 C 
HETATM    3  C   UNK N   1      -0.837  -0.787  -0.031  0.00  0.00     0.682 A 
HETATM    4  N   UNK N   1      -1.688   0.281  -0.154  0.00  0.00    -0.187 N 
ATOM      5  HN  UNK N   1      -2.686   0.139  -0.309  1.00  0.00     0.184 HD
HETATM    6  C   UNK N   1      -1.171   1.530  -0.065  0.00  0.00     0.115 A 
HETATM    7  C   UNK N   1       0.149   1.760   0.127  0.00  0.00     0.125 A 
HETATM    8  C   UNK N   1       1.033   0.689   0.216  0.00  0.00     0.153 A 
HETATM    9  N   UNK N   1       0.511  -0.572   0.142  0.00  0.00    -0.174 N 
ATOM     10  HN  UNK N   1       1.137  -1.374   0.218  1.00  0.00     0.186 HD
HETATM   11  N   UNK N   1       0.352   3.095   0.187  0.00  0.00    -0.284 N 
HETATM   12  N   UNK N   1      -0.818   3.710   0.047  0.00  0.00    -0.291 N 
ATOM     13  HN  UNK N   1      -0.967   4.719   0.064  1.00  0.00     0.187 HD
HETATM   14  C   UNK N   1      -1.780   2.769  -0.123  0.00  0.00     0.147 A 
ENDROOT
BRANCH   8  15
HETATM   15  N   UNK N   1       2.428   0.907   0.348  0.00  0.00    -0.326 N 
HETATM   16  H   UNK N   1       2.722   1.800   0.641  0.00  0.00     0.169 HD
BRANCH  15  17
HETATM   17  C   UNK N   1       3.435  -0.060   0.092  0.00  0.00     0.106 A 
HETATM   18  C   UNK N   1       4.775   0.335   0.121  0.00  0.00     0.055 A 
HETATM   19  C   UNK N   1       5.771  -0.586  -0.199  0.00  0.00    -0.057 A 
HETATM   20  C   UNK N   1       5.422  -1.892  -0.543  0.00  0.00     0.024 A 
HETATM   21  C   UNK N   1       7.198  -0.171  -0.191  0.00  0.00     0.048 C 
HETATM   22  C   UNK N   1       4.074  -2.255  -0.561  0.00  0.00     0.090 A 
HETATM   23  N   UNK N   1       3.116  -1.339  -0.255  0.00  0.00    -0.352 N 
ATOM     24  HN  UNK N   1       2.134  -1.616  -0.286  1.00  0.00     0.166 HD
ENDBRANCH  15  17
ENDBRANCH   8  15
BRANCH  11  25
HETATM   25  C   UNK N   1       1.606   3.810   0.404  0.00  0.00     0.175 C 
BRANCH  25  26
HETATM   26  C   UNK N   1       2.534   3.667  -0.791  0.00  0.00     0.189 C 
BRANCH  26  27
HETATM   27  O   UNK N   1       3.797   3.258  -0.355  0.00  0.00    -0.390 OA
BRANCH  27  28
HETATM   28  C   UNK N   1       4.700   4.145  -0.937  0.00  0.00     0.163 C 
HETATM   29  C   UNK N   1       5.746   4.541   0.084  0.00  0.00     0.033 C 
ENDBRANCH  27  28
ENDBRANCH  26  27
ENDBRANCH  25  26
ENDBRANCH  11  25
BRANCH  14  30
HETATM   30  C   UNK N   1      -3.225   3.033  -0.358  0.00  0.00     0.285 C 
HETATM   31  O   UNK N   1      -3.942   2.093  -0.663  0.00  0.00    -0.265 OA
HETATM   32  N   UNK N   1      -3.791   4.267  -0.258  0.00  0.00    -0.249 N 
HETATM   33  H   UNK N   1      -4.736   4.342  -0.522  0.00  0.00     0.182 HD
BRANCH  32  34
HETATM   34  S   UNK N   1      -3.005   5.742   0.296  0.00  0.00     0.229 S 
HETATM   35  O   UNK N   1      -2.771   5.529   1.799  0.00  0.00    -0.206 OA
HETATM   36  O   UNK N   1      -4.153   6.761   0.322  0.00  0.00    -0.206 OA
HETATM   37  C   UNK N   1      -1.576   6.424  -0.593  0.00  0.00     0.186 C 
ENDBRANCH  32  34
ENDBRANCH  14  30
BRANCH   1  38
HETATM   38  C   UNK N   1      -0.513  -3.248   0.278  0.00  0.00     0.136 C 
HETATM   39  C   UNK N   1       0.544  -3.477  -0.786  0.00  0.00     0.027 C 
ENDBRANCH   1  38
TORSDOF 9
