MODEL 1
REMARK VINA RESULT:      -8.3      0.000      0.000
REMARK  9 active torsions:
REMARK  status: ('A' for Active; 'I' for Inactive)
REMARK    1  A    between atoms: C_2  and  C_4 
REMARK    2  A    between atoms: C_2  and  N_39 
REMARK       I    between atoms: C_4  and  N_6 
REMARK    3  A    between atoms: N_6  and  C_7 
REMARK    4  A    between atoms: C_11  and  S_13 
REMARK    5  A    between atoms: S_13  and  N_16 
REMARK    6  A    between atoms: N_16  and  C_17 
REMARK    7  A    between atoms: C_18  and  N_29 
REMARK    8  A    between atoms: N_29  and  C_30 
REMARK    9  A    between atoms: C_32  and  O_37 
ROOT
HETATM    1  C   UNK N   1      28.008  15.887   5.885  0.00  0.00     0.160 A 
HETATM    2  C   UNK N   1      26.911  16.027   6.721  0.00  0.00     0.152 A 
HETATM    3  N   UNK N   1      27.029  16.702   7.897  0.00  0.00    -0.338 N 
ATOM      4  HN  UNK N   1      26.219  16.798   8.511  1.00  0.00     0.167 HD
HETATM    5  C   UNK N   1      28.221  17.247   8.257  0.00  0.00     0.060 A 
HETATM    6  C   UNK N   1      28.341  17.964   9.452  0.00  0.00     0.032 A 
HETATM    7  C   UNK N   1      29.574  18.513   9.816  0.00  0.00     0.002 A 
HETATM    8  C   UNK N   1      30.693  18.341   8.991  0.00  0.00     0.002 A 
HETATM    9  C   UNK N   1      30.580  17.630   7.791  0.00  0.00     0.032 A 
HETATM   10  C   UNK N   1      29.347  17.087   7.416  0.00  0.00     0.060 A 
HETATM   11  N   UNK N   1      29.213  16.414   6.238  0.00  0.00    -0.337 N 
ATOM     12  HN  UNK N   1      30.017  16.305   5.619  1.00  0.00     0.167 HD
ENDROOT
BRANCH   1  13
HETATM   13  N   UNK N   1      27.798  15.229   4.647  0.00  0.00    -0.263 N 
HETATM   14  H   UNK N   1      27.808  14.244   4.645  0.00  0.00     0.180 HD
BRANCH  13  15
HETATM   15  S   UNK N   1      27.524  16.034   3.133  0.00  0.00     0.264 S 
HETATM   16  O   UNK N   1      26.604  15.083   2.352  0.00  0.00    -0.200 OA
HETATM   17  O   UNK N   1      28.876  15.927   2.411  0.00  0.00    -0.200 OA
BRANCH  15  18
HETATM   18  C   UNK N   1      26.931  17.668   3.421  0.00  0.00     0.082 A 
HETATM   19  C   UNK N   1      27.780  18.652   3.933  0.00  0.00     0.025 A 
HETATM   20  C   UNK N   1      27.247  19.869   4.365  0.00  0.00     0.004 A 
HETATM   21  C   UNK N   1      25.862  20.079   4.321  0.00  0.00     0.029 A 
HETATM   22  C   UNK N   1      25.020  19.092   3.797  0.00  0.00     0.036 A 
HETATM   23  C   UNK N   1      25.565  17.884   3.364  0.00  0.00     0.054 A 
BRANCH  22  24
HETATM   24  N   UNK N   1      23.612  19.267   3.821  0.00  0.00    -0.325 N 
HETATM   25  C   UNK N   1      22.938  20.084   2.966  0.00  0.00     0.249 C 
HETATM   26  O   UNK N   1      23.545  20.874   2.254  0.00  0.00    -0.270 OA
HETATM   27  H   UNK N   1      23.094  18.769   4.496  0.00  0.00     0.169 HD
BRANCH  25  28
HETATM   28  C   UNK N   1      21.434  20.019   2.913  0.00  0.00     0.098 C 
HETATM   29  C   UNK N   1      20.942  19.204   1.726  0.00  0.00     0.048 C 
HETATM   30  C   UNK N   1      20.924  19.365   4.183  0.00  0.00     0.048 C 
BRANCH  28  31
HETATM   31  N   UNK N   1      20.889  21.361   2.816  0.00  0.00    -0.415 N 
HETATM   32  H   UNK N   1      20.327  21.931   3.449  0.00  0.00     0.151 HD
HETATM   33  H   UNK N   1      21.113  21.829   1.938  0.00  0.00     0.151 HD
ENDBRANCH  28  31
ENDBRANCH  25  28
ENDBRANCH  22  24
ENDBRANCH  15  18
ENDBRANCH  13  15
ENDBRANCH   1  13
BRANCH   2  34
HETATM   34  N   UNK N   1      25.716  15.400   6.307  0.00  0.00    -0.338 N 
HETATM   35  H   UNK N   1      25.658  15.300   5.329  0.00  0.00     0.167 HD
BRANCH  34  36
HETATM   36  C   UNK N   1      24.583  14.885   6.976  0.00  0.00     0.058 A 
HETATM   37  C   UNK N   1      24.842  13.836   7.857  0.00  0.00     0.067 A 
HETATM   38  C   UNK N   1      23.823  13.169   8.520  0.00  0.00     0.070 A 
HETATM   39  C   UNK N   1      22.496  13.567   8.308  0.00  0.00     0.038 A 
HETATM   40  C   UNK N   1      22.211  14.610   7.422  0.00  0.00     0.029 A 
HETATM   41  C   UNK N   1      23.238  15.271   6.738  0.00  0.00     0.060 A 
HETATM   42 Cl   UNK N   1      22.754  16.494   5.576  0.00  0.00    -0.082 Cl
BRANCH  38  43
HETATM   43  O   UNK N   1      24.148  12.144   9.342  0.00  0.00    -0.356 OA
HETATM   44  C   UNK N   1      23.226  11.457  10.095  0.00  0.00     0.210 C 
ENDBRANCH  38  43
ENDBRANCH  34  36
ENDBRANCH   2  34
TORSDOF 9
ENDMDL
MODEL 2
REMARK VINA RESULT:      -8.2      3.182      6.380
REMARK  9 active torsions:
REMARK  status: ('A' for Active; 'I' for Inactive)
REMARK    1  A    between atoms: C_2  and  C_4 
REMARK    2  A    between atoms: C_2  and  N_39 
REMARK       I    between atoms: C_4  and  N_6 
REMARK    3  A    between atoms: N_6  and  C_7 
REMARK    4  A    between atoms: C_11  and  S_13 
REMARK    5  A    between atoms: S_13  and  N_16 
REMARK    6  A    between atoms: N_16  and  C_17 
REMARK    7  A    between atoms: C_18  and  N_29 
REMARK    8  A    between atoms: N_29  and  C_30 
REMARK    9  A    between atoms: C_32  and  O_37 
ROOT
HETATM    1  C   UNK N   1      22.703  14.013   7.385  0.00  0.00     0.160 A 
HETATM    2  C   UNK N   1      24.086  13.935   7.350  0.00  0.00     0.152 A 
HETATM    3  N   UNK N   1      24.768  13.415   8.407  0.00  0.00    -0.338 N 
ATOM      4  HN  UNK N   1      25.787  13.363   8.378  1.00  0.00     0.167 HD
HETATM    5  C   UNK N   1      24.098  12.966   9.501  0.00  0.00     0.060 A 
HETATM    6  C   UNK N   1      24.792  12.407  10.579  0.00  0.00     0.032 A 
HETATM    7  C   UNK N   1      24.092  11.955  11.702  0.00  0.00     0.002 A 
HETATM    8  C   UNK N   1      22.697  12.069  11.755  0.00  0.00     0.002 A 
HETATM    9  C   UNK N   1      21.994  12.621  10.678  0.00  0.00     0.032 A 
HETATM   10  C   UNK N   1      22.687  13.065   9.547  0.00  0.00     0.060 A 
HETATM   11  N   UNK N   1      22.016  13.582   8.479  0.00  0.00    -0.337 N 
ATOM     12  HN  UNK N   1      20.999  13.645   8.499  1.00  0.00     0.167 HD
ENDROOT
BRANCH   1  13
HETATM   13  N   UNK N   1      22.053  14.505   6.224  0.00  0.00    -0.263 N 
HETATM   14  H   UNK N   1      22.593  15.023   5.583  0.00  0.00     0.180 HD
BRANCH  13  15
HETATM   15  S   UNK N   1      20.375  14.260   5.851  0.00  0.00     0.264 S 
HETATM   16  O   UNK N   1      19.622  14.920   7.017  0.00  0.00    -0.200 OA
HETATM   17  O   UNK N   1      20.167  12.754   6.072  0.00  0.00    -0.200 OA
BRANCH  15  18
HETATM   18  C   UNK N   1      20.028  14.859   4.231  0.00  0.00     0.082 A 
HETATM   19  C   UNK N   1      19.568  13.991   3.237  0.00  0.00     0.025 A 
HETATM   20  C   UNK N   1      19.511  14.427   1.911  0.00  0.00     0.004 A 
HETATM   21  C   UNK N   1      19.955  15.715   1.579  0.00  0.00     0.029 A 
HETATM   22  C   UNK N   1      20.404  16.581   2.583  0.00  0.00     0.036 A 
HETATM   23  C   UNK N   1      20.450  16.136   3.904  0.00  0.00     0.054 A 
BRANCH  22  24
HETATM   24  N   UNK N   1      20.926  17.856   2.246  0.00  0.00    -0.325 N 
HETATM   25  C   UNK N   1      20.249  19.022   2.433  0.00  0.00     0.249 C 
HETATM   26  O   UNK N   1      19.058  19.010   2.718  0.00  0.00    -0.270 OA
HETATM   27  H   UNK N   1      21.829  17.899   1.854  0.00  0.00     0.169 HD
BRANCH  25  28
HETATM   28  C   UNK N   1      20.975  20.332   2.269  0.00  0.00     0.098 C 
HETATM   29  C   UNK N   1      22.438  20.225   2.671  0.00  0.00     0.048 C 
HETATM   30  C   UNK N   1      20.911  20.752   0.812  0.00  0.00     0.048 C 
BRANCH  28  31
HETATM   31  N   UNK N   1      20.339  21.350   3.087  0.00  0.00    -0.415 N 
HETATM   32  H   UNK N   1      19.462  21.864   2.999  0.00  0.00     0.151 HD
HETATM   33  H   UNK N   1      20.877  21.601   3.915  0.00  0.00     0.151 HD
ENDBRANCH  28  31
ENDBRANCH  25  28
ENDBRANCH  22  24
ENDBRANCH  15  18
ENDBRANCH  13  15
ENDBRANCH   1  13
BRANCH   2  34
HETATM   34  N   UNK N   1      24.721  14.458   6.204  0.00  0.00    -0.338 N 
HETATM   35  H   UNK N   1      24.569  13.909   5.400  0.00  0.00     0.167 HD
BRANCH  34  36
HETATM   36  C   UNK N   1      25.527  15.589   5.945  0.00  0.00     0.058 A 
HETATM   37  C   UNK N   1      26.564  15.798   6.853  0.00  0.00     0.067 A 
HETATM   38  C   UNK N   1      27.385  16.913   6.783  0.00  0.00     0.070 A 
HETATM   39  C   UNK N   1      27.175  17.852   5.764  0.00  0.00     0.038 A 
HETATM   40  C   UNK N   1      26.135  17.670   4.847  0.00  0.00     0.029 A 
HETATM   41  C   UNK N   1      25.295  16.553   4.929  0.00  0.00     0.060 A 
HETATM   42 Cl   UNK N   1      23.962  16.482   3.789  0.00  0.00    -0.082 Cl
BRANCH  38  43
HETATM   43  O   UNK N   1      28.356  17.062   7.714  0.00  0.00    -0.356 OA
HETATM   44  C   UNK N   1      28.211  17.836   8.841  0.00  0.00     0.210 C 
ENDBRANCH  38  43
ENDBRANCH  34  36
ENDBRANCH   2  34
TORSDOF 9
ENDMDL
MODEL 3
REMARK VINA RESULT:      -8.1      3.024      6.555
REMARK  9 active torsions:
REMARK  status: ('A' for Active; 'I' for Inactive)
REMARK    1  A    between atoms: C_2  and  C_4 
REMARK    2  A    between atoms: C_2  and  N_39 
REMARK       I    between atoms: C_4  and  N_6 
REMARK    3  A    between atoms: N_6  and  C_7 
REMARK    4  A    between atoms: C_11  and  S_13 
REMARK    5  A    between atoms: S_13  and  N_16 
REMARK    6  A    between atoms: N_16  and  C_17 
REMARK    7  A    between atoms: C_18  and  N_29 
REMARK    8  A    between atoms: N_29  and  C_30 
REMARK    9  A    between atoms: C_32  and  O_37 
ROOT
HETATM    1  C   UNK N   1      22.288  13.732   7.602  0.00  0.00     0.160 A 
HETATM    2  C   UNK N   1      23.672  13.804   7.614  0.00  0.00     0.152 A 
HETATM    3  N   UNK N   1      24.369  13.385   8.706  0.00  0.00    -0.338 N 
ATOM      4  HN  UNK N   1      25.388  13.444   8.711  1.00  0.00     0.167 HD
HETATM    5  C   UNK N   1      23.713  12.891   9.790  0.00  0.00     0.060 A 
HETATM    6  C   UNK N   1      24.426  12.436  10.903  0.00  0.00     0.032 A 
HETATM    7  C   UNK N   1      23.740  11.937  12.015  0.00  0.00     0.002 A 
HETATM    8  C   UNK N   1      22.339  11.900  12.020  0.00  0.00     0.002 A 
HETATM    9  C   UNK N   1      21.619  12.348  10.907  0.00  0.00     0.032 A 
HETATM   10  C   UNK N   1      22.300  12.838   9.788  0.00  0.00     0.060 A 
HETATM   11  N   UNK N   1      21.614  13.255   8.685  0.00  0.00    -0.337 N 
ATOM     12  HN  UNK N   1      20.596  13.208   8.671  1.00  0.00     0.167 HD
ENDROOT
BRANCH   1  13
HETATM   13  N   UNK N   1      21.630  14.124   6.408  0.00  0.00    -0.263 N 
HETATM   14  H   UNK N   1      21.927  13.709   5.566  0.00  0.00     0.180 HD
BRANCH  13  15
HETATM   15  S   UNK N   1      20.339  15.281   6.325  0.00  0.00     0.264 S 
HETATM   16  O   UNK N   1      19.894  15.466   7.784  0.00  0.00    -0.200 OA
HETATM   17  O   UNK N   1      19.187  14.498   5.677  0.00  0.00    -0.200 OA
BRANCH  15  18
HETATM   18  C   UNK N   1      20.877  16.719   5.462  0.00  0.00     0.082 A 
HETATM   19  C   UNK N   1      20.208  17.150   4.314  0.00  0.00     0.025 A 
HETATM   20  C   UNK N   1      20.773  18.150   3.518  0.00  0.00     0.004 A 
HETATM   21  C   UNK N   1      22.025  18.684   3.852  0.00  0.00     0.029 A 
HETATM   22  C   UNK N   1      22.683  18.254   5.010  0.00  0.00     0.036 A 
HETATM   23  C   UNK N   1      22.106  17.260   5.799  0.00  0.00     0.054 A 
BRANCH  22  24
HETATM   24  N   UNK N   1      23.984  18.733   5.312  0.00  0.00    -0.325 N 
HETATM   25  C   UNK N   1      25.104  18.348   4.641  0.00  0.00     0.249 C 
HETATM   26  O   UNK N   1      25.068  17.402   3.863  0.00  0.00    -0.270 OA
HETATM   27  H   UNK N   1      24.082  19.379   6.050  0.00  0.00     0.169 HD
BRANCH  25  28
HETATM   28  C   UNK N   1      26.396  19.087   4.874  0.00  0.00     0.098 C 
HETATM   29  C   UNK N   1      27.510  18.581   3.971  0.00  0.00     0.048 C 
HETATM   30  C   UNK N   1      26.180  20.560   4.582  0.00  0.00     0.048 C 
BRANCH  28  31
HETATM   31  N   UNK N   1      26.807  18.931   6.257  0.00  0.00    -0.415 N 
HETATM   32  H   UNK N   1      27.693  18.676   6.696  0.00  0.00     0.151 HD
HETATM   33  H   UNK N   1      26.059  19.110   6.927  0.00  0.00     0.151 HD
ENDBRANCH  28  31
ENDBRANCH  25  28
ENDBRANCH  22  24
ENDBRANCH  15  18
ENDBRANCH  13  15
ENDBRANCH   1  13
BRANCH   2  34
HETATM   34  N   UNK N   1      24.287  14.366   6.475  0.00  0.00    -0.338 N 
HETATM   35  H   UNK N   1      23.661  14.892   5.925  0.00  0.00     0.167 HD
BRANCH  34  36
HETATM   36  C   UNK N   1      25.595  14.345   5.942  0.00  0.00     0.058 A 
HETATM   37  C   UNK N   1      26.458  15.315   6.451  0.00  0.00     0.067 A 
HETATM   38  C   UNK N   1      27.746  15.477   5.964  0.00  0.00     0.070 A 
HETATM   39  C   UNK N   1      28.198  14.635   4.939  0.00  0.00     0.038 A 
HETATM   40  C   UNK N   1      27.349  13.662   4.405  0.00  0.00     0.029 A 
HETATM   41  C   UNK N   1      26.042  13.510   4.885  0.00  0.00     0.060 A 
HETATM   42 Cl   UNK N   1      25.035  12.326   4.071  0.00  0.00    -0.082 Cl
BRANCH  38  43
HETATM   43  O   UNK N   1      28.518  16.457   6.489  0.00  0.00    -0.356 OA
HETATM   44  C   UNK N   1      29.853  16.606   6.198  0.00  0.00     0.210 C 
ENDBRANCH  38  43
ENDBRANCH  34  36
ENDBRANCH   2  34
TORSDOF 9
ENDMDL
MODEL 4
REMARK VINA RESULT:      -8.0      3.357      7.282
REMARK  9 active torsions:
REMARK  status: ('A' for Active; 'I' for Inactive)
REMARK    1  A    between atoms: C_2  and  C_4 
REMARK    2  A    between atoms: C_2  and  N_39 
REMARK       I    between atoms: C_4  and  N_6 
REMARK    3  A    between atoms: N_6  and  C_7 
REMARK    4  A    between atoms: C_11  and  S_13 
REMARK    5  A    between atoms: S_13  and  N_16 
REMARK    6  A    between atoms: N_16  and  C_17 
REMARK    7  A    between atoms: C_18  and  N_29 
REMARK    8  A    between atoms: N_29  and  C_30 
REMARK    9  A    between atoms: C_32  and  O_37 
ROOT
HETATM    1  C   UNK N   1      20.503  16.638   3.754  0.00  0.00     0.160 A 
HETATM    2  C   UNK N   1      21.088  15.621   4.492  0.00  0.00     0.152 A 
HETATM    3  N   UNK N   1      21.091  14.345   4.017  0.00  0.00    -0.338 N 
ATOM      4  HN  UNK N   1      21.520  13.600   4.566  1.00  0.00     0.167 HD
HETATM    5  C   UNK N   1      20.523  14.061   2.814  0.00  0.00     0.060 A 
HETATM    6  C   UNK N   1      20.546  12.757   2.310  0.00  0.00     0.032 A 
HETATM    7  C   UNK N   1      19.952  12.475   1.076  0.00  0.00     0.002 A 
HETATM    8  C   UNK N   1      19.326  13.494   0.347  0.00  0.00     0.002 A 
HETATM    9  C   UNK N   1      19.304  14.803   0.842  0.00  0.00     0.032 A 
HETATM   10  C   UNK N   1      19.906  15.093   2.070  0.00  0.00     0.060 A 
HETATM   11  N   UNK N   1      19.916  16.368   2.555  0.00  0.00    -0.337 N 
ATOM     12  HN  UNK N   1      19.485  17.120   2.019  1.00  0.00     0.167 HD
ENDROOT
BRANCH   1  13
HETATM   13  N   UNK N   1      20.594  17.953   4.278  0.00  0.00    -0.263 N 
HETATM   14  H   UNK N   1      20.310  18.094   5.210  0.00  0.00     0.180 HD
BRANCH  13  15
HETATM   15  S   UNK N   1      21.172  19.331   3.394  0.00  0.00     0.264 S 
HETATM   16  O   UNK N   1      20.265  20.486   3.847  0.00  0.00    -0.200 OA
HETATM   17  O   UNK N   1      20.733  19.051   1.949  0.00  0.00    -0.200 OA
BRANCH  15  18
HETATM   18  C   UNK N   1      22.905  19.524   3.651  0.00  0.00     0.082 A 
HETATM   19  C   UNK N   1      23.665  20.319   2.791  0.00  0.00     0.025 A 
HETATM   20  C   UNK N   1      25.060  20.284   2.869  0.00  0.00     0.004 A 
HETATM   21  C   UNK N   1      25.687  19.424   3.781  0.00  0.00     0.029 A 
HETATM   22  C   UNK N   1      24.917  18.639   4.647  0.00  0.00     0.036 A 
HETATM   23  C   UNK N   1      23.526  18.687   4.562  0.00  0.00     0.054 A 
BRANCH  22  24
HETATM   24  N   UNK N   1      25.542  17.710   5.516  0.00  0.00    -0.325 N 
HETATM   25  C   UNK N   1      25.767  16.407   5.192  0.00  0.00     0.249 C 
HETATM   26  O   UNK N   1      25.249  15.916   4.196  0.00  0.00    -0.270 OA
HETATM   27  H   UNK N   1      25.830  18.025   6.405  0.00  0.00     0.169 HD
BRANCH  25  28
HETATM   28  C   UNK N   1      26.647  15.565   6.079  0.00  0.00     0.098 C 
HETATM   29  C   UNK N   1      26.176  14.120   6.140  0.00  0.00     0.048 C 
HETATM   30  C   UNK N   1      28.061  15.582   5.528  0.00  0.00     0.048 C 
BRANCH  28  31
HETATM   31  N   UNK N   1      26.653  16.112   7.424  0.00  0.00    -0.415 N 
HETATM   32  H   UNK N   1      26.045  15.977   8.233  0.00  0.00     0.151 HD
HETATM   33  H   UNK N   1      27.419  16.763   7.595  0.00  0.00     0.151 HD
ENDBRANCH  28  31
ENDBRANCH  25  28
ENDBRANCH  22  24
ENDBRANCH  15  18
ENDBRANCH  13  15
ENDBRANCH   1  13
BRANCH   2  34
HETATM   34  N   UNK N   1      21.621  15.977   5.749  0.00  0.00    -0.338 N 
HETATM   35  H   UNK N   1      22.114  16.830   5.726  0.00  0.00     0.167 HD
BRANCH  34  36
HETATM   36  C   UNK N   1      21.611  15.390   7.034  0.00  0.00     0.058 A 
HETATM   37  C   UNK N   1      22.641  14.482   7.278  0.00  0.00     0.067 A 
HETATM   38  C   UNK N   1      22.714  13.759   8.459  0.00  0.00     0.070 A 
HETATM   39  C   UNK N   1      21.733  13.954   9.440  0.00  0.00     0.038 A 
HETATM   40  C   UNK N   1      20.685  14.851   9.214  0.00  0.00     0.029 A 
HETATM   41  C   UNK N   1      20.600  15.568   8.014  0.00  0.00     0.060 A 
HETATM   42 Cl   UNK N   1      19.188  16.587   7.801  0.00  0.00    -0.082 Cl
BRANCH  38  43
HETATM   43  O   UNK N   1      23.729  12.877   8.616  0.00  0.00    -0.356 OA
HETATM   44  C   UNK N   1      23.557  11.608   9.115  0.00  0.00     0.210 C 
ENDBRANCH  38  43
ENDBRANCH  34  36
ENDBRANCH   2  34
TORSDOF 9
ENDMDL
MODEL 5
REMARK VINA RESULT:      -8.0      8.456     13.168
REMARK  9 active torsions:
REMARK  status: ('A' for Active; 'I' for Inactive)
REMARK    1  A    between atoms: C_2  and  C_4 
REMARK    2  A    between atoms: C_2  and  N_39 
REMARK       I    between atoms: C_4  and  N_6 
REMARK    3  A    between atoms: N_6  and  C_7 
REMARK    4  A    between atoms: C_11  and  S_13 
REMARK    5  A    between atoms: S_13  and  N_16 
REMARK    6  A    between atoms: N_16  and  C_17 
REMARK    7  A    between atoms: C_18  and  N_29 
REMARK    8  A    between atoms: N_29  and  C_30 
REMARK    9  A    between atoms: C_32  and  O_37 
ROOT
HETATM    1  C   UNK N   1      32.857  15.269   9.108  0.00  0.00     0.160 A 
HETATM    2  C   UNK N   1      32.710  13.995   8.583  0.00  0.00     0.152 A 
HETATM    3  N   UNK N   1      32.011  13.806   7.431  0.00  0.00    -0.338 N 
ATOM      4  HN  UNK N   1      31.902  12.865   7.051  1.00  0.00     0.167 HD
HETATM    5  C   UNK N   1      31.456  14.866   6.784  0.00  0.00     0.060 A 
HETATM    6  C   UNK N   1      30.759  14.681   5.586  0.00  0.00     0.032 A 
HETATM    7  C   UNK N   1      30.185  15.778   4.935  0.00  0.00     0.002 A 
HETATM    8  C   UNK N   1      30.300  17.062   5.484  0.00  0.00     0.002 A 
HETATM    9  C   UNK N   1      31.001  17.256   6.679  0.00  0.00     0.032 A 
HETATM   10  C   UNK N   1      31.586  16.165   7.330  0.00  0.00     0.060 A 
HETATM   11  N   UNK N   1      32.294  16.340   8.482  0.00  0.00    -0.337 N 
ATOM     12  HN  UNK N   1      32.404  17.275   8.875  1.00  0.00     0.167 HD
ENDROOT
BRANCH   1  13
HETATM   13  N   UNK N   1      33.652  15.401  10.275  0.00  0.00    -0.263 N 
HETATM   14  H   UNK N   1      33.242  15.157  11.137  0.00  0.00     0.180 HD
BRANCH  13  15
HETATM   15  S   UNK N   1      35.295  15.960  10.294  0.00  0.00     0.264 S 
HETATM   16  O   UNK N   1      35.239  17.293  11.057  0.00  0.00    -0.200 OA
HETATM   17  O   UNK N   1      35.559  16.372   8.837  0.00  0.00    -0.200 OA
BRANCH  15  18
HETATM   18  C   UNK N   1      36.348  14.707  10.945  0.00  0.00     0.082 A 
HETATM   19  C   UNK N   1      37.455  14.261  10.219  0.00  0.00     0.025 A 
HETATM   20  C   UNK N   1      38.145  13.121  10.640  0.00  0.00     0.004 A 
HETATM   21  C   UNK N   1      37.698  12.409  11.761  0.00  0.00     0.029 A 
HETATM   22  C   UNK N   1      36.595  12.869  12.489  0.00  0.00     0.036 A 
HETATM   23  C   UNK N   1      35.919  14.011  12.062  0.00  0.00     0.054 A 
BRANCH  22  24
HETATM   24  N   UNK N   1      36.091  12.112  13.577  0.00  0.00    -0.325 N 
HETATM   25  C   UNK N   1      36.340  12.409  14.883  0.00  0.00     0.249 C 
HETATM   26  O   UNK N   1      37.190  13.238  15.179  0.00  0.00    -0.270 OA
HETATM   27  H   UNK N   1      35.530  11.327  13.377  0.00  0.00     0.169 HD
BRANCH  25  28
HETATM   28  C   UNK N   1      35.570  11.695  15.963  0.00  0.00     0.098 C 
HETATM   29  C   UNK N   1      35.057  12.656  17.024  0.00  0.00     0.048 C 
HETATM   30  C   UNK N   1      34.377  10.996  15.337  0.00  0.00     0.048 C 
BRANCH  28  31
HETATM   31  N   UNK N   1      36.422  10.706  16.599  0.00  0.00    -0.415 N 
HETATM   32  H   UNK N   1      36.225   9.874  17.158  0.00  0.00     0.151 HD
HETATM   33  H   UNK N   1      37.417  10.877  16.461  0.00  0.00     0.151 HD
ENDBRANCH  28  31
ENDBRANCH  25  28
ENDBRANCH  22  24
ENDBRANCH  15  18
ENDBRANCH  13  15
ENDBRANCH   1  13
BRANCH   2  34
HETATM   34  N   UNK N   1      33.274  12.935   9.326  0.00  0.00    -0.338 N 
HETATM   35  H   UNK N   1      32.762  12.728  10.141  0.00  0.00     0.167 HD
BRANCH  34  36
HETATM   36  C   UNK N   1      34.406  12.106   9.168  0.00  0.00     0.058 A 
HETATM   37  C   UNK N   1      35.216  12.411   8.074  0.00  0.00     0.067 A 
HETATM   38  C   UNK N   1      36.314  11.634   7.737  0.00  0.00     0.070 A 
HETATM   39  C   UNK N   1      36.626  10.517   8.523  0.00  0.00     0.038 A 
HETATM   40  C   UNK N   1      35.824  10.185   9.619  0.00  0.00     0.029 A 
HETATM   41  C   UNK N   1      34.704  10.959   9.949  0.00  0.00     0.060 A 
HETATM   42 Cl   UNK N   1      33.714  10.389  11.281  0.00  0.00    -0.082 Cl
BRANCH  38  43
HETATM   43  O   UNK N   1      37.039  11.977   6.647  0.00  0.00    -0.356 OA
HETATM   44  C   UNK N   1      38.207  12.698   6.711  0.00  0.00     0.210 C 
ENDBRANCH  38  43
ENDBRANCH  34  36
ENDBRANCH   2  34
TORSDOF 9
ENDMDL
MODEL 6
REMARK VINA RESULT:      -8.0      2.602      6.376
REMARK  9 active torsions:
REMARK  status: ('A' for Active; 'I' for Inactive)
REMARK    1  A    between atoms: C_2  and  C_4 
REMARK    2  A    between atoms: C_2  and  N_39 
REMARK       I    between atoms: C_4  and  N_6 
REMARK    3  A    between atoms: N_6  and  C_7 
REMARK    4  A    between atoms: C_11  and  S_13 
REMARK    5  A    between atoms: S_13  and  N_16 
REMARK    6  A    between atoms: N_16  and  C_17 
REMARK    7  A    between atoms: C_18  and  N_29 
REMARK    8  A    between atoms: N_29  and  C_30 
REMARK    9  A    between atoms: C_32  and  O_37 
ROOT
HETATM    1  C   UNK N   1      25.905  17.061   5.797  0.00  0.00     0.160 A 
HETATM    2  C   UNK N   1      27.216  17.493   5.666  0.00  0.00     0.152 A 
HETATM    3  N   UNK N   1      27.509  18.557   4.870  0.00  0.00    -0.338 N 
ATOM      4  HN  UNK N   1      28.475  18.869   4.774  1.00  0.00     0.167 HD
HETATM    5  C   UNK N   1      26.518  19.207   4.202  0.00  0.00     0.060 A 
HETATM    6  C   UNK N   1      26.810  20.317   3.404  0.00  0.00     0.032 A 
HETATM    7  C   UNK N   1      25.784  20.971   2.716  0.00  0.00     0.002 A 
HETATM    8  C   UNK N   1      24.464  20.513   2.817  0.00  0.00     0.002 A 
HETATM    9  C   UNK N   1      24.162  19.407   3.618  0.00  0.00     0.032 A 
HETATM   10  C   UNK N   1      25.183  18.754   4.318  0.00  0.00     0.060 A 
HETATM   11  N   UNK N   1      24.903  17.690   5.123  0.00  0.00    -0.337 N 
ATOM     12  HN  UNK N   1      23.941  17.365   5.222  1.00  0.00     0.167 HD
ENDROOT
BRANCH   1  13
HETATM   13  N   UNK N   1      25.664  15.988   6.693  0.00  0.00    -0.263 N 
HETATM   14  H   UNK N   1      26.151  15.990   7.549  0.00  0.00     0.180 HD
BRANCH  13  15
HETATM   15  S   UNK N   1      24.572  14.673   6.389  0.00  0.00     0.264 S 
HETATM   16  O   UNK N   1      25.002  13.580   7.379  0.00  0.00    -0.200 OA
HETATM   17  O   UNK N   1      25.015  14.137   5.020  0.00  0.00    -0.200 OA
BRANCH  15  18
HETATM   18  C   UNK N   1      22.907  15.241   6.494  0.00  0.00     0.082 A 
HETATM   19  C   UNK N   1      22.109  14.900   7.589  0.00  0.00     0.025 A 
HETATM   20  C   UNK N   1      20.737  15.164   7.554  0.00  0.00     0.004 A 
HETATM   21  C   UNK N   1      20.165  15.730   6.407  0.00  0.00     0.029 A 
HETATM   22  C   UNK N   1      20.974  16.079   5.319  0.00  0.00     0.036 A 
HETATM   23  C   UNK N   1      22.342  15.815   5.369  0.00  0.00     0.054 A 
BRANCH  22  24
HETATM   24  N   UNK N   1      20.391  16.579   4.126  0.00  0.00    -0.325 N 
HETATM   25  C   UNK N   1      20.456  17.884   3.745  0.00  0.00     0.249 C 
HETATM   26  O   UNK N   1      20.852  18.740   4.526  0.00  0.00    -0.270 OA
HETATM   27  H   UNK N   1      19.913  15.946   3.542  0.00  0.00     0.169 HD
BRANCH  25  28
HETATM   28  C   UNK N   1      20.019  18.271   2.356  0.00  0.00     0.098 C 
HETATM   29  C   UNK N   1      20.783  19.480   1.837  0.00  0.00     0.048 C 
HETATM   30  C   UNK N   1      20.276  17.107   1.417  0.00  0.00     0.048 C 
BRANCH  28  31
HETATM   31  N   UNK N   1      18.600  18.579   2.357  0.00  0.00    -0.415 N 
HETATM   32  H   UNK N   1      18.071  19.418   2.598  0.00  0.00     0.151 HD
HETATM   33  H   UNK N   1      18.015  17.801   2.056  0.00  0.00     0.151 HD
ENDBRANCH  28  31
ENDBRANCH  25  28
ENDBRANCH  22  24
ENDBRANCH  15  18
ENDBRANCH  13  15
ENDBRANCH   1  13
BRANCH   2  34
HETATM   34  N   UNK N   1      28.199  16.748   6.352  0.00  0.00    -0.338 N 
HETATM   35  H   UNK N   1      27.980  15.790   6.409  0.00  0.00     0.167 HD
BRANCH  34  36
HETATM   36  C   UNK N   1      29.426  17.064   6.976  0.00  0.00     0.058 A 
HETATM   37  C   UNK N   1      30.566  16.704   6.259  0.00  0.00     0.067 A 
HETATM   38  C   UNK N   1      31.841  16.869   6.779  0.00  0.00     0.070 A 
HETATM   39  C   UNK N   1      31.989  17.425   8.057  0.00  0.00     0.038 A 
HETATM   40  C   UNK N   1      30.861  17.785   8.800  0.00  0.00     0.029 A 
HETATM   41  C   UNK N   1      29.573  17.601   8.282  0.00  0.00     0.060 A 
HETATM   42 Cl   UNK N   1      28.232  17.995   9.343  0.00  0.00    -0.082 Cl
BRANCH  38  43
HETATM   43  O   UNK N   1      32.900  16.473   6.036  0.00  0.00    -0.356 OA
HETATM   44  C   UNK N   1      34.190  16.876   6.281  0.00  0.00     0.210 C 
ENDBRANCH  38  43
ENDBRANCH  34  36
ENDBRANCH   2  34
TORSDOF 9
ENDMDL
MODEL 7
REMARK VINA RESULT:      -8.0      6.990     11.887
REMARK  9 active torsions:
REMARK  status: ('A' for Active; 'I' for Inactive)
REMARK    1  A    between atoms: C_2  and  C_4 
REMARK    2  A    between atoms: C_2  and  N_39 
REMARK       I    between atoms: C_4  and  N_6 
REMARK    3  A    between atoms: N_6  and  C_7 
REMARK    4  A    between atoms: C_11  and  S_13 
REMARK    5  A    between atoms: S_13  and  N_16 
REMARK    6  A    between atoms: N_16  and  C_17 
REMARK    7  A    between atoms: C_18  and  N_29 
REMARK    8  A    between atoms: N_29  and  C_30 
REMARK    9  A    between atoms: C_32  and  O_37 
ROOT
HETATM    1  C   UNK N   1      31.938  16.035   8.283  0.00  0.00     0.160 A 
HETATM    2  C   UNK N   1      31.608  15.785   6.961  0.00  0.00     0.152 A 
HETATM    3  N   UNK N   1      30.531  16.395   6.396  0.00  0.00    -0.338 N 
ATOM      4  HN  UNK N   1      30.290  16.205   5.423  1.00  0.00     0.167 HD
HETATM    5  C   UNK N   1      29.773  17.258   7.126  0.00  0.00     0.060 A 
HETATM    6  C   UNK N   1      28.679  17.907   6.543  0.00  0.00     0.032 A 
HETATM    7  C   UNK N   1      27.903  18.786   7.305  0.00  0.00     0.002 A 
HETATM    8  C   UNK N   1      28.211  19.011   8.653  0.00  0.00     0.002 A 
HETATM    9  C   UNK N   1      29.307  18.369   9.241  0.00  0.00     0.032 A 
HETATM   10  C   UNK N   1      30.094  17.498   8.482  0.00  0.00     0.060 A 
HETATM   11  N   UNK N   1      31.180  16.884   9.032  0.00  0.00    -0.337 N 
ATOM     12  HN  UNK N   1      31.427  17.061  10.006  1.00  0.00     0.167 HD
ENDROOT
BRANCH   1  13
HETATM   13  N   UNK N   1      33.110  15.416   8.787  0.00  0.00    -0.263 N 
HETATM   14  H   UNK N   1      33.022  14.513   9.169  0.00  0.00     0.180 HD
BRANCH  13  15
HETATM   15  S   UNK N   1      34.690  16.135   8.777  0.00  0.00     0.264 S 
HETATM   16  O   UNK N   1      34.510  17.470   9.517  0.00  0.00    -0.200 OA
HETATM   17  O   UNK N   1      34.898  16.543   7.310  0.00  0.00    -0.200 OA
BRANCH  15  18
HETATM   18  C   UNK N   1      35.868  15.004   9.438  0.00  0.00     0.082 A 
HETATM   19  C   UNK N   1      36.423  14.006   8.633  0.00  0.00     0.025 A 
HETATM   20  C   UNK N   1      37.177  12.985   9.219  0.00  0.00     0.004 A 
HETATM   21  C   UNK N   1      37.337  12.945  10.610  0.00  0.00     0.029 A 
HETATM   22  C   UNK N   1      36.786  13.955  11.408  0.00  0.00     0.036 A 
HETATM   23  C   UNK N   1      36.041  14.971  10.811  0.00  0.00     0.054 A 
BRANCH  22  24
HETATM   24  N   UNK N   1      36.877  13.879  12.821  0.00  0.00    -0.325 N 
HETATM   25  C   UNK N   1      35.850  13.485  13.623  0.00  0.00     0.249 C 
HETATM   26  O   UNK N   1      34.718  13.370  13.170  0.00  0.00    -0.270 OA
HETATM   27  H   UNK N   1      37.732  14.126  13.246  0.00  0.00     0.169 HD
BRANCH  25  28
HETATM   28  C   UNK N   1      36.114  13.208  15.080  0.00  0.00     0.098 C 
HETATM   29  C   UNK N   1      36.870  11.903  15.281  0.00  0.00     0.048 C 
HETATM   30  C   UNK N   1      36.951  14.336  15.652  0.00  0.00     0.048 C 
BRANCH  28  31
HETATM   31  N   UNK N   1      34.855  13.134  15.800  0.00  0.00    -0.415 N 
HETATM   32  H   UNK N   1      34.560  13.464  16.720  0.00  0.00     0.151 HD
HETATM   33  H   UNK N   1      34.118  12.658  15.283  0.00  0.00     0.151 HD
ENDBRANCH  28  31
ENDBRANCH  25  28
ENDBRANCH  22  24
ENDBRANCH  15  18
ENDBRANCH  13  15
ENDBRANCH   1  13
BRANCH   2  34
HETATM   34  N   UNK N   1      32.411  14.848   6.275  0.00  0.00    -0.338 N 
HETATM   35  H   UNK N   1      32.751  14.135   6.863  0.00  0.00     0.167 HD
BRANCH  34  36
HETATM   36  C   UNK N   1      32.839  14.700   4.937  0.00  0.00     0.058 A 
HETATM   37  C   UNK N   1      33.012  13.383   4.512  0.00  0.00     0.067 A 
HETATM   38  C   UNK N   1      33.511  13.079   3.255  0.00  0.00     0.070 A 
HETATM   39  C   UNK N   1      33.842  14.123   2.381  0.00  0.00     0.038 A 
HETATM   40  C   UNK N   1      33.687  15.452   2.788  0.00  0.00     0.029 A 
HETATM   41  C   UNK N   1      33.200  15.759   4.064  0.00  0.00     0.060 A 
HETATM   42 Cl   UNK N   1      33.144  17.458   4.500  0.00  0.00    -0.082 Cl
BRANCH  38  43
HETATM   43  O   UNK N   1      33.675  11.777   2.921  0.00  0.00    -0.356 OA
HETATM   44  C   UNK N   1      33.521  10.742   3.812  0.00  0.00     0.210 C 
ENDBRANCH  38  43
ENDBRANCH  34  36
ENDBRANCH   2  34
TORSDOF 9
ENDMDL
MODEL 8
REMARK VINA RESULT:      -7.9      2.817      3.963
REMARK  9 active torsions:
REMARK  status: ('A' for Active; 'I' for Inactive)
REMARK    1  A    between atoms: C_2  and  C_4 
REMARK    2  A    between atoms: C_2  and  N_39 
REMARK       I    between atoms: C_4  and  N_6 
REMARK    3  A    between atoms: N_6  and  C_7 
REMARK    4  A    between atoms: C_11  and  S_13 
REMARK    5  A    between atoms: S_13  and  N_16 
REMARK    6  A    between atoms: N_16  and  C_17 
REMARK    7  A    between atoms: C_18  and  N_29 
REMARK    8  A    between atoms: N_29  and  C_30 
REMARK    9  A    between atoms: C_32  and  O_37 
ROOT
HETATM    1  C   UNK N   1      27.955  17.832   5.715  0.00  0.00     0.160 A 
HETATM    2  C   UNK N   1      27.669  16.513   6.028  0.00  0.00     0.152 A 
HETATM    3  N   UNK N   1      28.610  15.547   5.847  0.00  0.00    -0.338 N 
ATOM      4  HN  UNK N   1      28.393  14.577   6.075  1.00  0.00     0.167 HD
HETATM    5  C   UNK N   1      29.839  15.871   5.361  0.00  0.00     0.060 A 
HETATM    6  C   UNK N   1      30.818  14.886   5.198  0.00  0.00     0.032 A 
HETATM    7  C   UNK N   1      32.075  15.230   4.690  0.00  0.00     0.002 A 
HETATM    8  C   UNK N   1      32.354  16.557   4.337  0.00  0.00     0.002 A 
HETATM    9  C   UNK N   1      31.381  17.548   4.504  0.00  0.00     0.032 A 
HETATM   10  C   UNK N   1      30.125  17.213   5.021  0.00  0.00     0.060 A 
HETATM   11  N   UNK N   1      29.174  18.172   5.213  0.00  0.00    -0.337 N 
ATOM     12  HN  UNK N   1      29.377  19.144   4.982  1.00  0.00     0.167 HD
ENDROOT
BRANCH   1  13
HETATM   13  N   UNK N   1      26.950  18.795   5.990  0.00  0.00    -0.263 N 
HETATM   14  H   UNK N   1      26.557  18.800   6.893  0.00  0.00     0.180 HD
BRANCH  13  15
HETATM   15  S   UNK N   1      26.366  19.967   4.850  0.00  0.00     0.264 S 
HETATM   16  O   UNK N   1      27.489  20.083   3.807  0.00  0.00    -0.200 OA
HETATM   17  O   UNK N   1      26.431  21.294   5.622  0.00  0.00    -0.200 OA
BRANCH  15  18
HETATM   18  C   UNK N   1      24.773  19.492   4.265  0.00  0.00     0.082 A 
HETATM   19  C   UNK N   1      24.106  20.267   3.314  0.00  0.00     0.025 A 
HETATM   20  C   UNK N   1      22.763  20.006   3.028  0.00  0.00     0.004 A 
HETATM   21  C   UNK N   1      22.084  18.996   3.724  0.00  0.00     0.029 A 
HETATM   22  C   UNK N   1      22.764  18.217   4.667  0.00  0.00     0.036 A 
HETATM   23  C   UNK N   1      24.105  18.484   4.940  0.00  0.00     0.054 A 
BRANCH  22  24
HETATM   24  N   UNK N   1      22.065  17.247   5.430  0.00  0.00    -0.325 N 
HETATM   25  C   UNK N   1      21.259  17.554   6.484  0.00  0.00     0.249 C 
HETATM   26  O   UNK N   1      21.259  18.684   6.957  0.00  0.00    -0.270 OA
HETATM   27  H   UNK N   1      22.169  16.299   5.184  0.00  0.00     0.169 HD
BRANCH  25  28
HETATM   28  C   UNK N   1      20.377  16.486   7.075  0.00  0.00     0.098 C 
HETATM   29  C   UNK N   1      19.292  16.044   6.106  0.00  0.00     0.048 C 
HETATM   30  C   UNK N   1      21.229  15.278   7.418  0.00  0.00     0.048 C 
BRANCH  28  31
HETATM   31  N   UNK N   1      19.749  16.985   8.286  0.00  0.00    -0.415 N 
HETATM   32  H   UNK N   1      19.264  16.526   9.058  0.00  0.00     0.151 HD
HETATM   33  H   UNK N   1      19.802  17.998   8.384  0.00  0.00     0.151 HD
ENDBRANCH  28  31
ENDBRANCH  25  28
ENDBRANCH  22  24
ENDBRANCH  15  18
ENDBRANCH  13  15
ENDBRANCH   1  13
BRANCH   2  34
HETATM   34  N   UNK N   1      26.362  16.240   6.486  0.00  0.00    -0.338 N 
HETATM   35  H   UNK N   1      25.988  16.973   7.028  0.00  0.00     0.167 HD
BRANCH  34  36
HETATM   36  C   UNK N   1      25.468  15.156   6.347  0.00  0.00     0.058 A 
HETATM   37  C   UNK N   1      25.257  14.409   7.505  0.00  0.00     0.067 A 
HETATM   38  C   UNK N   1      24.476  13.263   7.506  0.00  0.00     0.070 A 
HETATM   39  C   UNK N   1      23.871  12.850   6.311  0.00  0.00     0.038 A 
HETATM   40  C   UNK N   1      24.075  13.577   5.135  0.00  0.00     0.029 A 
HETATM   41  C   UNK N   1      24.879  14.723   5.130  0.00  0.00     0.060 A 
HETATM   42 Cl   UNK N   1      25.145  15.495   3.576  0.00  0.00    -0.082 Cl
BRANCH  38  43
HETATM   43  O   UNK N   1      24.337  12.575   8.663  0.00  0.00    -0.356 OA
HETATM   44  C   UNK N   1      24.901  12.971   9.851  0.00  0.00     0.210 C 
ENDBRANCH  38  43
ENDBRANCH  34  36
ENDBRANCH   2  34
TORSDOF 9
ENDMDL
MODEL 9
REMARK VINA RESULT:      -7.9      3.654      7.733
REMARK  9 active torsions:
REMARK  status: ('A' for Active; 'I' for Inactive)
REMARK    1  A    between atoms: C_2  and  C_4 
REMARK    2  A    between atoms: C_2  and  N_39 
REMARK       I    between atoms: C_4  and  N_6 
REMARK    3  A    between atoms: N_6  and  C_7 
REMARK    4  A    between atoms: C_11  and  S_13 
REMARK    5  A    between atoms: S_13  and  N_16 
REMARK    6  A    between atoms: N_16  and  C_17 
REMARK    7  A    between atoms: C_18  and  N_29 
REMARK    8  A    between atoms: N_29  and  C_30 
REMARK    9  A    between atoms: C_32  and  O_37 
ROOT
HETATM    1  C   UNK N   1      21.596  15.996   3.254  0.00  0.00     0.160 A 
HETATM    2  C   UNK N   1      21.262  14.832   3.927  0.00  0.00     0.152 A 
HETATM    3  N   UNK N   1      20.334  13.983   3.406  0.00  0.00    -0.338 N 
ATOM      4  HN  UNK N   1      20.089  13.129   3.907  1.00  0.00     0.167 HD
HETATM    5  C   UNK N   1      19.732  14.271   2.221  0.00  0.00     0.060 A 
HETATM    6  C   UNK N   1      18.797  13.389   1.669  0.00  0.00     0.032 A 
HETATM    7  C   UNK N   1      18.179  13.699   0.453  0.00  0.00     0.002 A 
HETATM    8  C   UNK N   1      18.487  14.895  -0.209  0.00  0.00     0.002 A 
HETATM    9  C   UNK N   1      19.426  15.778   0.334  0.00  0.00     0.032 A 
HETATM   10  C   UNK N   1      20.056  15.469   1.544  0.00  0.00     0.060 A 
HETATM   11  N   UNK N   1      20.992  16.307   2.074  0.00  0.00    -0.337 N 
ATOM     12  HN  UNK N   1      21.241  17.167   1.586  1.00  0.00     0.167 HD
ENDROOT
BRANCH   1  13
HETATM   13  N   UNK N   1      22.617  16.801   3.821  0.00  0.00    -0.263 N 
HETATM   14  H   UNK N   1      23.445  16.352   4.112  0.00  0.00     0.180 HD
BRANCH  13  15
HETATM   15  S   UNK N   1      22.515  18.520   4.039  0.00  0.00     0.264 S 
HETATM   16  O   UNK N   1      21.674  18.697   5.313  0.00  0.00    -0.200 OA
HETATM   17  O   UNK N   1      21.584  18.978   2.906  0.00  0.00    -0.200 OA
BRANCH  15  18
HETATM   18  C   UNK N   1      24.132  19.222   4.041  0.00  0.00     0.082 A 
HETATM   19  C   UNK N   1      24.507  20.142   3.060  0.00  0.00     0.025 A 
HETATM   20  C   UNK N   1      25.848  20.517   2.939  0.00  0.00     0.004 A 
HETATM   21  C   UNK N   1      26.812  19.936   3.775  0.00  0.00     0.029 A 
HETATM   22  C   UNK N   1      26.426  19.023   4.763  0.00  0.00     0.036 A 
HETATM   23  C   UNK N   1      25.084  18.662   4.876  0.00  0.00     0.054 A 
BRANCH  22  24
HETATM   24  N   UNK N   1      27.404  18.374   5.558  0.00  0.00    -0.325 N 
HETATM   25  C   UNK N   1      27.828  18.844   6.764  0.00  0.00     0.249 C 
HETATM   26  O   UNK N   1      27.528  19.973   7.131  0.00  0.00    -0.270 OA
HETATM   27  H   UNK N   1      27.799  17.538   5.219  0.00  0.00     0.169 HD
BRANCH  25  28
HETATM   28  C   UNK N   1      28.686  17.967   7.638  0.00  0.00     0.098 C 
HETATM   29  C   UNK N   1      29.470  18.777   8.660  0.00  0.00     0.048 C 
HETATM   30  C   UNK N   1      27.793  16.994   8.386  0.00  0.00     0.048 C 
BRANCH  28  31
HETATM   31  N   UNK N   1      29.621  17.220   6.816  0.00  0.00    -0.415 N 
HETATM   32  H   UNK N   1      30.617  17.014   6.907  0.00  0.00     0.151 HD
HETATM   33  H   UNK N   1      29.198  16.821   5.979  0.00  0.00     0.151 HD
ENDBRANCH  28  31
ENDBRANCH  25  28
ENDBRANCH  22  24
ENDBRANCH  15  18
ENDBRANCH  13  15
ENDBRANCH   1  13
BRANCH   2  34
HETATM   34  N   UNK N   1      21.892  14.616   5.171  0.00  0.00    -0.338 N 
HETATM   35  H   UNK N   1      22.861  14.459   5.085  0.00  0.00     0.167 HD
BRANCH  34  36
HETATM   36  C   UNK N   1      21.451  14.573   6.512  0.00  0.00     0.058 A 
HETATM   37  C   UNK N   1      21.146  15.811   7.076  0.00  0.00     0.067 A 
HETATM   38  C   UNK N   1      20.784  15.939   8.408  0.00  0.00     0.070 A 
HETATM   39  C   UNK N   1      20.711  14.791   9.209  0.00  0.00     0.038 A 
HETATM   40  C   UNK N   1      21.022  13.540   8.669  0.00  0.00     0.029 A 
HETATM   41  C   UNK N   1      21.405  13.413   7.329  0.00  0.00     0.060 A 
HETATM   42 Cl   UNK N   1      21.870  11.808   6.789  0.00  0.00    -0.082 Cl
BRANCH  38  43
HETATM   43  O   UNK N   1      20.526  17.177   8.893  0.00  0.00    -0.356 OA
HETATM   44  C   UNK N   1      19.265  17.719   8.952  0.00  0.00     0.210 C 
ENDBRANCH  38  43
ENDBRANCH  34  36
ENDBRANCH   2  34
TORSDOF 9
ENDMDL
