MODEL 1
REMARK VINA RESULT:      -8.3      0.000      0.000
REMARK  12 active torsions:
REMARK  status: ('A' for Active; 'I' for Inactive)
REMARK    1  A    between atoms: C_20  and  C_13 
REMARK    2  A    between atoms: O_34  and  C_13 
REMARK    3  A    between atoms: C_17  and  N_33 
REMARK    4  A    between atoms: O_41  and  C_18 
REMARK    5  A    between atoms: C_19  and  O_44 
REMARK    6  A    between atoms: C_32  and  C_20 
REMARK    7  A    between atoms: C_21  and  O_45 
REMARK    8  A    between atoms: C_22  and  O_44 
REMARK    9  A    between atoms: O_37  and  C_28 
REMARK   10  A    between atoms: O_39  and  C_30 
REMARK   11  A    between atoms: C_31  and  O_45 
REMARK   12  A    between atoms: C_32  and  O_40 
ROOT
HETATM    1  C   UNK N   1      27.843  18.860   5.097  0.00  0.00     0.004 A 
HETATM    2  C   UNK N   1      28.914  18.221   4.486  0.00  0.00     0.017 A 
HETATM    3  C   UNK N   1      27.744  18.874   6.483  0.00  0.00     0.038 A 
HETATM    4  C   UNK N   1      35.396  14.439   4.622  0.00  0.00     0.088 C 
HETATM    5  C   UNK N   1      36.010  13.323   6.809  0.00  0.00     0.083 C 
HETATM    6  C   UNK N   1      29.911  17.602   5.252  0.00  0.00     0.032 A 
HETATM    7  C   UNK N   1      34.275  15.117   5.397  0.00  0.00    -0.009 A 
HETATM    8  C   UNK N   1      28.708  18.248   7.280  0.00  0.00     0.083 A 
HETATM    9  C   UNK N   1      35.437  14.546   7.540  0.00  0.00     0.164 C 
HETATM   10  C   UNK N   1      29.833  17.612   6.661  0.00  0.00     0.062 A 
HETATM   11  C   UNK N   1      34.247  15.132   6.807  0.00  0.00     0.014 A 
HETATM   12  C   UNK N   1      32.143  16.312   5.332  0.00  0.00     0.066 A 
HETATM   13  C   UNK N   1      32.099  16.326   6.742  0.00  0.00     0.066 A 
HETATM   14  C   UNK N   1      31.043  16.954   4.555  0.00  0.00     0.197 A 
HETATM   15  C   UNK N   1      33.232  15.700   4.668  0.00  0.00     0.088 A 
HETATM   16  C   UNK N   1      30.947  16.985   7.443  0.00  0.00     0.200 A 
HETATM   17  C   UNK N   1      33.157  15.732   7.479  0.00  0.00     0.090 A 
HETATM   18  C   UNK N   1      36.531  13.775   5.431  0.00  0.00     0.127 C 
HETATM   19  O   UNK N   1      31.070  16.959   3.333  0.00  0.00    -0.286 OA
HETATM   20  O   UNK N   1      30.947  17.049   8.660  0.00  0.00    -0.286 OA
ENDROOT
BRANCH   9  21
HETATM   21  O   UNK N   1      35.353  14.471   8.947  0.00  0.00    -0.351 OA
BRANCH  21  22
HETATM   22  C   UNK N   1      36.464  14.875   9.726  0.00  0.00     0.263 C 
HETATM   23  C   UNK N   1      36.099  15.799  10.903  0.00  0.00     0.088 C 
HETATM   24  C   UNK N   1      35.130  15.110  11.860  0.00  0.00     0.110 C 
HETATM   25  C   UNK N   1      35.673  13.731  12.285  0.00  0.00     0.175 C 
HETATM   26  C   UNK N   1      36.205  12.929  11.064  0.00  0.00     0.151 C 
HETATM   27  C   UNK N   1      35.087  12.246  10.279  0.00  0.00     0.042 C 
HETATM   28  O   UNK N   1      37.090  13.704  10.243  0.00  0.00    -0.354 OA
BRANCH  24  29
HETATM   29  N   UNK N   1      33.833  14.966  11.213  0.00  0.00    -0.423 N 
HETATM   30  H   UNK N   1      32.895  15.358  11.126  0.00  0.00     0.150 HD
HETATM   31  H   UNK N   1      33.881  14.148  10.606  0.00  0.00     0.150 HD
ENDBRANCH  24  29
BRANCH  25  32
HETATM   32  O   UNK N   1      36.716  13.882  13.239  0.00  0.00    -0.351 OA
BRANCH  32  33
HETATM   33  C   UNK N   1      36.332  13.319  14.496  0.00  0.00     0.260 C 
HETATM   34  C   UNK N   1      36.851  11.883  14.596  0.00  0.00     0.061 C 
HETATM   35  C   UNK N   1      36.434  11.298  15.947  0.00  0.00     0.007 C 
HETATM   36  C   UNK N   1      34.936  11.497  16.178  0.00  0.00     0.026 C 
HETATM   37  C   UNK N   1      34.567  12.957  15.910  0.00  0.00     0.171 C 
HETATM   38  O   UNK N   1      34.922  13.315  14.590  0.00  0.00    -0.361 OA
ENDBRANCH  32  33
ENDBRANCH  25  32
ENDBRANCH  21  22
ENDBRANCH   9  21
BRANCH  18  39
HETATM   39  C   UNK N   1      37.138  12.600   4.691  0.00  0.00     0.184 C 
HETATM   40  O   UNK N   1      36.460  11.602   4.501  0.00  0.00    -0.292 OA
BRANCH  39  41
HETATM   41  C   UNK N   1      38.573  12.582   4.254  0.00  0.00     0.245 C 
BRANCH  41  42
HETATM   42  O   UNK N   1      38.798  13.522   3.249  0.00  0.00    -0.393 OA
HETATM   43  H   UNK N   1      39.483  13.814   2.628  0.00  0.00     0.209 HD
ENDBRANCH  41  42
ENDBRANCH  39  41
ENDBRANCH  18  39
BRANCH  18  44
HETATM   44  O   UNK N   1      37.554  14.712   5.611  0.00  0.00    -0.382 OA
HETATM   45  H   UNK N   1      38.407  15.156   5.744  0.00  0.00     0.211 HD
ENDBRANCH  18  44
BRANCH  17  46
HETATM   46  O   UNK N   1      33.135  15.762   8.823  0.00  0.00    -0.359 OA
HETATM   47  H   UNK N   1      32.805  15.030   9.306  0.00  0.00     0.217 HD
ENDBRANCH  17  46
BRANCH  15  48
HETATM   48  O   UNK N   1      33.283  15.672   3.323  0.00  0.00    -0.359 OA
HETATM   49  H   UNK N   1      33.785  15.014   2.884  0.00  0.00     0.217 HD
ENDBRANCH  15  48
BRANCH   8  50
HETATM   50  O   UNK N   1      28.516  18.287   8.619  0.00  0.00    -0.355 OA
HETATM   51  C   UNK N   1      27.785  17.331   9.284  0.00  0.00     0.210 C 
ENDBRANCH   8  50
TORSDOF 12
ENDMDL
MODEL 2
REMARK VINA RESULT:      -8.0      2.208      9.080
REMARK  12 active torsions:
REMARK  status: ('A' for Active; 'I' for Inactive)
REMARK    1  A    between atoms: C_20  and  C_13 
REMARK    2  A    between atoms: O_34  and  C_13 
REMARK    3  A    between atoms: C_17  and  N_33 
REMARK    4  A    between atoms: O_41  and  C_18 
REMARK    5  A    between atoms: C_19  and  O_44 
REMARK    6  A    between atoms: C_32  and  C_20 
REMARK    7  A    between atoms: C_21  and  O_45 
REMARK    8  A    between atoms: C_22  and  O_44 
REMARK    9  A    between atoms: O_37  and  C_28 
REMARK   10  A    between atoms: O_39  and  C_30 
REMARK   11  A    between atoms: C_31  and  O_45 
REMARK   12  A    between atoms: C_32  and  O_40 
ROOT
HETATM    1  C   UNK N   1      36.679   9.908  17.463  0.00  0.00     0.004 A 
HETATM    2  C   UNK N   1      37.204   9.635  16.207  0.00  0.00     0.017 A 
HETATM    3  C   UNK N   1      35.822  10.988  17.636  0.00  0.00     0.038 A 
HETATM    4  C   UNK N   1      37.893  10.895   8.839  0.00  0.00     0.088 C 
HETATM    5  C   UNK N   1      37.125  13.156   8.001  0.00  0.00     0.083 C 
HETATM    6  C   UNK N   1      36.866  10.427  15.101  0.00  0.00     0.032 A 
HETATM    7  C   UNK N   1      37.252  11.280  10.165  0.00  0.00    -0.009 A 
HETATM    8  C   UNK N   1      35.478  11.814  16.561  0.00  0.00     0.083 A 
HETATM    9  C   UNK N   1      35.958  13.077   8.996  0.00  0.00     0.164 C 
HETATM   10  C   UNK N   1      35.990  11.524  15.255  0.00  0.00     0.062 A 
HETATM   11  C   UNK N   1      36.358  12.364  10.273  0.00  0.00     0.014 A 
HETATM   12  C   UNK N   1      37.073  10.879  12.571  0.00  0.00     0.066 A 
HETATM   13  C   UNK N   1      36.184  11.968  12.693  0.00  0.00     0.066 A 
HETATM   14  C   UNK N   1      37.433  10.083  13.780  0.00  0.00     0.197 A 
HETATM   15  C   UNK N   1      37.606  10.546  11.304  0.00  0.00     0.088 A 
HETATM   16  C   UNK N   1      35.612  12.312  14.037  0.00  0.00     0.200 A 
HETATM   17  C   UNK N   1      35.828  12.710  11.537  0.00  0.00     0.090 A 
HETATM   18  C   UNK N   1      37.519  11.723   7.591  0.00  0.00     0.127 C 
HETATM   19  O   UNK N   1      38.194   9.131  13.690  0.00  0.00    -0.286 OA
HETATM   20  O   UNK N   1      34.796  13.213  14.126  0.00  0.00    -0.286 OA
ENDROOT
BRANCH   9  21
HETATM   21  O   UNK N   1      35.148  14.224   9.126  0.00  0.00    -0.351 OA
BRANCH  21  22
HETATM   22  C   UNK N   1      34.493  14.738   7.980  0.00  0.00     0.263 C 
HETATM   23  C   UNK N   1      32.956  14.679   8.059  0.00  0.00     0.088 C 
HETATM   24  C   UNK N   1      32.438  15.484   9.248  0.00  0.00     0.110 C 
HETATM   25  C   UNK N   1      33.015  16.914   9.231  0.00  0.00     0.175 C 
HETATM   26  C   UNK N   1      34.545  16.905   8.950  0.00  0.00     0.151 C 
HETATM   27  C   UNK N   1      35.368  16.590  10.198  0.00  0.00     0.042 C 
HETATM   28  O   UNK N   1      34.890  16.097   7.817  0.00  0.00    -0.354 OA
BRANCH  24  29
HETATM   29  N   UNK N   1      32.802  14.806  10.485  0.00  0.00    -0.423 N 
HETATM   30  H   UNK N   1      32.445  14.303  11.297  0.00  0.00     0.150 HD
HETATM   31  H   UNK N   1      33.816  14.856  10.576  0.00  0.00     0.150 HD
ENDBRANCH  24  29
BRANCH  25  32
HETATM   32  O   UNK N   1      32.361  17.700   8.244  0.00  0.00    -0.351 OA
BRANCH  32  33
HETATM   33  C   UNK N   1      30.942  17.604   8.385  0.00  0.00     0.260 C 
HETATM   34  C   UNK N   1      30.291  17.530   7.003  0.00  0.00     0.061 C 
HETATM   35  C   UNK N   1      28.774  17.425   7.173  0.00  0.00     0.007 C 
HETATM   36  C   UNK N   1      28.263  18.522   8.107  0.00  0.00     0.026 C 
HETATM   37  C   UNK N   1      29.105  18.541   9.383  0.00  0.00     0.171 C 
HETATM   38  O   UNK N   1      30.466  18.748   9.066  0.00  0.00    -0.361 OA
ENDBRANCH  32  33
ENDBRANCH  25  32
ENDBRANCH  21  22
ENDBRANCH   9  21
BRANCH  18  39
HETATM   39  C   UNK N   1      38.646  11.760   6.580  0.00  0.00     0.184 C 
HETATM   40  O   UNK N   1      39.043  12.840   6.170  0.00  0.00    -0.292 OA
BRANCH  39  41
HETATM   41  C   UNK N   1      39.242  10.512   5.996  0.00  0.00     0.245 C 
BRANCH  41  42
HETATM   42  O   UNK N   1      38.524  10.095   4.877  0.00  0.00    -0.393 OA
HETATM   43  H   UNK N   1      38.152  10.436   4.048  0.00  0.00     0.209 HD
ENDBRANCH  41  42
ENDBRANCH  39  41
ENDBRANCH  18  39
BRANCH  18  44
HETATM   44  O   UNK N   1      36.431  11.109   6.962  0.00  0.00    -0.382 OA
HETATM   45  H   UNK N   1      35.660  10.562   6.745  0.00  0.00     0.211 HD
ENDBRANCH  18  44
BRANCH  17  46
HETATM   46  O   UNK N   1      34.963  13.736  11.642  0.00  0.00    -0.359 OA
HETATM   47  H   UNK N   1      34.361  13.775  12.359  0.00  0.00     0.217 HD
ENDBRANCH  17  46
BRANCH  15  48
HETATM   48  O   UNK N   1      38.462   9.515  11.173  0.00  0.00    -0.359 OA
HETATM   49  H   UNK N   1      38.561   9.086  10.345  0.00  0.00     0.217 HD
ENDBRANCH  15  48
BRANCH   8  50
HETATM   50  O   UNK N   1      34.660  12.858  16.827  0.00  0.00    -0.355 OA
HETATM   51  C   UNK N   1      35.019  13.872  17.685  0.00  0.00     0.210 C 
ENDBRANCH   8  50
TORSDOF 12
ENDMDL
MODEL 3
REMARK VINA RESULT:      -7.9      3.548      8.512
REMARK  12 active torsions:
REMARK  status: ('A' for Active; 'I' for Inactive)
REMARK    1  A    between atoms: C_20  and  C_13 
REMARK    2  A    between atoms: O_34  and  C_13 
REMARK    3  A    between atoms: C_17  and  N_33 
REMARK    4  A    between atoms: O_41  and  C_18 
REMARK    5  A    between atoms: C_19  and  O_44 
REMARK    6  A    between atoms: C_32  and  C_20 
REMARK    7  A    between atoms: C_21  and  O_45 
REMARK    8  A    between atoms: C_22  and  O_44 
REMARK    9  A    between atoms: O_37  and  C_28 
REMARK   10  A    between atoms: O_39  and  C_30 
REMARK   11  A    between atoms: C_31  and  O_45 
REMARK   12  A    between atoms: C_32  and  O_40 
ROOT
HETATM    1  C   UNK N   1      26.171  21.270   6.643  0.00  0.00     0.004 A 
HETATM    2  C   UNK N   1      27.015  20.608   7.524  0.00  0.00     0.017 A 
HETATM    3  C   UNK N   1      26.178  20.937   5.294  0.00  0.00     0.038 A 
HETATM    4  C   UNK N   1      32.152  15.403   9.215  0.00  0.00     0.088 C 
HETATM    5  C   UNK N   1      33.443  14.415   7.275  0.00  0.00     0.083 C 
HETATM    6  C   UNK N   1      27.864  19.588   7.074  0.00  0.00     0.032 A 
HETATM    7  C   UNK N   1      31.265  16.055   8.163  0.00  0.00    -0.009 A 
HETATM    8  C   UNK N   1      27.028  19.940   4.803  0.00  0.00     0.083 A 
HETATM    9  C   UNK N   1      32.146  14.451   6.454  0.00  0.00     0.164 C 
HETATM   10  C   UNK N   1      27.880  19.228   5.709  0.00  0.00     0.062 A 
HETATM   11  C   UNK N   1      31.288  15.646   6.814  0.00  0.00     0.014 A 
HETATM   12  C   UNK N   1      29.622  17.783   7.625  0.00  0.00     0.066 A 
HETATM   13  C   UNK N   1      29.642  17.390   6.270  0.00  0.00     0.066 A 
HETATM   14  C   UNK N   1      28.727  18.896   8.055  0.00  0.00     0.197 A 
HETATM   15  C   UNK N   1      30.441  17.113   8.563  0.00  0.00     0.088 A 
HETATM   16  C   UNK N   1      28.764  18.097   5.279  0.00  0.00     0.200 A 
HETATM   17  C   UNK N   1      30.479  16.317   5.867  0.00  0.00     0.090 A 
HETATM   18  C   UNK N   1      33.077  14.253   8.764  0.00  0.00     0.127 C 
HETATM   19  O   UNK N   1      28.691  19.243   9.227  0.00  0.00    -0.286 OA
HETATM   20  O   UNK N   1      28.739  17.712   4.123  0.00  0.00    -0.286 OA
ENDROOT
BRANCH   9  21
HETATM   21  O   UNK N   1      32.244  14.117   5.087  0.00  0.00    -0.351 OA
BRANCH  21  22
HETATM   22  C   UNK N   1      32.951  12.947   4.713  0.00  0.00     0.263 C 
HETATM   23  C   UNK N   1      32.191  12.049   3.719  0.00  0.00     0.088 C 
HETATM   24  C   UNK N   1      31.885  12.801   2.426  0.00  0.00     0.110 C 
HETATM   25  C   UNK N   1      33.166  13.437   1.849  0.00  0.00     0.175 C 
HETATM   26  C   UNK N   1      33.985  14.164   2.953  0.00  0.00     0.151 C 
HETATM   27  C   UNK N   1      33.437  15.554   3.269  0.00  0.00     0.042 C 
HETATM   28  O   UNK N   1      34.182  13.348   4.116  0.00  0.00    -0.354 OA
BRANCH  24  29
HETATM   29  N   UNK N   1      30.885  13.825   2.688  0.00  0.00    -0.423 N 
HETATM   30  H   UNK N   1      29.904  14.083   2.576  0.00  0.00     0.150 HD
HETATM   31  H   UNK N   1      31.349  14.591   3.176  0.00  0.00     0.150 HD
ENDBRANCH  24  29
BRANCH  25  32
HETATM   32  O   UNK N   1      33.980  12.445   1.237  0.00  0.00    -0.351 OA
BRANCH  32  33
HETATM   33  C   UNK N   1      33.425  12.045  -0.018  0.00  0.00     0.260 C 
HETATM   34  C   UNK N   1      33.949  10.657  -0.394  0.00  0.00     0.061 C 
HETATM   35  C   UNK N   1      33.342  10.245  -1.736  0.00  0.00     0.007 C 
HETATM   36  C   UNK N   1      33.539  11.349  -2.775  0.00  0.00     0.026 C 
HETATM   37  C   UNK N   1      33.086  12.688  -2.190  0.00  0.00     0.171 C 
HETATM   38  O   UNK N   1      33.810  12.975  -1.011  0.00  0.00    -0.361 OA
ENDBRANCH  32  33
ENDBRANCH  25  32
ENDBRANCH  21  22
ENDBRANCH   9  21
BRANCH  18  39
HETATM   39  C   UNK N   1      34.335  14.177   9.606  0.00  0.00     0.184 C 
HETATM   40  O   UNK N   1      35.255  13.462   9.240  0.00  0.00    -0.292 OA
BRANCH  39  41
HETATM   41  C   UNK N   1      34.463  14.887  10.922  0.00  0.00     0.245 C 
BRANCH  41  42
HETATM   42  O   UNK N   1      34.187  14.022  11.981  0.00  0.00    -0.393 OA
HETATM   43  H   UNK N   1      34.179  13.995  12.950  0.00  0.00     0.209 HD
ENDBRANCH  41  42
ENDBRANCH  39  41
ENDBRANCH  18  39
BRANCH  18  44
HETATM   44  O   UNK N   1      32.399  13.042   8.941  0.00  0.00    -0.382 OA
HETATM   45  H   UNK N   1      31.734  12.355   9.109  0.00  0.00     0.211 HD
ENDBRANCH  18  44
BRANCH  17  46
HETATM   46  O   UNK N   1      30.487  15.922   4.581  0.00  0.00    -0.359 OA
HETATM   47  H   UNK N   1      30.904  15.119   4.336  0.00  0.00     0.217 HD
ENDBRANCH  17  46
BRANCH  15  48
HETATM   48  O   UNK N   1      30.439  17.482   9.858  0.00  0.00    -0.359 OA
HETATM   49  H   UNK N   1      31.057  17.109  10.456  0.00  0.00     0.217 HD
ENDBRANCH  15  48
BRANCH   8  50
HETATM   50  O   UNK N   1      26.988  19.700   3.472  0.00  0.00    -0.355 OA
HETATM   51  C   UNK N   1      25.929  20.092   2.687  0.00  0.00     0.210 C 
ENDBRANCH   8  50
TORSDOF 12
ENDMDL
MODEL 4
REMARK VINA RESULT:      -7.8      8.306     13.419
REMARK  12 active torsions:
REMARK  status: ('A' for Active; 'I' for Inactive)
REMARK    1  A    between atoms: C_20  and  C_13 
REMARK    2  A    between atoms: O_34  and  C_13 
REMARK    3  A    between atoms: C_17  and  N_33 
REMARK    4  A    between atoms: O_41  and  C_18 
REMARK    5  A    between atoms: C_19  and  O_44 
REMARK    6  A    between atoms: C_32  and  C_20 
REMARK    7  A    between atoms: C_21  and  O_45 
REMARK    8  A    between atoms: C_22  and  O_44 
REMARK    9  A    between atoms: O_37  and  C_28 
REMARK   10  A    between atoms: O_39  and  C_30 
REMARK   11  A    between atoms: C_31  and  O_45 
REMARK   12  A    between atoms: C_32  and  O_40 
ROOT
HETATM    1  C   UNK N   1      18.907  10.209  -0.186  0.00  0.00     0.004 A 
HETATM    2  C   UNK N   1      18.703  11.580  -0.121  0.00  0.00     0.017 A 
HETATM    3  C   UNK N   1      20.020   9.645   0.426  0.00  0.00     0.038 A 
HETATM    4  C   UNK N   1      20.488  18.499   2.179  0.00  0.00     0.088 C 
HETATM    5  C   UNK N   1      22.849  18.836   3.025  0.00  0.00     0.083 C 
HETATM    6  C   UNK N   1      19.597  12.407   0.573  0.00  0.00     0.032 A 
HETATM    7  C   UNK N   1      20.806  17.010   2.181  0.00  0.00    -0.009 A 
HETATM    8  C   UNK N   1      20.947  10.439   1.110  0.00  0.00     0.083 A 
HETATM    9  C   UNK N   1      22.763  17.450   3.680  0.00  0.00     0.164 C 
HETATM   10  C   UNK N   1      20.729  11.853   1.208  0.00  0.00     0.062 A 
HETATM   11  C   UNK N   1      21.931  16.490   2.854  0.00  0.00     0.014 A 
HETATM   12  C   UNK N   1      20.231  14.770   1.387  0.00  0.00     0.066 A 
HETATM   13  C   UNK N   1      21.358  14.239   2.049  0.00  0.00     0.066 A 
HETATM   14  C   UNK N   1      19.324  13.858   0.632  0.00  0.00     0.197 A 
HETATM   15  C   UNK N   1      19.966  16.158   1.455  0.00  0.00     0.088 A 
HETATM   16  C   UNK N   1      21.630  12.764   1.984  0.00  0.00     0.200 A 
HETATM   17  C   UNK N   1      22.209  15.105   2.784  0.00  0.00     0.090 A 
HETATM   18  C   UNK N   1      21.431  19.438   2.961  0.00  0.00     0.127 C 
HETATM   19  O   UNK N   1      18.337  14.301   0.061  0.00  0.00    -0.286 OA
HETATM   20  O   UNK N   1      22.569  12.302   2.610  0.00  0.00    -0.286 OA
ENDROOT
BRANCH   9  21
HETATM   21  O   UNK N   1      23.943  16.942   4.263  0.00  0.00    -0.351 OA
BRANCH  21  22
HETATM   22  C   UNK N   1      25.124  16.881   3.484  0.00  0.00     0.263 C 
HETATM   23  C   UNK N   1      25.959  18.175   3.513  0.00  0.00     0.088 C 
HETATM   24  C   UNK N   1      26.397  18.512   4.936  0.00  0.00     0.110 C 
HETATM   25  C   UNK N   1      27.088  17.301   5.594  0.00  0.00     0.175 C 
HETATM   26  C   UNK N   1      26.285  15.991   5.356  0.00  0.00     0.151 C 
HETATM   27  C   UNK N   1      25.108  15.842   6.319  0.00  0.00     0.042 C 
HETATM   28  O   UNK N   1      25.925  15.811   3.980  0.00  0.00    -0.354 OA
BRANCH  24  29
HETATM   29  N   UNK N   1      25.236  18.919   5.715  0.00  0.00    -0.423 N 
HETATM   30  H   UNK N   1      24.321  19.366   5.677  0.00  0.00     0.150 HD
HETATM   31  H   UNK N   1      25.407  18.650   6.684  0.00  0.00     0.150 HD
ENDBRANCH  24  29
BRANCH  25  32
HETATM   32  O   UNK N   1      28.406  17.144   5.083  0.00  0.00    -0.351 OA
BRANCH  32  33
HETATM   33  C   UNK N   1      29.325  16.867   6.142  0.00  0.00     0.260 C 
HETATM   34  C   UNK N   1      29.043  17.795   7.325  0.00  0.00     0.061 C 
HETATM   35  C   UNK N   1      30.033  17.481   8.448  0.00  0.00     0.007 C 
HETATM   36  C   UNK N   1      31.466  17.477   7.914  0.00  0.00     0.026 C 
HETATM   37  C   UNK N   1      31.541  16.606   6.659  0.00  0.00     0.171 C 
HETATM   38  O   UNK N   1      30.643  17.085   5.679  0.00  0.00    -0.361 OA
ENDBRANCH  32  33
ENDBRANCH  25  32
ENDBRANCH  21  22
ENDBRANCH   9  21
BRANCH  18  39
HETATM   39  C   UNK N   1      21.479  20.824   2.352  0.00  0.00     0.184 C 
HETATM   40  O   UNK N   1      22.305  21.626   2.760  0.00  0.00    -0.292 OA
BRANCH  39  41
HETATM   41  C   UNK N   1      20.492  21.281   1.318  0.00  0.00     0.245 C 
BRANCH  41  42
HETATM   42  O   UNK N   1      20.916  20.929   0.037  0.00  0.00    -0.393 OA
HETATM   43  H   UNK N   1      21.035  21.305  -0.849  0.00  0.00     0.209 HD
ENDBRANCH  41  42
ENDBRANCH  39  41
ENDBRANCH  18  39
BRANCH  18  44
HETATM   44  O   UNK N   1      20.935  19.584   4.260  0.00  0.00    -0.382 OA
HETATM   45  H   UNK N   1      20.783  19.534   5.217  0.00  0.00     0.211 HD
ENDBRANCH  18  44
BRANCH  17  46
HETATM   46  O   UNK N   1      23.272  14.603   3.437  0.00  0.00    -0.359 OA
HETATM   47  H   UNK N   1      24.127  14.958   3.291  0.00  0.00     0.217 HD
ENDBRANCH  17  46
BRANCH  15  48
HETATM   48  O   UNK N   1      18.899  16.681   0.821  0.00  0.00    -0.359 OA
HETATM   49  H   UNK N   1      19.008  17.395   0.224  0.00  0.00     0.217 HD
ENDBRANCH  15  48
BRANCH   8  50
HETATM   50  O   UNK N   1      22.014   9.809   1.651  0.00  0.00    -0.355 OA
HETATM   51  C   UNK N   1      23.065   9.358   0.888  0.00  0.00     0.210 C 
ENDBRANCH   8  50
TORSDOF 12
ENDMDL
MODEL 5
REMARK VINA RESULT:      -7.6      3.084      8.301
REMARK  12 active torsions:
REMARK  status: ('A' for Active; 'I' for Inactive)
REMARK    1  A    between atoms: C_20  and  C_13 
REMARK    2  A    between atoms: O_34  and  C_13 
REMARK    3  A    between atoms: C_17  and  N_33 
REMARK    4  A    between atoms: O_41  and  C_18 
REMARK    5  A    between atoms: C_19  and  O_44 
REMARK    6  A    between atoms: C_32  and  C_20 
REMARK    7  A    between atoms: C_21  and  O_45 
REMARK    8  A    between atoms: C_22  and  O_44 
REMARK    9  A    between atoms: O_37  and  C_28 
REMARK   10  A    between atoms: O_39  and  C_30 
REMARK   11  A    between atoms: C_31  and  O_45 
REMARK   12  A    between atoms: C_32  and  O_40 
ROOT
HETATM    1  C   UNK N   1      42.966  12.539   4.818  0.00  0.00     0.004 A 
HETATM    2  C   UNK N   1      41.708  13.123   4.755  0.00  0.00     0.017 A 
HETATM    3  C   UNK N   1      43.389  11.929   5.992  0.00  0.00     0.038 A 
HETATM    4  C   UNK N   1      34.998  14.857   7.638  0.00  0.00     0.088 C 
HETATM    5  C   UNK N   1      34.772  14.701  10.154  0.00  0.00     0.083 C 
HETATM    6  C   UNK N   1      40.845  13.088   5.859  0.00  0.00     0.032 A 
HETATM    7  C   UNK N   1      36.349  14.178   7.817  0.00  0.00    -0.009 A 
HETATM    8  C   UNK N   1      42.565  11.893   7.122  0.00  0.00     0.083 A 
HETATM    9  C   UNK N   1      35.657  13.446  10.109  0.00  0.00     0.164 C 
HETATM   10  C   UNK N   1      41.252  12.465   7.059  0.00  0.00     0.062 A 
HETATM   11  C   UNK N   1      36.708  13.540   9.021  0.00  0.00     0.014 A 
HETATM   12  C   UNK N   1      38.544  13.659   6.874  0.00  0.00     0.066 A 
HETATM   13  C   UNK N   1      38.919  13.025   8.078  0.00  0.00     0.066 A 
HETATM   14  C   UNK N   1      39.506  13.702   5.735  0.00  0.00     0.197 A 
HETATM   15  C   UNK N   1      37.259  14.238   6.755  0.00  0.00     0.088 A 
HETATM   16  C   UNK N   1      40.279  12.403   8.197  0.00  0.00     0.200 A 
HETATM   17  C   UNK N   1      37.994  12.967   9.153  0.00  0.00     0.090 A 
HETATM   18  C   UNK N   1      34.007  14.810   8.821  0.00  0.00     0.127 C 
HETATM   19  O   UNK N   1      39.194  14.240   4.682  0.00  0.00    -0.286 OA
HETATM   20  O   UNK N   1      40.574  11.802   9.216  0.00  0.00    -0.286 OA
ENDROOT
BRANCH   9  21
HETATM   21  O   UNK N   1      36.057  12.900  11.347  0.00  0.00    -0.351 OA
BRANCH  21  22
HETATM   22  C   UNK N   1      35.181  12.019  12.027  0.00  0.00     0.263 C 
HETATM   23  C   UNK N   1      35.891  10.832  12.704  0.00  0.00     0.088 C 
HETATM   24  C   UNK N   1      36.904  11.316  13.738  0.00  0.00     0.110 C 
HETATM   25  C   UNK N   1      36.246  12.303  14.723  0.00  0.00     0.175 C 
HETATM   26  C   UNK N   1      35.385  13.361  13.977  0.00  0.00     0.151 C 
HETATM   27  C   UNK N   1      36.224  14.498  13.399  0.00  0.00     0.042 C 
HETATM   28  O   UNK N   1      34.491  12.767  13.025  0.00  0.00    -0.354 OA
BRANCH  24  29
HETATM   29  N   UNK N   1      38.023  11.951  13.056  0.00  0.00    -0.423 N 
HETATM   30  H   UNK N   1      39.037  12.067  13.046  0.00  0.00     0.150 HD
HETATM   31  H   UNK N   1      37.643  12.497  12.284  0.00  0.00     0.150 HD
ENDBRANCH  24  29
BRANCH  25  32
HETATM   32  O   UNK N   1      35.431  11.604  15.654  0.00  0.00    -0.351 OA
BRANCH  32  33
HETATM   33  C   UNK N   1      35.670  12.073  16.983  0.00  0.00     0.260 C 
HETATM   34  C   UNK N   1      35.328  10.971  17.987  0.00  0.00     0.061 C 
HETATM   35  C   UNK N   1      35.594  11.489  19.402  0.00  0.00     0.007 C 
HETATM   36  C   UNK N   1      34.908  12.838  19.616  0.00  0.00     0.026 C 
HETATM   37  C   UNK N   1      35.253  13.776  18.457  0.00  0.00     0.171 C 
HETATM   38  O   UNK N   1      34.854  13.200  17.230  0.00  0.00    -0.361 OA
ENDBRANCH  32  33
ENDBRANCH  25  32
ENDBRANCH  21  22
ENDBRANCH   9  21
BRANCH  18  39
HETATM   39  C   UNK N   1      33.094  16.019   8.840  0.00  0.00     0.184 C 
HETATM   40  O   UNK N   1      33.578  17.132   8.703  0.00  0.00    -0.292 OA
BRANCH  39  41
HETATM   41  C   UNK N   1      31.621  15.909   9.104  0.00  0.00     0.245 C 
BRANCH  41  42
HETATM   42  O   UNK N   1      31.381  15.315  10.342  0.00  0.00    -0.393 OA
HETATM   43  H   UNK N   1      31.145  15.541  11.255  0.00  0.00     0.209 HD
ENDBRANCH  41  42
ENDBRANCH  39  41
ENDBRANCH  18  39
BRANCH  18  44
HETATM   44  O   UNK N   1      33.187  13.686   8.669  0.00  0.00    -0.382 OA
HETATM   45  H   UNK N   1      32.816  12.821   8.435  0.00  0.00     0.211 HD
ENDBRANCH  18  44
BRANCH  17  46
HETATM   46  O   UNK N   1      38.335  12.344  10.295  0.00  0.00    -0.359 OA
HETATM   47  H   UNK N   1      37.697  12.207  10.968  0.00  0.00     0.217 HD
ENDBRANCH  17  46
BRANCH  15  48
HETATM   48  O   UNK N   1      36.891  14.854   5.616  0.00  0.00    -0.359 OA
HETATM   49  H   UNK N   1      37.463  14.855   4.874  0.00  0.00     0.217 HD
ENDBRANCH  15  48
BRANCH   8  50
HETATM   50  O   UNK N   1      43.068  11.303   8.230  0.00  0.00    -0.355 OA
HETATM   51  C   UNK N   1      44.270  10.634   8.224  0.00  0.00     0.210 C 
ENDBRANCH   8  50
TORSDOF 12
ENDMDL
MODEL 6
REMARK VINA RESULT:      -7.5      4.828      9.026
REMARK  12 active torsions:
REMARK  status: ('A' for Active; 'I' for Inactive)
REMARK    1  A    between atoms: C_20  and  C_13 
REMARK    2  A    between atoms: O_34  and  C_13 
REMARK    3  A    between atoms: C_17  and  N_33 
REMARK    4  A    between atoms: O_41  and  C_18 
REMARK    5  A    between atoms: C_19  and  O_44 
REMARK    6  A    between atoms: C_32  and  C_20 
REMARK    7  A    between atoms: C_21  and  O_45 
REMARK    8  A    between atoms: C_22  and  O_44 
REMARK    9  A    between atoms: O_37  and  C_28 
REMARK   10  A    between atoms: O_39  and  C_30 
REMARK   11  A    between atoms: C_31  and  O_45 
REMARK   12  A    between atoms: C_32  and  O_40 
ROOT
HETATM    1  C   UNK N   1      24.676  10.324   0.339  0.00  0.00     0.004 A 
HETATM    2  C   UNK N   1      24.404  11.564   0.901  0.00  0.00     0.017 A 
HETATM    3  C   UNK N   1      25.966   9.812   0.379  0.00  0.00     0.038 A 
HETATM    4  C   UNK N   1      26.344  17.749   4.686  0.00  0.00     0.088 C 
HETATM    5  C   UNK N   1      28.821  18.238   4.862  0.00  0.00     0.083 C 
HETATM    6  C   UNK N   1      25.416  12.303   1.530  0.00  0.00     0.032 A 
HETATM    7  C   UNK N   1      26.753  16.400   4.112  0.00  0.00    -0.009 A 
HETATM    8  C   UNK N   1      27.007  10.530   0.978  0.00  0.00     0.083 A 
HETATM    9  C   UNK N   1      29.060  16.730   5.027  0.00  0.00     0.164 C 
HETATM   10  C   UNK N   1      26.733  11.797   1.589  0.00  0.00     0.062 A 
HETATM   11  C   UNK N   1      28.072  15.914   4.218  0.00  0.00     0.014 A 
HETATM   12  C   UNK N   1      26.111  14.411   2.842  0.00  0.00     0.066 A 
HETATM   13  C   UNK N   1      27.430  13.919   2.933  0.00  0.00     0.066 A 
HETATM   14  C   UNK N   1      25.073  13.607   2.134  0.00  0.00     0.197 A 
HETATM   15  C   UNK N   1      25.783  15.655   3.430  0.00  0.00     0.088 A 
HETATM   16  C   UNK N   1      27.772  12.594   2.317  0.00  0.00     0.200 A 
HETATM   17  C   UNK N   1      28.411  14.676   3.625  0.00  0.00     0.090 A 
HETATM   18  C   UNK N   1      27.423  18.577   5.416  0.00  0.00     0.127 C 
HETATM   19  O   UNK N   1      23.923  14.016   2.054  0.00  0.00    -0.286 OA
HETATM   20  O   UNK N   1      28.897  12.144   2.454  0.00  0.00    -0.286 OA
ENDROOT
BRANCH   9  21
HETATM   21  O   UNK N   1      30.400  16.292   5.039  0.00  0.00    -0.351 OA
BRANCH  21  22
HETATM   22  C   UNK N   1      31.105  16.264   6.268  0.00  0.00     0.263 C 
HETATM   23  C   UNK N   1      31.944  14.989   6.478  0.00  0.00     0.088 C 
HETATM   24  C   UNK N   1      32.990  14.835   5.377  0.00  0.00     0.110 C 
HETATM   25  C   UNK N   1      33.825  16.123   5.234  0.00  0.00     0.175 C 
HETATM   26  C   UNK N   1      32.920  17.388   5.225  0.00  0.00     0.151 C 
HETATM   27  C   UNK N   1      32.289  17.646   3.858  0.00  0.00     0.042 C 
HETATM   28  O   UNK N   1      31.975  17.393   6.303  0.00  0.00    -0.354 OA
BRANCH  24  29
HETATM   29  N   UNK N   1      32.326  14.520   4.120  0.00  0.00    -0.423 N 
HETATM   30  H   UNK N   1      31.792  14.902   3.340  0.00  0.00     0.150 HD
HETATM   31  H   UNK N   1      32.438  13.520   3.955  0.00  0.00     0.150 HD
ENDBRANCH  24  29
BRANCH  25  32
HETATM   32  O   UNK N   1      34.765  16.225   6.296  0.00  0.00    -0.351 OA
BRANCH  32  33
HETATM   33  C   UNK N   1      35.427  14.976   6.503  0.00  0.00     0.260 C 
HETATM   34  C   UNK N   1      35.649  14.752   8.000  0.00  0.00     0.061 C 
HETATM   35  C   UNK N   1      36.355  13.410   8.202  0.00  0.00     0.007 C 
HETATM   36  C   UNK N   1      37.593  13.317   7.310  0.00  0.00     0.026 C 
HETATM   37  C   UNK N   1      37.220  13.697   5.876  0.00  0.00     0.171 C 
HETATM   38  O   UNK N   1      36.677  15.000   5.843  0.00  0.00    -0.361 OA
ENDBRANCH  32  33
ENDBRANCH  25  32
ENDBRANCH  21  22
ENDBRANCH   9  21
BRANCH  18  39
HETATM   39  C   UNK N   1      27.163  20.066   5.303  0.00  0.00     0.184 C 
HETATM   40  O   UNK N   1      26.931  20.548   4.205  0.00  0.00    -0.292 OA
BRANCH  39  41
HETATM   41  C   UNK N   1      27.263  20.990   6.482  0.00  0.00     0.245 C 
BRANCH  41  42
HETATM   42  O   UNK N   1      26.239  20.742   7.395  0.00  0.00    -0.393 OA
HETATM   43  H   UNK N   1      25.799  21.140   8.162  0.00  0.00     0.209 HD
ENDBRANCH  41  42
ENDBRANCH  39  41
ENDBRANCH  18  39
BRANCH  18  44
HETATM   44  O   UNK N   1      27.379  18.261   6.778  0.00  0.00    -0.382 OA
HETATM   45  H   UNK N   1      27.119  18.140   7.705  0.00  0.00     0.211 HD
ENDBRANCH  18  44
BRANCH  17  46
HETATM   46  O   UNK N   1      29.665  14.203   3.736  0.00  0.00    -0.359 OA
HETATM   47  H   UNK N   1      30.181  14.403   4.492  0.00  0.00     0.217 HD
ENDBRANCH  17  46
BRANCH  15  48
HETATM   48  O   UNK N   1      24.531  16.142   3.344  0.00  0.00    -0.359 OA
HETATM   49  H   UNK N   1      24.215  16.491   2.533  0.00  0.00     0.217 HD
ENDBRANCH  15  48
BRANCH   8  50
HETATM   50  O   UNK N   1      28.237   9.968   0.947  0.00  0.00    -0.355 OA
HETATM   51  C   UNK N   1      28.929   9.779  -0.226  0.00  0.00     0.210 C 
ENDBRANCH   8  50
TORSDOF 12
ENDMDL
MODEL 7
REMARK VINA RESULT:      -7.4      7.739     12.895
REMARK  12 active torsions:
REMARK  status: ('A' for Active; 'I' for Inactive)
REMARK    1  A    between atoms: C_20  and  C_13 
REMARK    2  A    between atoms: O_34  and  C_13 
REMARK    3  A    between atoms: C_17  and  N_33 
REMARK    4  A    between atoms: O_41  and  C_18 
REMARK    5  A    between atoms: C_19  and  O_44 
REMARK    6  A    between atoms: C_32  and  C_20 
REMARK    7  A    between atoms: C_21  and  O_45 
REMARK    8  A    between atoms: C_22  and  O_44 
REMARK    9  A    between atoms: O_37  and  C_28 
REMARK   10  A    between atoms: O_39  and  C_30 
REMARK   11  A    between atoms: C_31  and  O_45 
REMARK   12  A    between atoms: C_32  and  O_40 
ROOT
HETATM    1  C   UNK N   1      19.667   8.532   5.324  0.00  0.00     0.004 A 
HETATM    2  C   UNK N   1      19.248   9.826   5.048  0.00  0.00     0.017 A 
HETATM    3  C   UNK N   1      21.009   8.278   5.578  0.00  0.00     0.038 A 
HETATM    4  C   UNK N   1      20.418  17.196   4.240  0.00  0.00     0.088 C 
HETATM    5  C   UNK N   1      22.819  17.933   3.925  0.00  0.00     0.083 C 
HETATM    6  C   UNK N   1      20.161  10.890   5.042  0.00  0.00     0.032 A 
HETATM    7  C   UNK N   1      20.987  15.822   4.563  0.00  0.00    -0.009 A 
HETATM    8  C   UNK N   1      21.954   9.309   5.558  0.00  0.00     0.083 A 
HETATM    9  C   UNK N   1      23.233  16.862   4.944  0.00  0.00     0.164 C 
HETATM   10  C   UNK N   1      21.527  10.654   5.305  0.00  0.00     0.062 A 
HETATM   11  C   UNK N   1      22.354  15.631   4.851  0.00  0.00     0.014 A 
HETATM   12  C   UNK N   1      20.593  13.418   4.781  0.00  0.00     0.066 A 
HETATM   13  C   UNK N   1      21.961  13.213   5.062  0.00  0.00     0.066 A 
HETATM   14  C   UNK N   1      19.662  12.254   4.766  0.00  0.00     0.197 A 
HETATM   15  C   UNK N   1      20.117  14.726   4.528  0.00  0.00     0.088 A 
HETATM   16  C   UNK N   1      22.461  11.826   5.341  0.00  0.00     0.200 A 
HETATM   17  C   UNK N   1      22.841  14.326   5.096  0.00  0.00     0.090 A 
HETATM   18  C   UNK N   1      21.387  18.398   4.256  0.00  0.00     0.127 C 
HETATM   19  O   UNK N   1      18.473  12.416   4.533  0.00  0.00    -0.286 OA
HETATM   20  O   UNK N   1      23.630  11.662   5.645  0.00  0.00    -0.286 OA
ENDROOT
BRANCH   9  21
HETATM   21  O   UNK N   1      24.616  16.653   5.128  0.00  0.00    -0.351 OA
BRANCH  21  22
HETATM   22  C   UNK N   1      25.454  16.551   3.991  0.00  0.00     0.263 C 
HETATM   23  C   UNK N   1      26.136  17.875   3.596  0.00  0.00     0.088 C 
HETATM   24  C   UNK N   1      27.010  18.400   4.731  0.00  0.00     0.110 C 
HETATM   25  C   UNK N   1      27.986  17.309   5.217  0.00  0.00     0.175 C 
HETATM   26  C   UNK N   1      27.263  15.946   5.408  0.00  0.00     0.151 C 
HETATM   27  C   UNK N   1      26.510  15.863   6.735  0.00  0.00     0.042 C 
HETATM   28  O   UNK N   1      26.464  15.585   4.273  0.00  0.00    -0.354 OA
BRANCH  24  29
HETATM   29  N   UNK N   1      26.162  18.846   5.828  0.00  0.00    -0.423 N 
HETATM   30  H   UNK N   1      26.142  19.111   6.812  0.00  0.00     0.150 HD
HETATM   31  H   UNK N   1      25.211  18.922   5.469  0.00  0.00     0.150 HD
ENDBRANCH  24  29
BRANCH  25  32
HETATM   32  O   UNK N   1      29.052  17.150   4.290  0.00  0.00    -0.351 OA
BRANCH  32  33
HETATM   33  C   UNK N   1      30.301  17.484   4.900  0.00  0.00     0.260 C 
HETATM   34  C   UNK N   1      31.442  17.222   3.914  0.00  0.00     0.061 C 
HETATM   35  C   UNK N   1      32.768  17.588   4.582  0.00  0.00     0.007 C 
HETATM   36  C   UNK N   1      32.884  16.914   5.950  0.00  0.00     0.026 C 
HETATM   37  C   UNK N   1      31.608  17.168   6.754  0.00  0.00     0.171 C 
HETATM   38  O   UNK N   1      30.483  16.683   6.051  0.00  0.00    -0.361 OA
ENDBRANCH  32  33
ENDBRANCH  25  32
ENDBRANCH  21  22
ENDBRANCH   9  21
BRANCH  18  39
HETATM   39  C   UNK N   1      20.954  19.484   3.292  0.00  0.00     0.184 C 
HETATM   40  O   UNK N   1      19.766  19.623   3.046  0.00  0.00    -0.292 OA
BRANCH  39  41
HETATM   41  C   UNK N   1      21.940  20.347   2.559  0.00  0.00     0.245 C 
BRANCH  41  42
HETATM   42  O   UNK N   1      21.706  21.697   2.817  0.00  0.00    -0.393 OA
HETATM   43  H   UNK N   1      22.058  22.577   2.611  0.00  0.00     0.209 HD
ENDBRANCH  41  42
ENDBRANCH  39  41
ENDBRANCH  18  39
BRANCH  18  44
HETATM   44  O   UNK N   1      21.372  18.964   5.536  0.00  0.00    -0.382 OA
HETATM   45  H   UNK N   1      21.163  19.204   6.452  0.00  0.00     0.211 HD
ENDBRANCH  18  44
BRANCH  17  46
HETATM   46  O   UNK N   1      24.141  14.141   5.386  0.00  0.00    -0.359 OA
HETATM   47  H   UNK N   1      24.796  14.677   4.984  0.00  0.00     0.217 HD
ENDBRANCH  17  46
BRANCH  15  48
HETATM   48  O   UNK N   1      18.817  14.937   4.250  0.00  0.00    -0.359 OA
HETATM   49  H   UNK N   1      18.552  15.707   3.785  0.00  0.00     0.217 HD
ENDBRANCH  15  48
BRANCH   8  50
HETATM   50  O   UNK N   1      23.242   8.966   5.789  0.00  0.00    -0.355 OA
HETATM   51  C   UNK N   1      23.586   7.839   6.498  0.00  0.00     0.210 C 
ENDBRANCH   8  50
TORSDOF 12
ENDMDL
MODEL 8
REMARK VINA RESULT:      -7.3      2.109      9.571
REMARK  12 active torsions:
REMARK  status: ('A' for Active; 'I' for Inactive)
REMARK    1  A    between atoms: C_20  and  C_13 
REMARK    2  A    between atoms: O_34  and  C_13 
REMARK    3  A    between atoms: C_17  and  N_33 
REMARK    4  A    between atoms: O_41  and  C_18 
REMARK    5  A    between atoms: C_19  and  O_44 
REMARK    6  A    between atoms: C_32  and  C_20 
REMARK    7  A    between atoms: C_21  and  O_45 
REMARK    8  A    between atoms: C_22  and  O_44 
REMARK    9  A    between atoms: O_37  and  C_28 
REMARK   10  A    between atoms: O_39  and  C_30 
REMARK   11  A    between atoms: C_31  and  O_45 
REMARK   12  A    between atoms: C_32  and  O_40 
ROOT
HETATM    1  C   UNK N   1      41.352  11.084   3.586  0.00  0.00     0.004 A 
HETATM    2  C   UNK N   1      41.142  11.171   4.956  0.00  0.00     0.017 A 
HETATM    3  C   UNK N   1      40.449  11.669   2.708  0.00  0.00     0.038 A 
HETATM    4  C   UNK N   1      37.361  13.531  10.996  0.00  0.00     0.088 C 
HETATM    5  C   UNK N   1      34.995  14.340  10.605  0.00  0.00     0.083 C 
HETATM    6  C   UNK N   1      40.034  11.859   5.469  0.00  0.00     0.032 A 
HETATM    7  C   UNK N   1      37.497  13.508   9.480  0.00  0.00    -0.009 A 
HETATM    8  C   UNK N   1      39.319  12.346   3.181  0.00  0.00     0.083 A 
HETATM    9  C   UNK N   1      35.479  14.977   9.295  0.00  0.00     0.164 C 
HETATM   10  C   UNK N   1      39.108  12.467   4.593  0.00  0.00     0.062 A 
HETATM   11  C   UNK N   1      36.568  14.153   8.639  0.00  0.00     0.014 A 
HETATM   12  C   UNK N   1      38.720  12.694   7.524  0.00  0.00     0.066 A 
HETATM   13  C   UNK N   1      37.791  13.329   6.672  0.00  0.00     0.066 A 
HETATM   14  C   UNK N   1      39.866  11.944   6.935  0.00  0.00     0.197 A 
HETATM   15  C   UNK N   1      38.561  12.785   8.927  0.00  0.00     0.088 A 
HETATM   16  C   UNK N   1      37.967  13.239   5.184  0.00  0.00     0.200 A 
HETATM   17  C   UNK N   1      36.713  14.060   7.235  0.00  0.00     0.090 A 
HETATM   18  C   UNK N   1      36.172  14.309  11.600  0.00  0.00     0.127 C 
HETATM   19  O   UNK N   1      40.684  11.396   7.660  0.00  0.00    -0.286 OA
HETATM   20  O   UNK N   1      37.199  13.841   4.454  0.00  0.00    -0.286 OA
ENDROOT
BRANCH   9  21
HETATM   21  O   UNK N   1      34.494  15.531   8.451  0.00  0.00    -0.351 OA
BRANCH  21  22
HETATM   22  C   UNK N   1      33.571  16.463   8.987  0.00  0.00     0.263 C 
HETATM   23  C   UNK N   1      33.482  17.781   8.195  0.00  0.00     0.088 C 
HETATM   24  C   UNK N   1      33.048  17.526   6.754  0.00  0.00     0.110 C 
HETATM   25  C   UNK N   1      31.761  16.678   6.715  0.00  0.00     0.175 C 
HETATM   26  C   UNK N   1      31.848  15.469   7.689  0.00  0.00     0.151 C 
HETATM   27  C   UNK N   1      32.635  14.299   7.101  0.00  0.00     0.042 C 
HETATM   28  O   UNK N   1      32.284  15.851   9.000  0.00  0.00    -0.354 OA
BRANCH  24  29
HETATM   29  N   UNK N   1      34.122  16.850   6.039  0.00  0.00    -0.423 N 
HETATM   30  H   UNK N   1      34.461  16.560   5.122  0.00  0.00     0.150 HD
HETATM   31  H   UNK N   1      34.806  16.543   6.730  0.00  0.00     0.150 HD
ENDBRANCH  24  29
BRANCH  25  32
HETATM   32  O   UNK N   1      30.633  17.474   7.054  0.00  0.00    -0.351 OA
BRANCH  32  33
HETATM   33  C   UNK N   1      29.548  17.215   6.161  0.00  0.00     0.260 C 
HETATM   34  C   UNK N   1      30.043  17.291   4.715  0.00  0.00     0.061 C 
HETATM   35  C   UNK N   1      28.870  17.008   3.774  0.00  0.00     0.007 C 
HETATM   36  C   UNK N   1      27.673  17.889   4.130  0.00  0.00     0.026 C 
HETATM   37  C   UNK N   1      27.396  17.794   5.631  0.00  0.00     0.171 C 
HETATM   38  O   UNK N   1      28.540  18.185   6.363  0.00  0.00    -0.361 OA
ENDBRANCH  32  33
ENDBRANCH  25  32
ENDBRANCH  21  22
ENDBRANCH   9  21
BRANCH  18  39
HETATM   39  C   UNK N   1      35.725  13.717  12.921  0.00  0.00     0.184 C 
HETATM   40  O   UNK N   1      34.540  13.476  13.095  0.00  0.00    -0.292 OA
BRANCH  39  41
HETATM   41  C   UNK N   1      36.674  13.492  14.062  0.00  0.00     0.245 C 
BRANCH  41  42
HETATM   42  O   UNK N   1      37.067  14.704  14.627  0.00  0.00    -0.393 OA
HETATM   43  H   UNK N   1      37.345  15.087  15.474  0.00  0.00     0.209 HD
ENDBRANCH  41  42
ENDBRANCH  39  41
ENDBRANCH  18  39
BRANCH  18  44
HETATM   44  O   UNK N   1      36.587  15.619  11.863  0.00  0.00    -0.382 OA
HETATM   45  H   UNK N   1      37.029  16.482  11.853  0.00  0.00     0.211 HD
ENDBRANCH  18  44
BRANCH  17  46
HETATM   46  O   UNK N   1      35.837  14.686   6.429  0.00  0.00    -0.359 OA
HETATM   47  H   UNK N   1      35.254  15.333   6.777  0.00  0.00     0.217 HD
ENDBRANCH  17  46
BRANCH  15  48
HETATM   48  O   UNK N   1      39.434  12.178   9.753  0.00  0.00    -0.359 OA
HETATM   49  H   UNK N   1      39.312  12.219  10.681  0.00  0.00     0.217 HD
ENDBRANCH  15  48
BRANCH   8  50
HETATM   50  O   UNK N   1      38.479  12.859   2.254  0.00  0.00    -0.355 OA
HETATM   51  C   UNK N   1      38.927  13.356   1.052  0.00  0.00     0.210 C 
ENDBRANCH   8  50
TORSDOF 12
ENDMDL
MODEL 9
REMARK VINA RESULT:      -7.3      4.337      7.893
REMARK  12 active torsions:
REMARK  status: ('A' for Active; 'I' for Inactive)
REMARK    1  A    between atoms: C_20  and  C_13 
REMARK    2  A    between atoms: O_34  and  C_13 
REMARK    3  A    between atoms: C_17  and  N_33 
REMARK    4  A    between atoms: O_41  and  C_18 
REMARK    5  A    between atoms: C_19  and  O_44 
REMARK    6  A    between atoms: C_32  and  C_20 
REMARK    7  A    between atoms: C_21  and  O_45 
REMARK    8  A    between atoms: C_22  and  O_44 
REMARK    9  A    between atoms: O_37  and  C_28 
REMARK   10  A    between atoms: O_39  and  C_30 
REMARK   11  A    between atoms: C_31  and  O_45 
REMARK   12  A    between atoms: C_32  and  O_40 
ROOT
HETATM    1  C   UNK N   1      26.512   9.932   0.806  0.00  0.00     0.004 A 
HETATM    2  C   UNK N   1      26.135  11.213   1.186  0.00  0.00     0.017 A 
HETATM    3  C   UNK N   1      27.696   9.387   1.287  0.00  0.00     0.038 A 
HETATM    4  C   UNK N   1      27.054  17.573   5.064  0.00  0.00     0.088 C 
HETATM    5  C   UNK N   1      29.365  18.002   6.004  0.00  0.00     0.083 C 
HETATM    6  C   UNK N   1      26.926  11.962   2.067  0.00  0.00     0.032 A 
HETATM    7  C   UNK N   1      27.560  16.178   4.724  0.00  0.00    -0.009 A 
HETATM    8  C   UNK N   1      28.524  10.112   2.152  0.00  0.00     0.083 A 
HETATM    9  C   UNK N   1      29.466  16.502   6.316  0.00  0.00     0.164 C 
HETATM   10  C   UNK N   1      28.129  11.424   2.574  0.00  0.00     0.062 A 
HETATM   11  C   UNK N   1      28.752  15.664   5.275  0.00  0.00     0.014 A 
HETATM   12  C   UNK N   1      27.264  14.131   3.421  0.00  0.00     0.066 A 
HETATM   13  C   UNK N   1      28.460  13.608   3.958  0.00  0.00     0.066 A 
HETATM   14  C   UNK N   1      26.470  13.313   2.460  0.00  0.00     0.197 A 
HETATM   15  C   UNK N   1      26.826  15.419   3.806  0.00  0.00     0.088 A 
HETATM   16  C   UNK N   1      28.918  12.237   3.556  0.00  0.00     0.200 A 
HETATM   17  C   UNK N   1      29.203  14.380   4.889  0.00  0.00     0.090 A 
HETATM   18  C   UNK N   1      27.881  18.416   6.059  0.00  0.00     0.127 C 
HETATM   19  O   UNK N   1      25.428  13.747   1.992  0.00  0.00    -0.286 OA
HETATM   20  O   UNK N   1      29.917  11.765   4.071  0.00  0.00    -0.286 OA
ENDROOT
BRANCH   9  21
HETATM   21  O   UNK N   1      30.710  16.027   6.782  0.00  0.00    -0.351 OA
BRANCH  21  22
HETATM   22  C   UNK N   1      31.298  16.638   7.917  0.00  0.00     0.263 C 
HETATM   23  C   UNK N   1      31.827  15.637   8.962  0.00  0.00     0.088 C 
HETATM   24  C   UNK N   1      32.894  14.728   8.358  0.00  0.00     0.110 C 
HETATM   25  C   UNK N   1      33.994  15.562   7.671  0.00  0.00     0.175 C 
HETATM   26  C   UNK N   1      33.385  16.682   6.781  0.00  0.00     0.151 C 
HETATM   27  C   UNK N   1      32.927  16.164   5.419  0.00  0.00     0.042 C 
HETATM   28  O   UNK N   1      32.385  17.445   7.469  0.00  0.00    -0.354 OA
BRANCH  24  29
HETATM   29  N   UNK N   1      32.273  13.822   7.402  0.00  0.00    -0.423 N 
HETATM   30  H   UNK N   1      32.100  12.844   7.169  0.00  0.00     0.150 HD
HETATM   31  H   UNK N   1      31.841  14.392   6.675  0.00  0.00     0.150 HD
ENDBRANCH  24  29
BRANCH  25  32
HETATM   32  O   UNK N   1      34.852  16.147   8.641  0.00  0.00    -0.351 OA
BRANCH  32  33
HETATM   33  C   UNK N   1      35.126  15.220   9.694  0.00  0.00     0.260 C 
HETATM   34  C   UNK N   1      35.387  15.981  10.995  0.00  0.00     0.061 C 
HETATM   35  C   UNK N   1      35.675  14.973  12.110  0.00  0.00     0.007 C 
HETATM   36  C   UNK N   1      36.756  13.985  11.672  0.00  0.00     0.026 C 
HETATM   37  C   UNK N   1      36.403  13.417  10.297  0.00  0.00     0.171 C 
HETATM   38  O   UNK N   1      36.271  14.463   9.356  0.00  0.00    -0.361 OA
ENDBRANCH  32  33
ENDBRANCH  25  32
ENDBRANCH  21  22
ENDBRANCH   9  21
BRANCH  18  39
HETATM   39  C   UNK N   1      27.743  19.901   5.791  0.00  0.00     0.184 C 
HETATM   40  O   UNK N   1      28.139  20.353   4.727  0.00  0.00    -0.292 OA
BRANCH  39  41
HETATM   41  C   UNK N   1      27.211  20.856   6.819  0.00  0.00     0.245 C 
BRANCH  41  42
HETATM   42  O   UNK N   1      25.886  20.559   7.135  0.00  0.00    -0.393 OA
HETATM   43  H   UNK N   1      25.344  20.201   7.855  0.00  0.00     0.209 HD
ENDBRANCH  41  42
ENDBRANCH  39  41
ENDBRANCH  18  39
BRANCH  18  44
HETATM   44  O   UNK N   1      27.389  18.190   7.349  0.00  0.00    -0.382 OA
HETATM   45  H   UNK N   1      26.955  17.826   8.137  0.00  0.00     0.211 HD
ENDBRANCH  18  44
BRANCH  17  46
HETATM   46  O   UNK N   1      30.332  13.880   5.423  0.00  0.00    -0.359 OA
HETATM   47  H   UNK N   1      30.291  13.312   6.167  0.00  0.00     0.217 HD
ENDBRANCH  17  46
BRANCH  15  48
HETATM   48  O   UNK N   1      25.692  15.935   3.295  0.00  0.00    -0.359 OA
HETATM   49  H   UNK N   1      24.858  15.636   3.601  0.00  0.00     0.217 HD
ENDBRANCH  15  48
BRANCH   8  50
HETATM   50  O   UNK N   1      29.670   9.515   2.548  0.00  0.00    -0.355 OA
HETATM   51  C   UNK N   1      29.702   8.219   3.007  0.00  0.00     0.210 C 
ENDBRANCH   8  50
TORSDOF 12
ENDMDL
