MODEL 1
REMARK VINA RESULT:      -8.9      0.000      0.000
REMARK  5 active torsions:
REMARK  status: ('A' for Active; 'I' for Inactive)
REMARK    1  A    between atoms: C_16  and  C_2 
REMARK    2  A    between atoms: C_5  and  O_7 
REMARK    3  A    between atoms: O_7  and  C_8 
REMARK    4  A    between atoms: C_8  and  C_9 
REMARK    5  A    between atoms: C_9  and  N_10 
ROOT
HETATM    1  C   UNK N   1      28.643  18.271   4.904  0.00  0.00     0.019 C 
HETATM    2  C   UNK N   1      29.559  17.486   3.938  0.00  0.00     0.015 C 
HETATM    3  C   UNK N   1      29.689  15.997   4.264  0.00  0.00     0.072 C 
HETATM    4  C   UNK N   1      30.005  15.832   5.742  0.00  0.00     0.200 C 
HETATM    5  O   UNK N   1      30.319  14.499   6.030  0.00  0.00    -0.197 OA
HETATM    6  O   UNK N   1      31.517  14.485   6.609  0.00  0.00    -0.197 OA
HETATM    7  C   UNK N   1      31.913  15.816   6.808  0.00  0.00     0.208 C 
HETATM    8  O   UNK N   1      31.087  16.639   6.064  0.00  0.00    -0.313 OA
HETATM    9  C   UNK N   1      31.810  16.208   8.302  0.00  0.00     0.052 C 
HETATM   10  C   UNK N   1      32.775  15.350   9.137  0.00  0.00     0.014 C 
HETATM   11  C   UNK N   1      34.219  15.565   8.655  0.00  0.00    -0.013 C 
HETATM   12  C   UNK N   1      34.325  15.162   7.176  0.00  0.00     0.014 C 
HETATM   13  C   UNK N   1      33.368  16.019   6.327  0.00  0.00     0.052 C 
HETATM   14  C   UNK N   1      33.757  17.502   6.494  0.00  0.00     0.014 C 
HETATM   15  C   UNK N   1      33.639  17.915   7.971  0.00  0.00    -0.013 C 
HETATM   16  C   UNK N   1      32.199  17.691   8.464  0.00  0.00     0.014 C 
HETATM   17  C   UNK N   1      34.591  17.049   8.808  0.00  0.00     0.009 C 
HETATM   18  C   UNK N   1      28.772  16.263   6.529  0.00  0.00     0.072 C 
HETATM   19  C   UNK N   1      28.508  17.758   6.352  0.00  0.00     0.015 C 
ENDROOT
BRANCH   1  20
HETATM   20  C   UNK N   1      27.397  18.843   4.300  0.00  0.00    -0.054 A 
HETATM   21  C   UNK N   1      26.285  18.029   4.054  0.00  0.00     0.010 A 
HETATM   22  C   UNK N   1      25.177  18.540   3.384  0.00  0.00     0.037 A 
HETATM   23  C   UNK N   1      25.161  19.876   2.949  0.00  0.00     0.068 A 
HETATM   24  C   UNK N   1      26.265  20.694   3.208  0.00  0.00     0.037 A 
HETATM   25  C   UNK N   1      27.383  20.177   3.869  0.00  0.00     0.010 A 
BRANCH  23  26
HETATM   26  O   UNK N   1      24.099  20.385   2.280  0.00  0.00    -0.349 OA
BRANCH  26  27
HETATM   27  C   UNK N   1      22.997  20.901   2.928  0.00  0.00     0.206 C 
BRANCH  27  28
HETATM   28  C   UNK N   1      21.713  20.362   2.314  0.00  0.00     0.299 C 
BRANCH  28  29
HETATM   29  N   UNK N   1      20.794  19.881   3.346  0.00  0.00     0.094 N 
HETATM   30  C   UNK N   1      19.597  19.322   2.702  0.00  0.00     0.298 C 
HETATM   31  C   UNK N   1      19.884  17.935   2.112  0.00  0.00     0.198 C 
HETATM   32  O   UNK N   1      20.318  17.077   3.134  0.00  0.00    -0.388 OA
HETATM   33  C   UNK N   1      21.590  17.535   3.509  0.00  0.00     0.198 C 
HETATM   34  C   UNK N   1      21.447  18.886   4.217  0.00  0.00     0.298 C 
ENDBRANCH  28  29
ENDBRANCH  27  28
ENDBRANCH  26  27
ENDBRANCH  23  26
ENDBRANCH   1  20
TORSDOF 5
ENDMDL
MODEL 2
REMARK VINA RESULT:      -8.3      1.703      2.740
REMARK  5 active torsions:
REMARK  status: ('A' for Active; 'I' for Inactive)
REMARK    1  A    between atoms: C_16  and  C_2 
REMARK    2  A    between atoms: C_5  and  O_7 
REMARK    3  A    between atoms: O_7  and  C_8 
REMARK    4  A    between atoms: C_8  and  C_9 
REMARK    5  A    between atoms: C_9  and  N_10 
ROOT
HETATM    1  C   UNK N   1      27.012  18.009   4.193  0.00  0.00     0.019 C 
HETATM    2  C   UNK N   1      26.900  16.619   4.860  0.00  0.00     0.015 C 
HETATM    3  C   UNK N   1      27.388  16.574   6.308  0.00  0.00     0.072 C 
HETATM    4  C   UNK N   1      28.755  17.232   6.398  0.00  0.00     0.200 C 
HETATM    5  O   UNK N   1      29.311  17.036   7.667  0.00  0.00    -0.197 OA
HETATM    6  O   UNK N   1      30.501  16.464   7.501  0.00  0.00    -0.197 OA
HETATM    7  C   UNK N   1      30.763  16.412   6.123  0.00  0.00     0.208 C 
HETATM    8  O   UNK N   1      29.589  16.672   5.441  0.00  0.00    -0.313 OA
HETATM    9  C   UNK N   1      31.828  17.461   5.721  0.00  0.00     0.052 C 
HETATM   10  C   UNK N   1      33.163  17.147   6.418  0.00  0.00     0.014 C 
HETATM   11  C   UNK N   1      33.650  15.746   6.010  0.00  0.00    -0.013 C 
HETATM   12  C   UNK N   1      32.599  14.704   6.422  0.00  0.00     0.014 C 
HETATM   13  C   UNK N   1      31.259  15.004   5.727  0.00  0.00     0.052 C 
HETATM   14  C   UNK N   1      31.475  14.951   4.201  0.00  0.00     0.014 C 
HETATM   15  C   UNK N   1      32.517  16.003   3.779  0.00  0.00    -0.013 C 
HETATM   16  C   UNK N   1      32.041  17.406   4.195  0.00  0.00     0.014 C 
HETATM   17  C   UNK N   1      33.845  15.699   4.485  0.00  0.00     0.009 C 
HETATM   18  C   UNK N   1      28.570  18.722   6.131  0.00  0.00     0.072 C 
HETATM   19  C   UNK N   1      28.115  18.965   4.692  0.00  0.00     0.015 C 
ENDROOT
BRANCH   1  20
HETATM   20  C   UNK N   1      25.715  18.658   3.815  0.00  0.00    -0.054 A 
HETATM   21  C   UNK N   1      25.700  19.850   3.082  0.00  0.00     0.010 A 
HETATM   22  C   UNK N   1      24.498  20.508   2.839  0.00  0.00     0.037 A 
HETATM   23  C   UNK N   1      23.288  19.983   3.324  0.00  0.00     0.068 A 
HETATM   24  C   UNK N   1      23.300  18.784   4.042  0.00  0.00     0.037 A 
HETATM   25  C   UNK N   1      24.509  18.130   4.298  0.00  0.00     0.010 A 
BRANCH  23  26
HETATM   26  O   UNK N   1      22.111  20.619   3.111  0.00  0.00    -0.349 OA
BRANCH  26  27
HETATM   27  C   UNK N   1      20.898  19.966   3.170  0.00  0.00     0.206 C 
BRANCH  27  28
HETATM   28  C   UNK N   1      20.719  19.059   1.961  0.00  0.00     0.299 C 
BRANCH  28  29
HETATM   29  N   UNK N   1      19.637  18.097   2.178  0.00  0.00     0.094 N 
HETATM   30  C   UNK N   1      19.621  17.134   1.069  0.00  0.00     0.298 C 
HETATM   31  C   UNK N   1      20.752  16.106   1.212  0.00  0.00     0.198 C 
HETATM   32  O   UNK N   1      20.611  15.429   2.433  0.00  0.00    -0.388 OA
HETATM   33  C   UNK N   1      20.902  16.368   3.433  0.00  0.00     0.198 C 
HETATM   34  C   UNK N   1      19.784  17.416   3.477  0.00  0.00     0.298 C 
ENDBRANCH  28  29
ENDBRANCH  27  28
ENDBRANCH  26  27
ENDBRANCH  23  26
ENDBRANCH   1  20
TORSDOF 5
ENDMDL
MODEL 3
REMARK VINA RESULT:      -8.1     11.023     16.197
REMARK  5 active torsions:
REMARK  status: ('A' for Active; 'I' for Inactive)
REMARK    1  A    between atoms: C_16  and  C_2 
REMARK    2  A    between atoms: C_5  and  O_7 
REMARK    3  A    between atoms: O_7  and  C_8 
REMARK    4  A    between atoms: C_8  and  C_9 
REMARK    5  A    between atoms: C_9  and  N_10 
ROOT
HETATM    1  C   UNK N   1      35.163  11.259  17.011  0.00  0.00     0.019 C 
HETATM    2  C   UNK N   1      34.900  12.193  18.214  0.00  0.00     0.015 C 
HETATM    3  C   UNK N   1      35.738  11.876  19.453  0.00  0.00     0.072 C 
HETATM    4  C   UNK N   1      35.650  10.389  19.752  0.00  0.00     0.200 C 
HETATM    5  O   UNK N   1      36.245  10.100  20.985  0.00  0.00    -0.197 OA
HETATM    6  O   UNK N   1      35.340   9.473  21.732  0.00  0.00    -0.197 OA
HETATM    7  C   UNK N   1      34.208   9.245  20.933  0.00  0.00     0.208 C 
HETATM    8  O   UNK N   1      34.314  10.015  19.789  0.00  0.00    -0.313 OA
HETATM    9  C   UNK N   1      34.101   7.753  20.535  0.00  0.00     0.052 C 
HETATM   10  C   UNK N   1      33.913   6.887  21.792  0.00  0.00     0.014 C 
HETATM   11  C   UNK N   1      32.632   7.308  22.532  0.00  0.00    -0.013 C 
HETATM   12  C   UNK N   1      32.745   8.786  22.940  0.00  0.00     0.014 C 
HETATM   13  C   UNK N   1      32.928   9.665  21.689  0.00  0.00     0.052 C 
HETATM   14  C   UNK N   1      31.706   9.469  20.769  0.00  0.00     0.014 C 
HETATM   15  C   UNK N   1      31.596   7.993  20.345  0.00  0.00    -0.013 C 
HETATM   16  C   UNK N   1      32.880   7.562  19.614  0.00  0.00     0.014 C 
HETATM   17  C   UNK N   1      31.423   7.127  21.599  0.00  0.00     0.009 C 
HETATM   18  C   UNK N   1      36.374   9.648  18.633  0.00  0.00     0.072 C 
HETATM   19  C   UNK N   1      35.643   9.823  17.302  0.00  0.00     0.015 C 
ENDROOT
BRANCH   1  20
HETATM   20  C   UNK N   1      35.758  11.908  15.799  0.00  0.00    -0.054 A 
HETATM   21  C   UNK N   1      35.192  13.071  15.262  0.00  0.00     0.010 A 
HETATM   22  C   UNK N   1      35.677  13.599  14.070  0.00  0.00     0.037 A 
HETATM   23  C   UNK N   1      36.739  12.974  13.393  0.00  0.00     0.068 A 
HETATM   24  C   UNK N   1      37.315  11.822  13.936  0.00  0.00     0.037 A 
HETATM   25  C   UNK N   1      36.819  11.284  15.127  0.00  0.00     0.010 A 
BRANCH  23  26
HETATM   26  O   UNK N   1      37.211  13.465  12.222  0.00  0.00    -0.349 OA
BRANCH  26  27
HETATM   27  C   UNK N   1      36.528  13.322  11.032  0.00  0.00     0.206 C 
BRANCH  27  28
HETATM   28  C   UNK N   1      36.357  14.670  10.347  0.00  0.00     0.299 C 
BRANCH  28  29
HETATM   29  N   UNK N   1      35.303  15.458  10.988  0.00  0.00     0.094 N 
HETATM   30  C   UNK N   1      35.317  16.819  10.435  0.00  0.00     0.298 C 
HETATM   31  C   UNK N   1      34.687  16.854   9.036  0.00  0.00     0.198 C 
HETATM   32  O   UNK N   1      33.367  16.384   9.110  0.00  0.00    -0.388 OA
HETATM   33  C   UNK N   1      33.460  15.013   9.386  0.00  0.00     0.198 C 
HETATM   34  C   UNK N   1      33.984  14.823  10.813  0.00  0.00     0.298 C 
ENDBRANCH  28  29
ENDBRANCH  27  28
ENDBRANCH  26  27
ENDBRANCH  23  26
ENDBRANCH   1  20
TORSDOF 5
ENDMDL
MODEL 4
REMARK VINA RESULT:      -8.1      5.673      9.839
REMARK  5 active torsions:
REMARK  status: ('A' for Active; 'I' for Inactive)
REMARK    1  A    between atoms: C_16  and  C_2 
REMARK    2  A    between atoms: C_5  and  O_7 
REMARK    3  A    between atoms: O_7  and  C_8 
REMARK    4  A    between atoms: C_8  and  C_9 
REMARK    5  A    between atoms: C_9  and  N_10 
ROOT
HETATM    1  C   UNK N   1      35.240  14.453  10.353  0.00  0.00     0.019 C 
HETATM    2  C   UNK N   1      36.587  14.638  11.087  0.00  0.00     0.015 C 
HETATM    3  C   UNK N   1      37.535  13.443  10.975  0.00  0.00     0.072 C 
HETATM    4  C   UNK N   1      36.779  12.168  11.311  0.00  0.00     0.200 C 
HETATM    5  O   UNK N   1      37.659  11.085  11.406  0.00  0.00    -0.197 OA
HETATM    6  O   UNK N   1      37.491  10.533  12.604  0.00  0.00    -0.197 OA
HETATM    7  C   UNK N   1      36.413  11.180  13.227  0.00  0.00     0.208 C 
HETATM    8  O   UNK N   1      36.128  12.338  12.526  0.00  0.00    -0.313 OA
HETATM    9  C   UNK N   1      35.157  10.275  13.246  0.00  0.00     0.052 C 
HETATM   10  C   UNK N   1      35.433   9.014  14.082  0.00  0.00     0.014 C 
HETATM   11  C   UNK N   1      35.795   9.408  15.523  0.00  0.00    -0.013 C 
HETATM   12  C   UNK N   1      37.050  10.296  15.505  0.00  0.00     0.014 C 
HETATM   13  C   UNK N   1      36.786  11.566  14.676  0.00  0.00     0.052 C 
HETATM   14  C   UNK N   1      35.612  12.334  15.317  0.00  0.00     0.014 C 
HETATM   15  C   UNK N   1      34.348  11.456  15.325  0.00  0.00    -0.013 C 
HETATM   16  C   UNK N   1      33.987  11.047  13.886  0.00  0.00     0.014 C 
HETATM   17  C   UNK N   1      34.627  10.190  16.146  0.00  0.00     0.009 C 
HETATM   18  C   UNK N   1      35.764  11.924  10.199  0.00  0.00     0.072 C 
HETATM   19  C   UNK N   1      34.698  13.019  10.185  0.00  0.00     0.015 C 
ENDROOT
BRANCH   1  20
HETATM   20  C   UNK N   1      34.994  15.378   9.200  0.00  0.00    -0.054 A 
HETATM   21  C   UNK N   1      34.690  16.727   9.420  0.00  0.00     0.010 A 
HETATM   22  C   UNK N   1      34.346  17.550   8.352  0.00  0.00     0.037 A 
HETATM   23  C   UNK N   1      34.300  17.039   7.044  0.00  0.00     0.068 A 
HETATM   24  C   UNK N   1      34.618  15.696   6.821  0.00  0.00     0.037 A 
HETATM   25  C   UNK N   1      34.951  14.866   7.896  0.00  0.00     0.010 A 
BRANCH  23  26
HETATM   26  O   UNK N   1      33.949  17.821   5.995  0.00  0.00    -0.349 OA
BRANCH  26  27
HETATM   27  C   UNK N   1      33.487  17.299   4.806  0.00  0.00     0.206 C 
BRANCH  27  28
HETATM   28  C   UNK N   1      31.990  17.531   4.665  0.00  0.00     0.299 C 
BRANCH  28  29
HETATM   29  N   UNK N   1      31.228  16.377   5.147  0.00  0.00     0.094 N 
HETATM   30  C   UNK N   1      30.582  16.727   6.420  0.00  0.00     0.298 C 
HETATM   31  C   UNK N   1      29.354  17.619   6.189  0.00  0.00     0.198 C 
HETATM   32  O   UNK N   1      28.442  16.948   5.361  0.00  0.00    -0.388 OA
HETATM   33  C   UNK N   1      29.040  16.891   4.093  0.00  0.00     0.198 C 
HETATM   34  C   UNK N   1      30.239  15.938   4.147  0.00  0.00     0.298 C 
ENDBRANCH  28  29
ENDBRANCH  27  28
ENDBRANCH  26  27
ENDBRANCH  23  26
ENDBRANCH   1  20
TORSDOF 5
ENDMDL
MODEL 5
REMARK VINA RESULT:      -8.0      5.186      8.853
REMARK  5 active torsions:
REMARK  status: ('A' for Active; 'I' for Inactive)
REMARK    1  A    between atoms: C_16  and  C_2 
REMARK    2  A    between atoms: C_5  and  O_7 
REMARK    3  A    between atoms: O_7  and  C_8 
REMARK    4  A    between atoms: C_8  and  C_9 
REMARK    5  A    between atoms: C_9  and  N_10 
ROOT
HETATM    1  C   UNK N   1      33.831  14.411  10.000  0.00  0.00     0.019 C 
HETATM    2  C   UNK N   1      34.662  15.249  11.000  0.00  0.00     0.015 C 
HETATM    3  C   UNK N   1      36.116  14.797  11.144  0.00  0.00     0.072 C 
HETATM    4  C   UNK N   1      36.156  13.294  11.362  0.00  0.00     0.200 C 
HETATM    5  O   UNK N   1      37.452  12.880  11.689  0.00  0.00    -0.197 OA
HETATM    6  O   UNK N   1      37.385  12.224  12.845  0.00  0.00    -0.197 OA
HETATM    7  C   UNK N   1      36.031  12.106  13.193  0.00  0.00     0.208 C 
HETATM    8  O   UNK N   1      35.294  12.966  12.400  0.00  0.00    -0.313 OA
HETATM    9  C   UNK N   1      35.527  10.658  12.979  0.00  0.00     0.052 C 
HETATM   10  C   UNK N   1      36.288   9.695  13.906  0.00  0.00     0.014 C 
HETATM   11  C   UNK N   1      36.067  10.096  15.374  0.00  0.00    -0.013 C 
HETATM   12  C   UNK N   1      36.580  11.529  15.590  0.00  0.00     0.014 C 
HETATM   13  C   UNK N   1      35.822  12.505  14.672  0.00  0.00     0.052 C 
HETATM   14  C   UNK N   1      34.320  12.431  15.012  0.00  0.00     0.014 C 
HETATM   15  C   UNK N   1      33.796  11.002  14.783  0.00  0.00    -0.013 C 
HETATM   16  C   UNK N   1      34.025  10.590  13.318  0.00  0.00     0.014 C 
HETATM   17  C   UNK N   1      34.565  10.039  15.697  0.00  0.00     0.009 C 
HETATM   18  C   UNK N   1      35.702  12.626  10.069  0.00  0.00     0.072 C 
HETATM   19  C   UNK N   1      34.234  12.939   9.779  0.00  0.00     0.015 C 
ENDROOT
BRANCH   1  20
HETATM   20  C   UNK N   1      33.347  15.140   8.784  0.00  0.00    -0.054 A 
HETATM   21  C   UNK N   1      33.207  16.533   8.795  0.00  0.00     0.010 A 
HETATM   22  C   UNK N   1      32.645  17.189   7.705  0.00  0.00     0.037 A 
HETATM   23  C   UNK N   1      32.212  16.463   6.582  0.00  0.00     0.068 A 
HETATM   24  C   UNK N   1      32.364  15.074   6.563  0.00  0.00     0.037 A 
HETATM   25  C   UNK N   1      32.918  14.414   7.664  0.00  0.00     0.010 A 
BRANCH  23  26
HETATM   26  O   UNK N   1      31.645  17.084   5.520  0.00  0.00    -0.349 OA
BRANCH  26  27
HETATM   27  C   UNK N   1      30.408  16.724   5.027  0.00  0.00     0.206 C 
BRANCH  27  28
HETATM   28  C   UNK N   1      29.443  17.899   5.093  0.00  0.00     0.299 C 
BRANCH  28  29
HETATM   29  N   UNK N   1      28.233  17.548   5.839  0.00  0.00     0.094 N 
HETATM   30  C   UNK N   1      28.606  17.159   7.206  0.00  0.00     0.298 C 
HETATM   31  C   UNK N   1      28.944  18.391   8.058  0.00  0.00     0.198 C 
HETATM   32  O   UNK N   1      27.834  19.248   8.093  0.00  0.00    -0.388 OA
HETATM   33  C   UNK N   1      27.711  19.776   6.800  0.00  0.00     0.198 C 
HETATM   34  C   UNK N   1      27.270  18.664   5.843  0.00  0.00     0.298 C 
ENDBRANCH  28  29
ENDBRANCH  27  28
ENDBRANCH  26  27
ENDBRANCH  23  26
ENDBRANCH   1  20
TORSDOF 5
ENDMDL
MODEL 6
REMARK VINA RESULT:      -8.0     12.266     15.718
REMARK  5 active torsions:
REMARK  status: ('A' for Active; 'I' for Inactive)
REMARK    1  A    between atoms: C_16  and  C_2 
REMARK    2  A    between atoms: C_5  and  O_7 
REMARK    3  A    between atoms: O_7  and  C_8 
REMARK    4  A    between atoms: C_8  and  C_9 
REMARK    5  A    between atoms: C_9  and  N_10 
ROOT
HETATM    1  C   UNK N   1      28.694  23.129  -6.032  0.00  0.00     0.019 C 
HETATM    2  C   UNK N   1      29.293  23.429  -4.639  0.00  0.00     0.015 C 
HETATM    3  C   UNK N   1      28.254  23.649  -3.540  0.00  0.00     0.072 C 
HETATM    4  C   UNK N   1      27.209  24.639  -4.026  0.00  0.00     0.200 C 
HETATM    5  O   UNK N   1      26.356  25.007  -2.980  0.00  0.00    -0.197 OA
HETATM    6  O   UNK N   1      26.387  26.334  -2.883  0.00  0.00    -0.197 OA
HETATM    7  C   UNK N   1      27.157  26.824  -3.949  0.00  0.00     0.208 C 
HETATM    8  O   UNK N   1      27.852  25.769  -4.513  0.00  0.00    -0.313 OA
HETATM    9  C   UNK N   1      26.260  27.477  -5.028  0.00  0.00     0.052 C 
HETATM   10  C   UNK N   1      25.532  28.696  -4.437  0.00  0.00     0.014 C 
HETATM   11  C   UNK N   1      26.557  29.728  -3.937  0.00  0.00    -0.013 C 
HETATM   12  C   UNK N   1      27.439  29.083  -2.855  0.00  0.00     0.014 C 
HETATM   13  C   UNK N   1      28.178  27.864  -3.436  0.00  0.00     0.052 C 
HETATM   14  C   UNK N   1      29.057  28.338  -4.612  0.00  0.00     0.014 C 
HETATM   15  C   UNK N   1      28.178  28.971  -5.705  0.00  0.00    -0.013 C 
HETATM   16  C   UNK N   1      27.142  27.947  -6.201  0.00  0.00     0.014 C 
HETATM   17  C   UNK N   1      27.440  30.178  -5.112  0.00  0.00     0.009 C 
HETATM   18  C   UNK N   1      26.414  23.965  -5.139  0.00  0.00     0.072 C 
HETATM   19  C   UNK N   1      27.299  23.700  -6.357  0.00  0.00     0.015 C 
ENDROOT
BRANCH   1  20
HETATM   20  C   UNK N   1      28.982  21.768  -6.587  0.00  0.00    -0.054 A 
HETATM   21  C   UNK N   1      30.064  21.018  -6.110  0.00  0.00     0.010 A 
HETATM   22  C   UNK N   1      30.396  19.808  -6.712  0.00  0.00     0.037 A 
HETATM   23  C   UNK N   1      29.652  19.326  -7.802  0.00  0.00     0.068 A 
HETATM   24  C   UNK N   1      28.562  20.067  -8.269  0.00  0.00     0.037 A 
HETATM   25  C   UNK N   1      28.236  21.288  -7.673  0.00  0.00     0.010 A 
BRANCH  23  26
HETATM   26  O   UNK N   1      29.973  18.159  -8.411  0.00  0.00    -0.349 OA
BRANCH  26  27
HETATM   27  C   UNK N   1      30.751  18.110  -9.549  0.00  0.00     0.206 C 
BRANCH  27  28
HETATM   28  C   UNK N   1      31.996  17.267  -9.310  0.00  0.00     0.299 C 
BRANCH  28  29
HETATM   29  N   UNK N   1      33.207  17.989  -9.706  0.00  0.00     0.094 N 
HETATM   30  C   UNK N   1      33.395  19.139  -8.812  0.00  0.00     0.298 C 
HETATM   31  C   UNK N   1      33.937  18.695  -7.447  0.00  0.00     0.198 C 
HETATM   32  O   UNK N   1      35.158  18.028  -7.627  0.00  0.00    -0.388 OA
HETATM   33  C   UNK N   1      34.847  16.815  -8.259  0.00  0.00     0.198 C 
HETATM   34  C   UNK N   1      34.383  17.100  -9.691  0.00  0.00     0.298 C 
ENDBRANCH  28  29
ENDBRANCH  27  28
ENDBRANCH  26  27
ENDBRANCH  23  26
ENDBRANCH   1  20
TORSDOF 5
ENDMDL
MODEL 7
REMARK VINA RESULT:      -8.0      3.050      5.397
REMARK  5 active torsions:
REMARK  status: ('A' for Active; 'I' for Inactive)
REMARK    1  A    between atoms: C_16  and  C_2 
REMARK    2  A    between atoms: C_5  and  O_7 
REMARK    3  A    between atoms: O_7  and  C_8 
REMARK    4  A    between atoms: C_8  and  C_9 
REMARK    5  A    between atoms: C_9  and  N_10 
ROOT
HETATM    1  C   UNK N   1      32.096  16.446   8.606  0.00  0.00     0.019 C 
HETATM    2  C   UNK N   1      33.384  17.285   8.450  0.00  0.00     0.015 C 
HETATM    3  C   UNK N   1      34.386  16.722   7.442  0.00  0.00     0.072 C 
HETATM    4  C   UNK N   1      34.601  15.243   7.720  0.00  0.00     0.200 C 
HETATM    5  O   UNK N   1      35.651  14.745   6.941  0.00  0.00    -0.197 OA
HETATM    6  O   UNK N   1      36.538  14.194   7.766  0.00  0.00    -0.197 OA
HETATM    7  C   UNK N   1      35.995  14.223   9.060  0.00  0.00     0.208 C 
HETATM    8  O   UNK N   1      34.907  15.077   9.063  0.00  0.00    -0.313 OA
HETATM    9  C   UNK N   1      35.535  12.813   9.501  0.00  0.00     0.052 C 
HETATM   10  C   UNK N   1      36.744  11.865   9.571  0.00  0.00     0.014 C 
HETATM   11  C   UNK N   1      37.773  12.402  10.580  0.00  0.00    -0.013 C 
HETATM   12  C   UNK N   1      38.240  13.797  10.134  0.00  0.00     0.014 C 
HETATM   13  C   UNK N   1      37.039  14.757  10.066  0.00  0.00     0.052 C 
HETATM   14  C   UNK N   1      36.399  14.844  11.467  0.00  0.00     0.014 C 
HETATM   15  C   UNK N   1      35.917  13.452  11.913  0.00  0.00    -0.013 C 
HETATM   16  C   UNK N   1      34.895  12.904  10.901  0.00  0.00     0.014 C 
HETATM   17  C   UNK N   1      37.120  12.502  11.969  0.00  0.00     0.009 C 
HETATM   18  C   UNK N   1      33.305  14.515   7.380  0.00  0.00     0.072 C 
HETATM   19  C   UNK N   1      32.181  14.931   8.329  0.00  0.00     0.015 C 
ENDROOT
BRANCH   1  20
HETATM   20  C   UNK N   1      30.826  17.113   8.171  0.00  0.00    -0.054 A 
HETATM   21  C   UNK N   1      30.279  16.853   6.910  0.00  0.00     0.010 A 
HETATM   22  C   UNK N   1      29.168  17.565   6.468  0.00  0.00     0.037 A 
HETATM   23  C   UNK N   1      28.584  18.551   7.282  0.00  0.00     0.068 A 
HETATM   24  C   UNK N   1      29.120  18.801   8.548  0.00  0.00     0.037 A 
HETATM   25  C   UNK N   1      30.244  18.094   8.986  0.00  0.00     0.010 A 
BRANCH  23  26
HETATM   26  O   UNK N   1      27.513  19.266   6.860  0.00  0.00    -0.349 OA
BRANCH  26  27
HETATM   27  C   UNK N   1      27.613  20.244   5.892  0.00  0.00     0.206 C 
BRANCH  27  28
HETATM   28  C   UNK N   1      26.267  20.468   5.218  0.00  0.00     0.299 C 
BRANCH  28  29
HETATM   29  N   UNK N   1      26.116  19.609   4.041  0.00  0.00     0.094 N 
HETATM   30  C   UNK N   1      25.317  18.432   4.406  0.00  0.00     0.298 C 
HETATM   31  C   UNK N   1      23.827  18.786   4.514  0.00  0.00     0.198 C 
HETATM   32  O   UNK N   1      23.383  19.301   3.286  0.00  0.00    -0.388 OA
HETATM   33  C   UNK N   1      24.002  20.552   3.145  0.00  0.00     0.198 C 
HETATM   34  C   UNK N   1      25.503  20.347   2.921  0.00  0.00     0.298 C 
ENDBRANCH  28  29
ENDBRANCH  27  28
ENDBRANCH  26  27
ENDBRANCH  23  26
ENDBRANCH   1  20
TORSDOF 5
ENDMDL
MODEL 8
REMARK VINA RESULT:      -7.9     10.459     15.198
REMARK  5 active torsions:
REMARK  status: ('A' for Active; 'I' for Inactive)
REMARK    1  A    between atoms: C_16  and  C_2 
REMARK    2  A    between atoms: C_5  and  O_7 
REMARK    3  A    between atoms: O_7  and  C_8 
REMARK    4  A    between atoms: C_8  and  C_9 
REMARK    5  A    between atoms: C_9  and  N_10 
ROOT
HETATM    1  C   UNK N   1      30.896  22.742  -4.730  0.00  0.00     0.019 C 
HETATM    2  C   UNK N   1      31.343  23.921  -5.624  0.00  0.00     0.015 C 
HETATM    3  C   UNK N   1      31.439  25.262  -4.897  0.00  0.00     0.072 C 
HETATM    4  C   UNK N   1      30.166  25.495  -4.100  0.00  0.00     0.200 C 
HETATM    5  O   UNK N   1      30.141  26.794  -3.581  0.00  0.00    -0.197 OA
HETATM    6  O   UNK N   1      29.018  27.372  -3.996  0.00  0.00    -0.197 OA
HETATM    7  C   UNK N   1      28.261  26.403  -4.673  0.00  0.00     0.208 C 
HETATM    8  O   UNK N   1      29.072  25.315  -4.937  0.00  0.00    -0.313 OA
HETATM    9  C   UNK N   1      27.055  25.944  -3.818  0.00  0.00     0.052 C 
HETATM   10  C   UNK N   1      26.105  27.128  -3.573  0.00  0.00     0.014 C 
HETATM   11  C   UNK N   1      25.594  27.677  -4.916  0.00  0.00    -0.013 C 
HETATM   12  C   UNK N   1      26.791  28.146  -5.759  0.00  0.00     0.014 C 
HETATM   13  C   UNK N   1      27.748  26.968  -6.017  0.00  0.00     0.052 C 
HETATM   14  C   UNK N   1      26.978  25.865  -6.771  0.00  0.00     0.014 C 
HETATM   15  C   UNK N   1      25.787  25.381  -5.926  0.00  0.00    -0.013 C 
HETATM   16  C   UNK N   1      26.289  24.841  -4.575  0.00  0.00     0.014 C 
HETATM   17  C   UNK N   1      24.845  26.565  -5.669  0.00  0.00     0.009 C 
HETATM   18  C   UNK N   1      30.136  24.475  -2.967  0.00  0.00     0.072 C 
HETATM   19  C   UNK N   1      30.000  23.055  -3.514  0.00  0.00     0.015 C 
ENDROOT
BRANCH   1  20
HETATM   20  C   UNK N   1      31.909  21.657  -4.526  0.00  0.00    -0.054 A 
HETATM   21  C   UNK N   1      32.666  21.600  -3.350  0.00  0.00     0.010 A 
HETATM   22  C   UNK N   1      33.687  20.662  -3.219  0.00  0.00     0.037 A 
HETATM   23  C   UNK N   1      33.968  19.765  -4.263  0.00  0.00     0.068 A 
HETATM   24  C   UNK N   1      33.202  19.811  -5.432  0.00  0.00     0.037 A 
HETATM   25  C   UNK N   1      32.185  20.761  -5.568  0.00  0.00     0.010 A 
BRANCH  23  26
HETATM   26  O   UNK N   1      34.969  18.858  -4.160  0.00  0.00    -0.349 OA
BRANCH  26  27
HETATM   27  C   UNK N   1      34.921  17.631  -4.787  0.00  0.00     0.206 C 
BRANCH  27  28
HETATM   28  C   UNK N   1      34.765  16.513  -3.766  0.00  0.00     0.299 C 
BRANCH  28  29
HETATM   29  N   UNK N   1      35.699  15.418  -4.034  0.00  0.00     0.094 N 
HETATM   30  C   UNK N   1      36.725  15.394  -2.984  0.00  0.00     0.298 C 
HETATM   31  C   UNK N   1      36.173  14.793  -1.684  0.00  0.00     0.198 C 
HETATM   32  O   UNK N   1      35.717  13.489  -1.933  0.00  0.00    -0.388 OA
HETATM   33  C   UNK N   1      34.574  13.626  -2.735  0.00  0.00     0.198 C 
HETATM   34  C   UNK N   1      34.991  14.127  -4.121  0.00  0.00     0.298 C 
ENDBRANCH  28  29
ENDBRANCH  27  28
ENDBRANCH  26  27
ENDBRANCH  23  26
ENDBRANCH   1  20
TORSDOF 5
ENDMDL
MODEL 9
REMARK VINA RESULT:      -7.7     10.183     15.005
REMARK  5 active torsions:
REMARK  status: ('A' for Active; 'I' for Inactive)
REMARK    1  A    between atoms: C_16  and  C_2 
REMARK    2  A    between atoms: C_5  and  O_7 
REMARK    3  A    between atoms: O_7  and  C_8 
REMARK    4  A    between atoms: C_8  and  C_9 
REMARK    5  A    between atoms: C_9  and  N_10 
ROOT
HETATM    1  C   UNK N   1      30.974  23.218  -4.112  0.00  0.00     0.019 C 
HETATM    2  C   UNK N   1      30.496  23.667  -2.712  0.00  0.00     0.015 C 
HETATM    3  C   UNK N   1      29.015  23.403  -2.438  0.00  0.00     0.072 C 
HETATM    4  C   UNK N   1      28.188  23.917  -3.605  0.00  0.00     0.200 C 
HETATM    5  O   UNK N   1      26.823  23.865  -3.300  0.00  0.00    -0.197 OA
HETATM    6  O   UNK N   1      26.327  25.088  -3.468  0.00  0.00    -0.197 OA
HETATM    7  C   UNK N   1      27.343  25.893  -4.005  0.00  0.00     0.208 C 
HETATM    8  O   UNK N   1      28.549  25.231  -3.869  0.00  0.00    -0.313 OA
HETATM    9  C   UNK N   1      27.088  26.184  -5.503  0.00  0.00     0.052 C 
HETATM   10  C   UNK N   1      25.784  26.983  -5.668  0.00  0.00     0.014 C 
HETATM   11  C   UNK N   1      25.884  28.314  -4.903  0.00  0.00    -0.013 C 
HETATM   12  C   UNK N   1      26.124  28.024  -3.412  0.00  0.00     0.014 C 
HETATM   13  C   UNK N   1      27.430  27.230  -3.233  0.00  0.00     0.052 C 
HETATM   14  C   UNK N   1      28.595  28.068  -3.796  0.00  0.00     0.014 C 
HETATM   15  C   UNK N   1      28.369  28.349  -5.292  0.00  0.00    -0.013 C 
HETATM   16  C   UNK N   1      28.255  27.021  -6.062  0.00  0.00     0.014 C 
HETATM   17  C   UNK N   1      27.060  29.133  -5.459  0.00  0.00     0.009 C 
HETATM   18  C   UNK N   1      28.490  23.034  -4.810  0.00  0.00     0.072 C 
HETATM   19  C   UNK N   1      29.942  23.200  -5.258  0.00  0.00     0.015 C 
ENDROOT
BRANCH   1  20
HETATM   20  C   UNK N   1      31.984  22.112  -4.132  0.00  0.00    -0.054 A 
HETATM   21  C   UNK N   1      32.477  21.575  -2.937  0.00  0.00     0.010 A 
HETATM   22  C   UNK N   1      33.501  20.632  -2.963  0.00  0.00     0.037 A 
HETATM   23  C   UNK N   1      34.049  20.210  -4.186  0.00  0.00     0.068 A 
HETATM   24  C   UNK N   1      33.547  20.734  -5.380  0.00  0.00     0.037 A 
HETATM   25  C   UNK N   1      32.527  21.690  -5.353  0.00  0.00     0.010 A 
BRANCH  23  26
HETATM   26  O   UNK N   1      35.059  19.307  -4.229  0.00  0.00    -0.349 OA
BRANCH  26  27
HETATM   27  C   UNK N   1      34.961  18.124  -4.930  0.00  0.00     0.206 C 
BRANCH  27  28
HETATM   28  C   UNK N   1      34.826  16.945  -3.976  0.00  0.00     0.299 C 
BRANCH  28  29
HETATM   29  N   UNK N   1      35.712  15.846  -4.364  0.00  0.00     0.094 N 
HETATM   30  C   UNK N   1      36.811  15.749  -3.394  0.00  0.00     0.298 C 
HETATM   31  C   UNK N   1      36.339  15.094  -2.088  0.00  0.00     0.198 C 
HETATM   32  O   UNK N   1      35.835  13.813  -2.368  0.00  0.00    -0.388 OA
HETATM   33  C   UNK N   1      34.642  14.014  -3.077  0.00  0.00     0.198 C 
HETATM   34  C   UNK N   1      34.971  14.576  -4.464  0.00  0.00     0.298 C 
ENDBRANCH  28  29
ENDBRANCH  27  28
ENDBRANCH  26  27
ENDBRANCH  23  26
ENDBRANCH   1  20
TORSDOF 5
ENDMDL
