REMARK  1 active torsions:
REMARK  status: ('A' for Active; 'I' for Inactive)
REMARK    1  A    between atoms: C_1  and  C_4 
REMARK       I    between atoms: C_4  and  N_7 
ROOT
HETATM    1  C   UNK N   1       0.393   0.504   0.000  0.00  0.00     0.047 A 
HETATM    2  C   UNK N   1       0.343  -0.896   0.001  0.00  0.00     0.107 A 
HETATM    3  C   UNK N   1      -0.809   1.221  -0.001  0.00  0.00     0.020 A 
HETATM    4  N   UNK N   1      -0.853  -1.544   0.001  0.00  0.00    -0.370 N 
HETATM    5  C   UNK N   1      -2.026   0.540  -0.002  0.00  0.00     0.018 A 
HETATM    6  C   UNK N   1      -2.028  -0.856  -0.001  0.00  0.00     0.090 A 
HETATM    7  C   UNK N   1      -0.876  -2.994   0.002  0.00  0.00     0.154 C 
ENDROOT
BRANCH   1   8
HETATM    8  C   UNK N   1       1.690   1.210   0.000  0.00  0.00     0.250 C 
HETATM    9  N   UNK N   1       2.845   0.512   0.000  0.00  0.00    -0.366 N 
HETATM   10  H   UNK N   1       2.826  -0.472   0.001  0.00  0.00     0.159 HD
HETATM   11  H   UNK N   1       3.707   0.987   0.000  0.00  0.00     0.159 HD
HETATM   12  O   UNK N   1       1.726   2.430  -0.001  0.00  0.00    -0.268 OA
ENDBRANCH   1   8
TORSDOF 1
