MODEL 1
REMARK VINA RESULT:      -7.2      0.000      0.000
REMARK  18 active torsions:
REMARK  status: ('A' for Active; 'I' for Inactive)
REMARK    1  A    between atoms: C_4  and  O_59 
REMARK    2  A    between atoms: C_8  and  O_57 
REMARK    3  A    between atoms: C_11  and  O_53 
REMARK    4  A    between atoms: C_13  and  O_42 
REMARK    5  A    between atoms: C_19  and  O_20 
REMARK    6  A    between atoms: O_20  and  C_21 
REMARK    7  A    between atoms: C_21  and  C_23 
REMARK    8  A    between atoms: C_23  and  C_24 
REMARK    9  A    between atoms: C_23  and  O_37 
REMARK   10  A    between atoms: C_24  and  C_25 
REMARK   11  A    between atoms: C_24  and  N_29 
REMARK   12  A    between atoms: C_25  and  C_26 
REMARK       I    between atoms: N_29  and  C_30 
REMARK   13  A    between atoms: C_30  and  O_32 
REMARK   14  A    between atoms: O_32  and  C_33 
REMARK   15  A    between atoms: O_42  and  C_43 
REMARK   16  A    between atoms: C_43  and  C_45 
REMARK   17  A    between atoms: O_53  and  C_54 
REMARK   18  A    between atoms: O_59  and  C_60 
ROOT
HETATM    1  C   UNK N   1      31.424  16.678   8.621  0.00  0.00     0.046 C 
HETATM    2  C   UNK N   1      31.406  16.608   7.124  0.00  0.00    -0.046 C 
HETATM    3  C   UNK N   1      32.531  16.414   6.388  0.00  0.00    -0.028 C 
HETATM    4  C   UNK N   1      33.825  16.211   7.104  0.00  0.00     0.232 C 
HETATM    5  C   UNK N   1      34.634  15.081   6.513  0.00  0.00     0.171 C 
HETATM    6  O   UNK N   1      35.784  15.327   6.167  0.00  0.00    -0.294 OA
HETATM    7  C   UNK N   1      34.083  13.644   6.358  0.00  0.00     0.055 C 
HETATM    8  C   UNK N   1      35.299  12.685   6.460  0.00  0.00     0.137 C 
HETATM    9  C   UNK N   1      36.035  12.582   5.141  0.00  0.00     0.068 C 
HETATM   10  C   UNK N   1      35.184  11.725   4.205  0.00  0.00     0.161 C 
HETATM   11  C   UNK N   1      33.691  12.026   4.250  0.00  0.00     0.125 C 
HETATM   12  C   UNK N   1      33.277  13.367   4.982  0.00  0.00     0.076 C 
HETATM   13  C   UNK N   1      31.721  13.740   4.922  0.00  0.00     0.179 C 
HETATM   14  C   UNK N   1      31.332  15.241   4.552  0.00  0.00     0.140 A 
HETATM   15  C   UNK N   1      32.413  16.324   4.857  0.00  0.00     0.016 C 
HETATM   16  C   UNK N   1      31.997  17.675   4.295  0.00  0.00     0.023 C 
HETATM   17  C   UNK N   1      33.699  16.060   4.078  0.00  0.00     0.023 C 
HETATM   18  C   UNK N   1      29.969  15.598   5.284  0.00  0.00     0.207 A 
HETATM   19  C   UNK N   1      30.089  16.625   6.413  0.00  0.00     0.194 C 
HETATM   20  O   UNK N   1      29.126  16.004   4.278  0.00  0.00    -0.286 OA
HETATM   21  C   UNK N   1      29.734  15.823   3.114  0.00  0.00     0.408 A 
HETATM   22  O   UNK N   1      29.196  16.070   2.042  0.00  0.00    -0.229 OA
HETATM   23  O   UNK N   1      30.981  15.352   3.213  0.00  0.00    -0.280 OA
HETATM   24  C   UNK N   1      33.637  10.745   5.057  0.00  0.00     0.210 C 
HETATM   25  O   UNK N   1      34.996  10.463   4.806  0.00  0.00    -0.380 OA
HETATM   26  C   UNK N   1      33.215  13.291   7.558  0.00  0.00     0.027 C 
ENDROOT
BRANCH  19  27
HETATM   27  O   UNK N   1      29.329  17.783   6.316  0.00  0.00    -0.307 OA
BRANCH  27  28
HETATM   28  C   UNK N   1      28.171  18.054   6.976  0.00  0.00     0.290 C 
HETATM   29  O   UNK N   1      27.982  17.650   8.112  0.00  0.00    -0.262 OA
BRANCH  28  30
HETATM   30  C   UNK N   1      27.113  18.881   6.310  0.00  0.00     0.240 C 
BRANCH  30  31
HETATM   31  C   UNK N   1      26.262  18.005   5.359  0.00  0.00     0.125 C 
BRANCH  31  32
HETATM   32  C   UNK N   1      26.461  18.403   3.882  0.00  0.00     0.032 C 
BRANCH  32  33
HETATM   33  C   UNK N   1      25.331  19.119   3.154  0.00  0.00    -0.021 C 
HETATM   34  C   UNK N   1      25.796  20.517   2.812  0.00  0.00     0.009 C 
HETATM   35  C   UNK N   1      24.142  19.267   4.085  0.00  0.00     0.009 C 
ENDBRANCH  32  33
ENDBRANCH  31  32
BRANCH  31  36
HETATM   36  N   UNK N   1      26.600  16.592   5.402  0.00  0.00    -0.329 N 
HETATM   37  C   UNK N   1      25.800  15.513   5.182  0.00  0.00     0.361 C 
HETATM   38  O   UNK N   1      26.289  14.398   5.264  0.00  0.00    -0.238 OA
HETATM   39  H   UNK N   1      27.538  16.387   5.622  0.00  0.00     0.165 HD
BRANCH  37  40
HETATM   40  O   UNK N   1      24.465  15.623   4.957  0.00  0.00    -0.294 OA
BRANCH  40  41
HETATM   41  C   UNK N   1      23.794  15.223   3.814  0.00  0.00     0.061 C 
HETATM   42  C   UNK N   1      24.663  15.354   2.579  0.00  0.00     0.046 C 
HETATM   43  C   UNK N   1      22.587  16.123   3.640  0.00  0.00     0.046 C 
HETATM   44  C   UNK N   1      23.304  13.791   3.943  0.00  0.00     0.046 C 
ENDBRANCH  40  41
ENDBRANCH  37  40
ENDBRANCH  31  36
ENDBRANCH  30  31
BRANCH  30  45
HETATM   45  O   UNK N   1      27.762  19.915   5.640  0.00  0.00    -0.383 OA
HETATM   46  H   UNK N   1      28.241  19.803   4.805  0.00  0.00     0.210 HD
ENDBRANCH  30  45
ENDBRANCH  28  30
ENDBRANCH  27  28
ENDBRANCH  19  27
BRANCH  13  47
HETATM   47  O   UNK N   1      31.040  12.881   4.049  0.00  0.00    -0.308 OA
BRANCH  47  48
HETATM   48  C   UNK N   1      30.092  11.955   4.395  0.00  0.00     0.293 C 
HETATM   49  O   UNK N   1      30.314  11.146   5.284  0.00  0.00    -0.259 OA
BRANCH  48  50
HETATM   50  C   UNK N   1      28.756  11.971   3.741  0.00  0.00     0.039 A 
HETATM   51  C   UNK N   1      27.679  11.285   4.311  0.00  0.00     0.017 A 
HETATM   52  C   UNK N   1      26.421  11.285   3.701  0.00  0.00     0.001 A 
HETATM   53  C   UNK N   1      26.235  11.952   2.490  0.00  0.00     0.000 A 
HETATM   54  C   UNK N   1      27.307  12.622   1.895  0.00  0.00     0.001 A 
HETATM   55  C   UNK N   1      28.561  12.637   2.519  0.00  0.00     0.017 A 
ENDBRANCH  48  50
ENDBRANCH  47  48
ENDBRANCH  13  47
BRANCH   4  56
HETATM   56  O   UNK N   1      34.528  17.398   7.153  0.00  0.00    -0.304 OA
BRANCH  56  57
HETATM   57  C   UNK N   1      34.817  18.016   8.326  0.00  0.00     0.255 C 
HETATM   58  O   UNK N   1      35.062  19.214   8.362  0.00  0.00    -0.266 OA
HETATM   59  C   UNK N   1      34.860  17.223   9.585  0.00  0.00     0.126 C 
ENDBRANCH  56  57
ENDBRANCH   4  56
BRANCH  11  60
HETATM   60  O   UNK N   1      33.237  11.908   2.938  0.00  0.00    -0.305 OA
BRANCH  60  61
HETATM   61  C   UNK N   1      33.759  12.463   1.801  0.00  0.00     0.255 C 
HETATM   62  O   UNK N   1      33.613  13.658   1.610  0.00  0.00    -0.266 OA
HETATM   63  C   UNK N   1      34.473  11.662   0.751  0.00  0.00     0.126 C 
ENDBRANCH  60  61
ENDBRANCH  11  60
BRANCH   8  64
HETATM   64  O   UNK N   1      36.173  12.987   7.510  0.00  0.00    -0.394 OA
HETATM   65  H   UNK N   1      35.906  12.873   8.436  0.00  0.00     0.210 HD
ENDBRANCH   8  64
TORSDOF 18
ENDMDL
MODEL 2
REMARK VINA RESULT:      -6.9      1.198      2.223
REMARK  18 active torsions:
REMARK  status: ('A' for Active; 'I' for Inactive)
REMARK    1  A    between atoms: C_4  and  O_59 
REMARK    2  A    between atoms: C_8  and  O_57 
REMARK    3  A    between atoms: C_11  and  O_53 
REMARK    4  A    between atoms: C_13  and  O_42 
REMARK    5  A    between atoms: C_19  and  O_20 
REMARK    6  A    between atoms: O_20  and  C_21 
REMARK    7  A    between atoms: C_21  and  C_23 
REMARK    8  A    between atoms: C_23  and  C_24 
REMARK    9  A    between atoms: C_23  and  O_37 
REMARK   10  A    between atoms: C_24  and  C_25 
REMARK   11  A    between atoms: C_24  and  N_29 
REMARK   12  A    between atoms: C_25  and  C_26 
REMARK       I    between atoms: N_29  and  C_30 
REMARK   13  A    between atoms: C_30  and  O_32 
REMARK   14  A    between atoms: O_32  and  C_33 
REMARK   15  A    between atoms: O_42  and  C_43 
REMARK   16  A    between atoms: C_43  and  C_45 
REMARK   17  A    between atoms: O_53  and  C_54 
REMARK   18  A    between atoms: O_59  and  C_60 
ROOT
HETATM    1  C   UNK N   1      31.588  16.316   8.599  0.00  0.00     0.046 C 
HETATM    2  C   UNK N   1      31.534  16.305   7.101  0.00  0.00    -0.046 C 
HETATM    3  C   UNK N   1      32.649  16.215   6.331  0.00  0.00    -0.028 C 
HETATM    4  C   UNK N   1      33.972  16.066   7.005  0.00  0.00     0.232 C 
HETATM    5  C   UNK N   1      34.835  15.015   6.348  0.00  0.00     0.171 C 
HETATM    6  O   UNK N   1      35.957  15.348   5.984  0.00  0.00    -0.294 OA
HETATM    7  C   UNK N   1      34.371  13.553   6.146  0.00  0.00     0.055 C 
HETATM    8  C   UNK N   1      35.647  12.670   6.178  0.00  0.00     0.137 C 
HETATM    9  C   UNK N   1      36.353  12.668   4.837  0.00  0.00     0.068 C 
HETATM   10  C   UNK N   1      35.532  11.797   3.887  0.00  0.00     0.161 C 
HETATM   11  C   UNK N   1      34.024  12.000   3.981  0.00  0.00     0.125 C 
HETATM   12  C   UNK N   1      33.547  13.281   4.780  0.00  0.00     0.076 C 
HETATM   13  C   UNK N   1      31.969  13.555   4.773  0.00  0.00     0.179 C 
HETATM   14  C   UNK N   1      31.477  15.042   4.476  0.00  0.00     0.140 A 
HETATM   15  C   UNK N   1      32.496  16.179   4.801  0.00  0.00     0.016 C 
HETATM   16  C   UNK N   1      31.980  17.522   4.306  0.00  0.00     0.023 C 
HETATM   17  C   UNK N   1      33.774  16.030   3.980  0.00  0.00     0.023 C 
HETATM   18  C   UNK N   1      30.114  15.281   5.256  0.00  0.00     0.207 A 
HETATM   19  C   UNK N   1      30.200  16.267   6.424  0.00  0.00     0.194 C 
HETATM   20  O   UNK N   1      29.221  15.673   4.289  0.00  0.00    -0.286 OA
HETATM   21  C   UNK N   1      29.807  15.579   3.103  0.00  0.00     0.408 A 
HETATM   22  O   UNK N   1      29.226  15.835   2.057  0.00  0.00    -0.229 OA
HETATM   23  O   UNK N   1      31.084  15.185   3.152  0.00  0.00    -0.280 OA
HETATM   24  C   UNK N   1      34.073  10.687   4.735  0.00  0.00     0.210 C 
HETATM   25  O   UNK N   1      35.440  10.503   4.439  0.00  0.00    -0.380 OA
HETATM   26  C   UNK N   1      33.560  13.096   7.351  0.00  0.00     0.027 C 
ENDROOT
BRANCH  19  27
HETATM   27  O   UNK N   1      29.367  17.377   6.395  0.00  0.00    -0.307 OA
BRANCH  27  28
HETATM   28  C   UNK N   1      28.204  17.541   7.082  0.00  0.00     0.290 C 
HETATM   29  O   UNK N   1      27.758  18.652   7.312  0.00  0.00    -0.262 OA
BRANCH  28  30
HETATM   30  C   UNK N   1      27.442  16.338   7.550  0.00  0.00     0.240 C 
BRANCH  30  31
HETATM   31  C   UNK N   1      26.400  15.911   6.488  0.00  0.00     0.125 C 
BRANCH  31  32
HETATM   32  C   UNK N   1      25.207  15.167   7.123  0.00  0.00     0.032 C 
BRANCH  32  33
HETATM   33  C   UNK N   1      25.298  13.659   7.317  0.00  0.00    -0.021 C 
HETATM   34  C   UNK N   1      24.217  13.006   6.485  0.00  0.00     0.009 C 
HETATM   35  C   UNK N   1      25.006  13.316   8.766  0.00  0.00     0.009 C 
ENDBRANCH  32  33
ENDBRANCH  31  32
BRANCH  31  36
HETATM   36  N   UNK N   1      25.796  17.026   5.778  0.00  0.00    -0.329 N 
HETATM   37  C   UNK N   1      25.665  17.217   4.437  0.00  0.00     0.361 C 
HETATM   38  O   UNK N   1      25.115  18.232   4.043  0.00  0.00    -0.238 OA
HETATM   39  H   UNK N   1      25.429  17.742   6.346  0.00  0.00     0.165 HD
BRANCH  37  40
HETATM   40  O   UNK N   1      26.196  16.367   3.519  0.00  0.00    -0.294 OA
BRANCH  40  41
HETATM   41  C   UNK N   1      25.587  15.234   3.008  0.00  0.00     0.061 C 
HETATM   42  C   UNK N   1      26.236  13.966   3.526  0.00  0.00     0.046 C 
HETATM   43  C   UNK N   1      25.739  15.261   1.500  0.00  0.00     0.046 C 
HETATM   44  C   UNK N   1      24.104  15.218   3.336  0.00  0.00     0.046 C 
ENDBRANCH  40  41
ENDBRANCH  37  40
ENDBRANCH  31  36
ENDBRANCH  30  31
BRANCH  30  45
HETATM   45  O   UNK N   1      26.853  16.673   8.767  0.00  0.00    -0.383 OA
HETATM   46  H   UNK N   1      26.475  16.025   9.382  0.00  0.00     0.210 HD
ENDBRANCH  30  45
ENDBRANCH  28  30
ENDBRANCH  27  28
ENDBRANCH  19  27
BRANCH  13  47
HETATM   47  O   UNK N   1      31.320  12.691   3.881  0.00  0.00    -0.308 OA
BRANCH  47  48
HETATM   48  C   UNK N   1      30.360  11.767   4.199  0.00  0.00     0.293 C 
HETATM   49  O   UNK N   1      30.389  11.191   5.277  0.00  0.00    -0.259 OA
BRANCH  48  50
HETATM   50  C   UNK N   1      29.233  11.508   3.263  0.00  0.00     0.039 A 
HETATM   51  C   UNK N   1      28.189  10.653   3.631  0.00  0.00     0.017 A 
HETATM   52  C   UNK N   1      27.128  10.394   2.758  0.00  0.00     0.001 A 
HETATM   53  C   UNK N   1      27.117  10.970   1.487  0.00  0.00     0.000 A 
HETATM   54  C   UNK N   1      28.165  11.808   1.095  0.00  0.00     0.001 A 
HETATM   55  C   UNK N   1      29.215  12.081   1.981  0.00  0.00     0.017 A 
ENDBRANCH  48  50
ENDBRANCH  47  48
ENDBRANCH  13  47
BRANCH   4  56
HETATM   56  O   UNK N   1      34.600  17.292   7.087  0.00  0.00    -0.304 OA
BRANCH  56  57
HETATM   57  C   UNK N   1      34.801  17.921   8.274  0.00  0.00     0.255 C 
HETATM   58  O   UNK N   1      34.928  19.136   8.327  0.00  0.00    -0.266 OA
HETATM   59  C   UNK N   1      34.892  17.119   9.525  0.00  0.00     0.126 C 
ENDBRANCH  56  57
ENDBRANCH   4  56
BRANCH  11  60
HETATM   60  O   UNK N   1      33.544  11.907   2.677  0.00  0.00    -0.305 OA
BRANCH  60  61
HETATM   61  C   UNK N   1      34.028  12.503   1.544  0.00  0.00     0.255 C 
HETATM   62  O   UNK N   1      33.830  13.694   1.376  0.00  0.00    -0.266 OA
HETATM   63  C   UNK N   1      34.761  11.752   0.471  0.00  0.00     0.126 C 
ENDBRANCH  60  61
ENDBRANCH  11  60
BRANCH   8  64
HETATM   64  O   UNK N   1      36.528  12.985   7.217  0.00  0.00    -0.394 OA
HETATM   65  H   UNK N   1      36.211  13.107   8.126  0.00  0.00     0.210 HD
ENDBRANCH   8  64
TORSDOF 18
ENDMDL
MODEL 3
REMARK VINA RESULT:      -6.9      3.161      9.639
REMARK  18 active torsions:
REMARK  status: ('A' for Active; 'I' for Inactive)
REMARK    1  A    between atoms: C_4  and  O_59 
REMARK    2  A    between atoms: C_8  and  O_57 
REMARK    3  A    between atoms: C_11  and  O_53 
REMARK    4  A    between atoms: C_13  and  O_42 
REMARK    5  A    between atoms: C_19  and  O_20 
REMARK    6  A    between atoms: O_20  and  C_21 
REMARK    7  A    between atoms: C_21  and  C_23 
REMARK    8  A    between atoms: C_23  and  C_24 
REMARK    9  A    between atoms: C_23  and  O_37 
REMARK   10  A    between atoms: C_24  and  C_25 
REMARK   11  A    between atoms: C_24  and  N_29 
REMARK   12  A    between atoms: C_25  and  C_26 
REMARK       I    between atoms: N_29  and  C_30 
REMARK   13  A    between atoms: C_30  and  O_32 
REMARK   14  A    between atoms: O_32  and  C_33 
REMARK   15  A    between atoms: O_42  and  C_43 
REMARK   16  A    between atoms: C_43  and  C_45 
REMARK   17  A    between atoms: O_53  and  C_54 
REMARK   18  A    between atoms: O_59  and  C_60 
ROOT
HETATM    1  C   UNK N   1      22.787  17.708   5.137  0.00  0.00     0.046 C 
HETATM    2  C   UNK N   1      23.551  16.464   5.475  0.00  0.00    -0.046 C 
HETATM    3  C   UNK N   1      22.977  15.400   6.094  0.00  0.00    -0.028 C 
HETATM    4  C   UNK N   1      21.517  15.454   6.398  0.00  0.00     0.232 C 
HETATM    5  C   UNK N   1      20.812  14.164   6.053  0.00  0.00     0.171 C 
HETATM    6  O   UNK N   1      20.161  13.619   6.937  0.00  0.00    -0.294 OA
HETATM    7  C   UNK N   1      20.859  13.532   4.642  0.00  0.00     0.055 C 
HETATM    8  C   UNK N   1      19.531  12.752   4.456  0.00  0.00     0.137 C 
HETATM    9  C   UNK N   1      19.595  11.386   5.108  0.00  0.00     0.068 C 
HETATM   10  C   UNK N   1      20.473  10.498   4.226  0.00  0.00     0.161 C 
HETATM   11  C   UNK N   1      21.730  11.174   3.693  0.00  0.00     0.125 C 
HETATM   12  C   UNK N   1      22.117  12.550   4.375  0.00  0.00     0.076 C 
HETATM   13  C   UNK N   1      23.502  13.196   3.897  0.00  0.00     0.179 C 
HETATM   14  C   UNK N   1      24.491  13.744   5.021  0.00  0.00     0.140 A 
HETATM   15  C   UNK N   1      23.832  14.152   6.375  0.00  0.00     0.016 C 
HETATM   16  C   UNK N   1      24.892  14.481   7.414  0.00  0.00     0.023 C 
HETATM   17  C   UNK N   1      23.130  12.966   7.031  0.00  0.00     0.023 C 
HETATM   18  C   UNK N   1      25.309  14.962   4.414  0.00  0.00     0.207 A 
HETATM   19  C   UNK N   1      24.966  16.332   5.007  0.00  0.00     0.194 C 
HETATM   20  O   UNK N   1      26.628  14.620   4.585  0.00  0.00    -0.286 OA
HETATM   21  C   UNK N   1      26.689  13.385   5.065  0.00  0.00     0.408 A 
HETATM   22  O   UNK N   1      27.749  12.812   5.281  0.00  0.00    -0.229 OA
HETATM   23  O   UNK N   1      25.496  12.826   5.294  0.00  0.00    -0.280 OA
HETATM   24  C   UNK N   1      20.937  11.234   2.404  0.00  0.00     0.210 C 
HETATM   25  O   UNK N   1      19.899  10.444   2.939  0.00  0.00    -0.380 OA
HETATM   26  C   UNK N   1      20.811  14.626   3.584  0.00  0.00     0.027 C 
ENDROOT
BRANCH  19  27
HETATM   27  O   UNK N   1      25.996  17.061   5.586  0.00  0.00    -0.307 OA
BRANCH  27  28
HETATM   28  C   UNK N   1      26.711  18.062   5.007  0.00  0.00     0.290 C 
HETATM   29  O   UNK N   1      26.450  18.455   3.882  0.00  0.00    -0.262 OA
BRANCH  28  30
HETATM   30  C   UNK N   1      27.829  18.712   5.765  0.00  0.00     0.240 C 
BRANCH  30  31
HETATM   31  C   UNK N   1      29.091  17.816   5.740  0.00  0.00     0.125 C 
BRANCH  31  32
HETATM   32  C   UNK N   1      29.388  17.206   7.126  0.00  0.00     0.032 C 
BRANCH  32  33
HETATM   33  C   UNK N   1      30.631  17.661   7.881  0.00  0.00    -0.021 C 
HETATM   34  C   UNK N   1      31.315  16.440   8.453  0.00  0.00     0.009 C 
HETATM   35  C   UNK N   1      30.219  18.527   9.058  0.00  0.00     0.009 C 
ENDBRANCH  32  33
ENDBRANCH  31  32
BRANCH  31  36
HETATM   36  N   UNK N   1      28.979  16.668   4.856  0.00  0.00    -0.329 N 
HETATM   37  C   UNK N   1      29.891  16.173   3.975  0.00  0.00     0.361 C 
HETATM   38  O   UNK N   1      29.597  15.185   3.324  0.00  0.00    -0.238 OA
HETATM   39  H   UNK N   1      28.124  16.180   4.900  0.00  0.00     0.165 HD
BRANCH  37  40
HETATM   40  O   UNK N   1      31.082  16.782   3.732  0.00  0.00    -0.294 OA
BRANCH  40  41
HETATM   41  C   UNK N   1      32.321  16.359   4.180  0.00  0.00     0.061 C 
HETATM   42  C   UNK N   1      32.203  15.183   5.129  0.00  0.00     0.046 C 
HETATM   43  C   UNK N   1      32.965  17.508   4.929  0.00  0.00     0.046 C 
HETATM   44  C   UNK N   1      33.223  15.986   3.017  0.00  0.00     0.046 C 
ENDBRANCH  40  41
ENDBRANCH  37  40
ENDBRANCH  31  36
ENDBRANCH  30  31
BRANCH  30  45
HETATM   45  O   UNK N   1      27.367  18.942   7.059  0.00  0.00    -0.383 OA
HETATM   46  H   UNK N   1      27.757  19.591   7.666  0.00  0.00     0.210 HD
ENDBRANCH  30  45
ENDBRANCH  28  30
ENDBRANCH  27  28
ENDBRANCH  19  27
BRANCH  13  47
HETATM   47  O   UNK N   1      24.211  12.301   3.085  0.00  0.00    -0.308 OA
BRANCH  47  48
HETATM   48  C   UNK N   1      24.802  12.588   1.883  0.00  0.00     0.293 C 
HETATM   49  O   UNK N   1      24.303  13.412   1.130  0.00  0.00    -0.259 OA
BRANCH  48  50
HETATM   50  C   UNK N   1      26.095  11.952   1.513  0.00  0.00     0.039 A 
HETATM   51  C   UNK N   1      26.124  10.651   1.002  0.00  0.00     0.017 A 
HETATM   52  C   UNK N   1      27.333  10.039   0.659  0.00  0.00     0.001 A 
HETATM   53  C   UNK N   1      28.536  10.718   0.853  0.00  0.00     0.000 A 
HETATM   54  C   UNK N   1      28.526  12.010   1.385  0.00  0.00     0.001 A 
HETATM   55  C   UNK N   1      27.311  12.628   1.708  0.00  0.00     0.017 A 
ENDBRANCH  48  50
ENDBRANCH  47  48
ENDBRANCH  13  47
BRANCH   4  56
HETATM   56  O   UNK N   1      21.323  15.829   7.712  0.00  0.00    -0.304 OA
BRANCH  56  57
HETATM   57  C   UNK N   1      20.435  16.795   8.062  0.00  0.00     0.255 C 
HETATM   58  O   UNK N   1      20.635  17.967   7.775  0.00  0.00    -0.266 OA
HETATM   59  C   UNK N   1      19.212  16.427   8.827  0.00  0.00     0.126 C 
ENDBRANCH  56  57
ENDBRANCH   4  56
BRANCH  11  60
HETATM   60  O   UNK N   1      22.728  10.203   3.720  0.00  0.00    -0.305 OA
BRANCH  60  61
HETATM   61  C   UNK N   1      22.969   9.253   4.676  0.00  0.00     0.255 C 
HETATM   62  O   UNK N   1      22.663   8.096   4.445  0.00  0.00    -0.266 OA
HETATM   63  C   UNK N   1      23.558   9.573   6.019  0.00  0.00     0.126 C 
ENDBRANCH  60  61
ENDBRANCH  11  60
BRANCH   8  64
HETATM   64  O   UNK N   1      18.395  13.459   4.866  0.00  0.00    -0.394 OA
HETATM   65  H   UNK N   1      18.122  14.276   4.418  0.00  0.00     0.210 HD
ENDBRANCH   8  64
TORSDOF 18
ENDMDL
MODEL 4
REMARK VINA RESULT:      -6.9      1.634      2.110
REMARK  18 active torsions:
REMARK  status: ('A' for Active; 'I' for Inactive)
REMARK    1  A    between atoms: C_4  and  O_59 
REMARK    2  A    between atoms: C_8  and  O_57 
REMARK    3  A    between atoms: C_11  and  O_53 
REMARK    4  A    between atoms: C_13  and  O_42 
REMARK    5  A    between atoms: C_19  and  O_20 
REMARK    6  A    between atoms: O_20  and  C_21 
REMARK    7  A    between atoms: C_21  and  C_23 
REMARK    8  A    between atoms: C_23  and  C_24 
REMARK    9  A    between atoms: C_23  and  O_37 
REMARK   10  A    between atoms: C_24  and  C_25 
REMARK   11  A    between atoms: C_24  and  N_29 
REMARK   12  A    between atoms: C_25  and  C_26 
REMARK       I    between atoms: N_29  and  C_30 
REMARK   13  A    between atoms: C_30  and  O_32 
REMARK   14  A    between atoms: O_32  and  C_33 
REMARK   15  A    between atoms: O_42  and  C_43 
REMARK   16  A    between atoms: C_43  and  C_45 
REMARK   17  A    between atoms: O_53  and  C_54 
REMARK   18  A    between atoms: O_59  and  C_60 
ROOT
HETATM    1  C   UNK N   1      31.790  15.684   9.624  0.00  0.00     0.046 C 
HETATM    2  C   UNK N   1      32.077  15.881   8.167  0.00  0.00    -0.046 C 
HETATM    3  C   UNK N   1      33.297  15.631   7.623  0.00  0.00    -0.028 C 
HETATM    4  C   UNK N   1      34.373  15.088   8.502  0.00  0.00     0.232 C 
HETATM    5  C   UNK N   1      35.131  13.958   7.848  0.00  0.00     0.171 C 
HETATM    6  O   UNK N   1      36.351  14.061   7.773  0.00  0.00    -0.294 OA
HETATM    7  C   UNK N   1      34.440  12.685   7.304  0.00  0.00     0.055 C 
HETATM    8  C   UNK N   1      35.469  11.530   7.424  0.00  0.00     0.137 C 
HETATM    9  C   UNK N   1      36.447  11.536   6.266  0.00  0.00     0.068 C 
HETATM   10  C   UNK N   1      35.705  11.015   5.037  0.00  0.00     0.161 C 
HETATM   11  C   UNK N   1      34.289  11.552   4.872  0.00  0.00     0.125 C 
HETATM   12  C   UNK N   1      33.912  12.795   5.778  0.00  0.00     0.076 C 
HETATM   13  C   UNK N   1      32.466  13.432   5.516  0.00  0.00     0.179 C 
HETATM   14  C   UNK N   1      32.366  15.019   5.398  0.00  0.00     0.140 A 
HETATM   15  C   UNK N   1      33.492  15.831   6.110  0.00  0.00     0.016 C 
HETATM   16  C   UNK N   1      33.386  17.311   5.772  0.00  0.00     0.023 C 
HETATM   17  C   UNK N   1      34.867  15.493   5.538  0.00  0.00     0.023 C 
HETATM   18  C   UNK N   1      30.938  15.469   5.930  0.00  0.00     0.207 A 
HETATM   19  C   UNK N   1      30.954  16.246   7.249  0.00  0.00     0.194 C 
HETATM   20  O   UNK N   1      30.387  16.183   4.894  0.00  0.00    -0.286 OA
HETATM   21  C   UNK N   1      31.196  16.108   3.846  0.00  0.00     0.408 A 
HETATM   22  O   UNK N   1      30.933  16.627   2.770  0.00  0.00    -0.229 OA
HETATM   23  O   UNK N   1      32.322  15.421   4.070  0.00  0.00    -0.280 OA
HETATM   24  C   UNK N   1      33.898  10.178   5.376  0.00  0.00     0.210 C 
HETATM   25  O   UNK N   1      35.230   9.718   5.321  0.00  0.00    -0.380 OA
HETATM   26  C   UNK N   1      33.301  12.280   8.229  0.00  0.00     0.027 C 
ENDROOT
BRANCH  19  27
HETATM   27  O   UNK N   1      30.391  17.516   7.257  0.00  0.00    -0.307 OA
BRANCH  27  28
HETATM   28  C   UNK N   1      29.531  18.019   8.183  0.00  0.00     0.290 C 
HETATM   29  O   UNK N   1      29.938  18.640   9.151  0.00  0.00    -0.262 OA
BRANCH  28  30
HETATM   30  C   UNK N   1      28.055  17.829   8.006  0.00  0.00     0.240 C 
BRANCH  30  31
HETATM   31  C   UNK N   1      27.566  18.552   6.728  0.00  0.00     0.125 C 
BRANCH  31  32
HETATM   32  C   UNK N   1      28.188  19.958   6.592  0.00  0.00     0.032 C 
BRANCH  32  33
HETATM   33  C   UNK N   1      27.266  21.155   6.392  0.00  0.00    -0.021 C 
HETATM   34  C   UNK N   1      26.310  21.220   7.562  0.00  0.00     0.009 C 
HETATM   35  C   UNK N   1      26.424  20.943   5.147  0.00  0.00     0.009 C 
ENDBRANCH  32  33
ENDBRANCH  31  32
BRANCH  31  36
HETATM   36  N   UNK N   1      27.930  17.875   5.495  0.00  0.00    -0.329 N 
HETATM   37  C   UNK N   1      27.135  17.512   4.450  0.00  0.00     0.361 C 
HETATM   38  O   UNK N   1      27.646  16.949   3.497  0.00  0.00    -0.238 OA
HETATM   39  H   UNK N   1      28.883  17.646   5.401  0.00  0.00     0.165 HD
BRANCH  37  40
HETATM   40  O   UNK N   1      25.786  17.675   4.464  0.00  0.00    -0.294 OA
BRANCH  40  41
HETATM   41  C   UNK N   1      24.850  16.700   4.763  0.00  0.00     0.061 C 
HETATM   42  C   UNK N   1      25.390  15.689   5.755  0.00  0.00     0.046 C 
HETATM   43  C   UNK N   1      24.510  15.969   3.480  0.00  0.00     0.046 C 
HETATM   44  C   UNK N   1      23.575  17.318   5.310  0.00  0.00     0.046 C 
ENDBRANCH  40  41
ENDBRANCH  37  40
ENDBRANCH  31  36
ENDBRANCH  30  31
BRANCH  30  45
HETATM   45  O   UNK N   1      27.438  18.312   9.158  0.00  0.00    -0.383 OA
HETATM   46  H   UNK N   1      26.542  18.066   9.437  0.00  0.00     0.210 HD
ENDBRANCH  30  45
ENDBRANCH  28  30
ENDBRANCH  27  28
ENDBRANCH  19  27
BRANCH  13  47
HETATM   47  O   UNK N   1      31.876  12.869   4.376  0.00  0.00    -0.308 OA
BRANCH  47  48
HETATM   48  C   UNK N   1      30.686  12.194   4.328  0.00  0.00     0.293 C 
HETATM   49  O   UNK N   1      30.545  11.143   4.937  0.00  0.00    -0.259 OA
BRANCH  48  50
HETATM   50  C   UNK N   1      29.528  12.769   3.590  0.00  0.00     0.039 A 
HETATM   51  C   UNK N   1      28.274  12.862   4.201  0.00  0.00     0.017 A 
HETATM   52  C   UNK N   1      27.177  13.392   3.515  0.00  0.00     0.001 A 
HETATM   53  C   UNK N   1      27.320  13.811   2.192  0.00  0.00     0.000 A 
HETATM   54  C   UNK N   1      28.561  13.702   1.559  0.00  0.00     0.001 A 
HETATM   55  C   UNK N   1      29.663  13.189   2.256  0.00  0.00     0.017 A 
ENDBRANCH  48  50
ENDBRANCH  47  48
ENDBRANCH  13  47
BRANCH   4  56
HETATM   56  O   UNK N   1      35.200  16.110   8.920  0.00  0.00    -0.304 OA
BRANCH  56  57
HETATM   57  C   UNK N   1      35.332  16.440  10.231  0.00  0.00     0.255 C 
HETATM   58  O   UNK N   1      35.688  17.563  10.563  0.00  0.00    -0.266 OA
HETATM   59  C   UNK N   1      35.063  15.417  11.278  0.00  0.00     0.126 C 
ENDBRANCH  56  57
ENDBRANCH   4  56
BRANCH  11  60
HETATM   60  O   UNK N   1      34.110  11.746   3.504  0.00  0.00    -0.305 OA
BRANCH  60  61
HETATM   61  C   UNK N   1      34.911  12.422   2.626  0.00  0.00     0.255 C 
HETATM   62  O   UNK N   1      34.899  13.641   2.637  0.00  0.00    -0.266 OA
HETATM   63  C   UNK N   1      35.781  11.735   1.614  0.00  0.00     0.126 C 
ENDBRANCH  60  61
ENDBRANCH  11  60
BRANCH   8  64
HETATM   64  O   UNK N   1      36.136  11.490   8.654  0.00  0.00    -0.394 OA
HETATM   65  H   UNK N   1      35.697  11.159   9.453  0.00  0.00     0.210 HD
ENDBRANCH   8  64
TORSDOF 18
ENDMDL
MODEL 5
REMARK VINA RESULT:      -6.8      1.252      1.779
REMARK  18 active torsions:
REMARK  status: ('A' for Active; 'I' for Inactive)
REMARK    1  A    between atoms: C_4  and  O_59 
REMARK    2  A    between atoms: C_8  and  O_57 
REMARK    3  A    between atoms: C_11  and  O_53 
REMARK    4  A    between atoms: C_13  and  O_42 
REMARK    5  A    between atoms: C_19  and  O_20 
REMARK    6  A    between atoms: O_20  and  C_21 
REMARK    7  A    between atoms: C_21  and  C_23 
REMARK    8  A    between atoms: C_23  and  C_24 
REMARK    9  A    between atoms: C_23  and  O_37 
REMARK   10  A    between atoms: C_24  and  C_25 
REMARK   11  A    between atoms: C_24  and  N_29 
REMARK   12  A    between atoms: C_25  and  C_26 
REMARK       I    between atoms: N_29  and  C_30 
REMARK   13  A    between atoms: C_30  and  O_32 
REMARK   14  A    between atoms: O_32  and  C_33 
REMARK   15  A    between atoms: O_42  and  C_43 
REMARK   16  A    between atoms: C_43  and  C_45 
REMARK   17  A    between atoms: O_53  and  C_54 
REMARK   18  A    between atoms: O_59  and  C_60 
ROOT
HETATM    1  C   UNK N   1      31.319  16.331   8.518  0.00  0.00     0.046 C 
HETATM    2  C   UNK N   1      31.295  16.273   7.021  0.00  0.00    -0.046 C 
HETATM    3  C   UNK N   1      32.428  16.232   6.273  0.00  0.00    -0.028 C 
HETATM    4  C   UNK N   1      33.745  16.190   6.975  0.00  0.00     0.232 C 
HETATM    5  C   UNK N   1      34.686  15.178   6.365  0.00  0.00     0.171 C 
HETATM    6  O   UNK N   1      35.791  15.573   6.011  0.00  0.00    -0.294 OA
HETATM    7  C   UNK N   1      34.322  13.684   6.200  0.00  0.00     0.055 C 
HETATM    8  C   UNK N   1      35.651  12.888   6.281  0.00  0.00     0.137 C 
HETATM    9  C   UNK N   1      36.382  12.892   4.954  0.00  0.00     0.068 C 
HETATM   10  C   UNK N   1      35.637  11.942   4.017  0.00  0.00     0.161 C 
HETATM   11  C   UNK N   1      34.118  12.049   4.078  0.00  0.00     0.125 C 
HETATM   12  C   UNK N   1      33.544  13.319   4.829  0.00  0.00     0.076 C 
HETATM   13  C   UNK N   1      31.952  13.489   4.786  0.00  0.00     0.179 C 
HETATM   14  C   UNK N   1      31.371  14.932   4.435  0.00  0.00     0.140 A 
HETATM   15  C   UNK N   1      32.307  16.142   4.742  0.00  0.00     0.016 C 
HETATM   16  C   UNK N   1      31.716  17.433   4.198  0.00  0.00     0.023 C 
HETATM   17  C   UNK N   1      33.608  16.053   3.949  0.00  0.00     0.023 C 
HETATM   18  C   UNK N   1      29.980  15.104   5.183  0.00  0.00     0.207 A 
HETATM   19  C   UNK N   1      29.980  16.128   6.322  0.00  0.00     0.194 C 
HETATM   20  O   UNK N   1      29.082  15.409   4.189  0.00  0.00    -0.286 OA
HETATM   21  C   UNK N   1      29.696  15.318   3.017  0.00  0.00     0.408 A 
HETATM   22  O   UNK N   1      29.121  15.504   1.954  0.00  0.00    -0.229 OA
HETATM   23  O   UNK N   1      30.995  15.009   3.101  0.00  0.00    -0.280 OA
HETATM   24  C   UNK N   1      34.237  10.764   4.872  0.00  0.00     0.210 C 
HETATM   25  O   UNK N   1      35.619  10.661   4.606  0.00  0.00    -0.380 OA
HETATM   26  C   UNK N   1      33.519  13.211   7.404  0.00  0.00     0.027 C 
ENDROOT
BRANCH  19  27
HETATM   27  O   UNK N   1      29.077  17.180   6.244  0.00  0.00    -0.307 OA
BRANCH  27  28
HETATM   28  C   UNK N   1      27.802  17.195   6.718  0.00  0.00     0.290 C 
HETATM   29  O   UNK N   1      27.570  17.073   7.909  0.00  0.00    -0.262 OA
BRANCH  28  30
HETATM   30  C   UNK N   1      26.659  17.385   5.768  0.00  0.00     0.240 C 
BRANCH  30  31
HETATM   31  C   UNK N   1      25.772  16.116   5.728  0.00  0.00     0.125 C 
BRANCH  31  32
HETATM   32  C   UNK N   1      26.085  15.238   4.499  0.00  0.00     0.032 C 
BRANCH  32  33
HETATM   33  C   UNK N   1      25.023  15.078   3.418  0.00  0.00    -0.021 C 
HETATM   34  C   UNK N   1      25.664  15.354   2.076  0.00  0.00     0.009 C 
HETATM   35  C   UNK N   1      23.942  16.125   3.613  0.00  0.00     0.009 C 
ENDBRANCH  32  33
ENDBRANCH  31  32
BRANCH  31  36
HETATM   36  N   UNK N   1      25.964  15.231   6.864  0.00  0.00    -0.329 N 
HETATM   37  C   UNK N   1      25.055  14.437   7.494  0.00  0.00     0.361 C 
HETATM   38  O   UNK N   1      25.426  13.759   8.437  0.00  0.00    -0.238 OA
HETATM   39  H   UNK N   1      26.878  15.201   7.229  0.00  0.00     0.165 HD
BRANCH  37  40
HETATM   40  O   UNK N   1      23.735  14.432   7.168  0.00  0.00    -0.294 OA
BRANCH  40  41
HETATM   41  C   UNK N   1      23.025  13.361   6.656  0.00  0.00     0.061 C 
HETATM   42  C   UNK N   1      22.401  12.524   7.756  0.00  0.00     0.046 C 
HETATM   43  C   UNK N   1      23.991  12.483   5.886  0.00  0.00     0.046 C 
HETATM   44  C   UNK N   1      21.944  13.830   5.699  0.00  0.00     0.046 C 
ENDBRANCH  40  41
ENDBRANCH  37  40
ENDBRANCH  31  36
ENDBRANCH  30  31
BRANCH  30  45
HETATM   45  O   UNK N   1      27.206  17.690   4.523  0.00  0.00    -0.383 OA
HETATM   46  H   UNK N   1      27.724  18.489   4.340  0.00  0.00     0.210 HD
ENDBRANCH  30  45
ENDBRANCH  28  30
ENDBRANCH  27  28
ENDBRANCH  19  27
BRANCH  13  47
HETATM   47  O   UNK N   1      31.378  12.559   3.910  0.00  0.00    -0.308 OA
BRANCH  47  48
HETATM   48  C   UNK N   1      30.370  11.680   4.205  0.00  0.00     0.293 C 
HETATM   49  O   UNK N   1      30.493  10.886   5.127  0.00  0.00    -0.259 OA
BRANCH  48  50
HETATM   50  C   UNK N   1      29.088  11.729   3.451  0.00  0.00     0.039 A 
HETATM   51  C   UNK N   1      27.866  11.647   4.125  0.00  0.00     0.017 A 
HETATM   52  C   UNK N   1      26.655  11.683   3.428  0.00  0.00     0.001 A 
HETATM   53  C   UNK N   1      26.657  11.774   2.036  0.00  0.00     0.000 A 
HETATM   54  C   UNK N   1      27.870  11.833   1.345  0.00  0.00     0.001 A 
HETATM   55  C   UNK N   1      29.081  11.817   2.049  0.00  0.00     0.017 A 
ENDBRANCH  48  50
ENDBRANCH  47  48
ENDBRANCH  13  47
BRANCH   4  56
HETATM   56  O   UNK N   1      34.290  17.456   7.030  0.00  0.00    -0.304 OA
BRANCH  56  57
HETATM   57  C   UNK N   1      34.682  18.022   8.201  0.00  0.00     0.255 C 
HETATM   58  O   UNK N   1      35.018  19.197   8.250  0.00  0.00    -0.266 OA
HETATM   59  C   UNK N   1      34.727  17.195   9.438  0.00  0.00     0.126 C 
ENDBRANCH  56  57
ENDBRANCH   4  56
BRANCH  11  60
HETATM   60  O   UNK N   1      33.671  11.886   2.769  0.00  0.00    -0.305 OA
BRANCH  60  61
HETATM   61  C   UNK N   1      34.093  12.527   1.637  0.00  0.00     0.255 C 
HETATM   62  O   UNK N   1      33.780  13.693   1.469  0.00  0.00    -0.266 OA
HETATM   63  C   UNK N   1      34.895  11.851   0.563  0.00  0.00     0.126 C 
ENDBRANCH  60  61
ENDBRANCH  11  60
BRANCH   8  64
HETATM   64  O   UNK N   1      36.490  13.290   7.326  0.00  0.00    -0.394 OA
HETATM   65  H   UNK N   1      36.846  12.648   7.961  0.00  0.00     0.210 HD
ENDBRANCH   8  64
TORSDOF 18
ENDMDL
MODEL 6
REMARK VINA RESULT:      -6.6      7.332     12.717
REMARK  18 active torsions:
REMARK  status: ('A' for Active; 'I' for Inactive)
REMARK    1  A    between atoms: C_4  and  O_59 
REMARK    2  A    between atoms: C_8  and  O_57 
REMARK    3  A    between atoms: C_11  and  O_53 
REMARK    4  A    between atoms: C_13  and  O_42 
REMARK    5  A    between atoms: C_19  and  O_20 
REMARK    6  A    between atoms: O_20  and  C_21 
REMARK    7  A    between atoms: C_21  and  C_23 
REMARK    8  A    between atoms: C_23  and  C_24 
REMARK    9  A    between atoms: C_23  and  O_37 
REMARK   10  A    between atoms: C_24  and  C_25 
REMARK   11  A    between atoms: C_24  and  N_29 
REMARK   12  A    between atoms: C_25  and  C_26 
REMARK       I    between atoms: N_29  and  C_30 
REMARK   13  A    between atoms: C_30  and  O_32 
REMARK   14  A    between atoms: O_32  and  C_33 
REMARK   15  A    between atoms: O_42  and  C_43 
REMARK   16  A    between atoms: C_43  and  C_45 
REMARK   17  A    between atoms: O_53  and  C_54 
REMARK   18  A    between atoms: O_59  and  C_60 
ROOT
HETATM    1  C   UNK N   1      17.759  11.788   3.735  0.00  0.00     0.046 C 
HETATM    2  C   UNK N   1      19.242  11.822   3.951  0.00  0.00    -0.046 C 
HETATM    3  C   UNK N   1      20.044  12.750   3.368  0.00  0.00    -0.028 C 
HETATM    4  C   UNK N   1      19.414  13.807   2.523  0.00  0.00     0.232 C 
HETATM    5  C   UNK N   1      19.982  15.178   2.804  0.00  0.00     0.171 C 
HETATM    6  O   UNK N   1      20.430  15.812   1.855  0.00  0.00    -0.294 OA
HETATM    7  C   UNK N   1      19.993  15.810   4.216  0.00  0.00     0.055 C 
HETATM    8  C   UNK N   1      19.914  17.347   4.019  0.00  0.00     0.137 C 
HETATM    9  C   UNK N   1      21.274  17.936   3.707  0.00  0.00     0.068 C 
HETATM   10  C   UNK N   1      22.080  17.943   5.005  0.00  0.00     0.161 C 
HETATM   11  C   UNK N   1      21.946  16.678   5.844  0.00  0.00     0.125 C 
HETATM   12  C   UNK N   1      21.281  15.436   5.121  0.00  0.00     0.076 C 
HETATM   13  C   UNK N   1      21.251  14.076   5.965  0.00  0.00     0.179 C 
HETATM   14  C   UNK N   1      21.697  12.736   5.226  0.00  0.00     0.140 A 
HETATM   15  C   UNK N   1      21.551  12.728   3.672  0.00  0.00     0.016 C 
HETATM   16  C   UNK N   1      22.176  11.475   3.078  0.00  0.00     0.023 C 
HETATM   17  C   UNK N   1      22.404  13.819   3.029  0.00  0.00     0.023 C 
HETATM   18  C   UNK N   1      20.892  11.524   5.863  0.00  0.00     0.207 A 
HETATM   19  C   UNK N   1      19.852  10.882   4.942  0.00  0.00     0.194 C 
HETATM   20  O   UNK N   1      21.859  10.639   6.277  0.00  0.00    -0.286 OA
HETATM   21  C   UNK N   1      23.050  11.193   6.095  0.00  0.00     0.408 A 
HETATM   22  O   UNK N   1      24.093  10.637   6.412  0.00  0.00    -0.229 OA
HETATM   23  O   UNK N   1      23.011  12.407   5.534  0.00  0.00    -0.280 OA
HETATM   24  C   UNK N   1      21.048  17.551   6.696  0.00  0.00     0.210 C 
HETATM   25  O   UNK N   1      21.379  18.708   5.960  0.00  0.00    -0.380 OA
HETATM   26  C   UNK N   1      18.709  15.453   4.952  0.00  0.00     0.027 C 
ENDROOT
BRANCH  19  27
HETATM   27  O   UNK N   1      19.973   9.524   4.677  0.00  0.00    -0.307 OA
BRANCH  27  28
HETATM   28  C   UNK N   1      19.280   8.514   5.268  0.00  0.00     0.290 C 
HETATM   29  O   UNK N   1      18.060   8.494   5.256  0.00  0.00    -0.262 OA
BRANCH  28  30
HETATM   30  C   UNK N   1      20.021   7.392   5.931  0.00  0.00     0.240 C 
BRANCH  30  31
HETATM   31  C   UNK N   1      20.781   6.550   4.877  0.00  0.00     0.125 C 
BRANCH  31  32
HETATM   32  C   UNK N   1      19.850   6.082   3.739  0.00  0.00     0.032 C 
BRANCH  32  33
HETATM   33  C   UNK N   1      20.184   6.474   2.305  0.00  0.00    -0.021 C 
HETATM   34  C   UNK N   1      19.091   7.385   1.793  0.00  0.00     0.009 C 
HETATM   35  C   UNK N   1      20.173   5.236   1.427  0.00  0.00     0.009 C 
ENDBRANCH  32  33
ENDBRANCH  31  32
BRANCH  31  36
HETATM   36  N   UNK N   1      21.843   7.275   4.200  0.00  0.00    -0.329 N 
HETATM   37  C   UNK N   1      23.052   7.671   4.684  0.00  0.00     0.361 C 
HETATM   38  O   UNK N   1      23.810   8.272   3.941  0.00  0.00    -0.238 OA
HETATM   39  H   UNK N   1      21.663   7.513   3.262  0.00  0.00     0.165 HD
BRANCH  37  40
HETATM   40  O   UNK N   1      23.415   7.498   5.983  0.00  0.00    -0.294 OA
BRANCH  40  41
HETATM   41  C   UNK N   1      24.233   6.496   6.474  0.00  0.00     0.061 C 
HETATM   42  C   UNK N   1      23.913   6.169   7.920  0.00  0.00     0.046 C 
HETATM   43  C   UNK N   1      25.666   6.985   6.406  0.00  0.00     0.046 C 
HETATM   44  C   UNK N   1      24.120   5.237   5.632  0.00  0.00     0.046 C 
ENDBRANCH  40  41
ENDBRANCH  37  40
ENDBRANCH  31  36
ENDBRANCH  30  31
BRANCH  30  45
HETATM   45  O   UNK N   1      19.084   6.640   6.635  0.00  0.00    -0.383 OA
HETATM   46  H   UNK N   1      18.161   6.909   6.766  0.00  0.00     0.210 HD
ENDBRANCH  30  45
ENDBRANCH  28  30
ENDBRANCH  27  28
ENDBRANCH  19  27
BRANCH  13  47
HETATM   47  O   UNK N   1      22.008  14.204   7.138  0.00  0.00    -0.308 OA
BRANCH  47  48
HETATM   48  C   UNK N   1      21.564  14.001   8.417  0.00  0.00     0.293 C 
HETATM   49  O   UNK N   1      20.432  14.331   8.738  0.00  0.00    -0.259 OA
BRANCH  48  50
HETATM   50  C   UNK N   1      22.431  13.310   9.410  0.00  0.00     0.039 A 
HETATM   51  C   UNK N   1      23.809  13.207   9.197  0.00  0.00     0.017 A 
HETATM   52  C   UNK N   1      24.633  12.553  10.117  0.00  0.00     0.001 A 
HETATM   53  C   UNK N   1      24.077  11.967  11.255  0.00  0.00     0.000 A 
HETATM   54  C   UNK N   1      22.699  12.041  11.471  0.00  0.00     0.001 A 
HETATM   55  C   UNK N   1      21.879  12.715  10.556  0.00  0.00     0.017 A 
ENDBRANCH  48  50
ENDBRANCH  47  48
ENDBRANCH  13  47
BRANCH   4  56
HETATM   56  O   UNK N   1      19.502  13.459   1.190  0.00  0.00    -0.304 OA
BRANCH  56  57
HETATM   57  C   UNK N   1      18.420  13.054   0.478  0.00  0.00     0.255 C 
HETATM   58  O   UNK N   1      17.481  13.811   0.276  0.00  0.00    -0.266 OA
HETATM   59  C   UNK N   1      18.363  11.661  -0.044  0.00  0.00     0.126 C 
ENDBRANCH  56  57
ENDBRANCH   4  56
BRANCH  11  60
HETATM   60  O   UNK N   1      23.208  16.440   6.382  0.00  0.00    -0.305 OA
BRANCH  60  61
HETATM   61  C   UNK N   1      24.338  16.002   5.746  0.00  0.00     0.255 C 
HETATM   62  O   UNK N   1      24.556  16.378   4.607  0.00  0.00    -0.266 OA
HETATM   63  C   UNK N   1      25.310  15.043   6.370  0.00  0.00     0.126 C 
ENDBRANCH  60  61
ENDBRANCH  11  60
BRANCH   8  64
HETATM   64  O   UNK N   1      18.957  17.751   3.082  0.00  0.00    -0.394 OA
HETATM   65  H   UNK N   1      18.015  17.799   3.313  0.00  0.00     0.210 HD
ENDBRANCH   8  64
TORSDOF 18
ENDMDL
MODEL 7
REMARK VINA RESULT:      -6.6      1.171      2.539
REMARK  18 active torsions:
REMARK  status: ('A' for Active; 'I' for Inactive)
REMARK    1  A    between atoms: C_4  and  O_59 
REMARK    2  A    between atoms: C_8  and  O_57 
REMARK    3  A    between atoms: C_11  and  O_53 
REMARK    4  A    between atoms: C_13  and  O_42 
REMARK    5  A    between atoms: C_19  and  O_20 
REMARK    6  A    between atoms: O_20  and  C_21 
REMARK    7  A    between atoms: C_21  and  C_23 
REMARK    8  A    between atoms: C_23  and  C_24 
REMARK    9  A    between atoms: C_23  and  O_37 
REMARK   10  A    between atoms: C_24  and  C_25 
REMARK   11  A    between atoms: C_24  and  N_29 
REMARK   12  A    between atoms: C_25  and  C_26 
REMARK       I    between atoms: N_29  and  C_30 
REMARK   13  A    between atoms: C_30  and  O_32 
REMARK   14  A    between atoms: O_32  and  C_33 
REMARK   15  A    between atoms: O_42  and  C_43 
REMARK   16  A    between atoms: C_43  and  C_45 
REMARK   17  A    between atoms: O_53  and  C_54 
REMARK   18  A    between atoms: O_59  and  C_60 
ROOT
HETATM    1  C   UNK N   1      31.403  16.016   8.441  0.00  0.00     0.046 C 
HETATM    2  C   UNK N   1      31.385  15.969   6.943  0.00  0.00    -0.046 C 
HETATM    3  C   UNK N   1      32.520  16.014   6.198  0.00  0.00    -0.028 C 
HETATM    4  C   UNK N   1      33.835  16.057   6.902  0.00  0.00     0.232 C 
HETATM    5  C   UNK N   1      34.846  15.119   6.285  0.00  0.00     0.171 C 
HETATM    6  O   UNK N   1      35.921  15.593   5.937  0.00  0.00    -0.294 OA
HETATM    7  C   UNK N   1      34.586  13.605   6.106  0.00  0.00     0.055 C 
HETATM    8  C   UNK N   1      35.968  12.902   6.183  0.00  0.00     0.137 C 
HETATM    9  C   UNK N   1      36.698  12.969   4.857  0.00  0.00     0.068 C 
HETATM   10  C   UNK N   1      36.023  11.978   3.910  0.00  0.00     0.161 C 
HETATM   11  C   UNK N   1      34.500  11.978   3.969  0.00  0.00     0.125 C 
HETATM   12  C   UNK N   1      33.838  13.198   4.730  0.00  0.00     0.076 C 
HETATM   13  C   UNK N   1      32.238  13.258   4.685  0.00  0.00     0.179 C 
HETATM   14  C   UNK N   1      31.559  14.660   4.346  0.00  0.00     0.140 A 
HETATM   15  C   UNK N   1      32.408  15.929   4.666  0.00  0.00     0.016 C 
HETATM   16  C   UNK N   1      31.729  17.181   4.132  0.00  0.00     0.023 C 
HETATM   17  C   UNK N   1      33.714  15.938   3.875  0.00  0.00     0.023 C 
HETATM   18  C   UNK N   1      30.159  14.729   5.092  0.00  0.00     0.207 A 
HETATM   19  C   UNK N   1      30.085  15.739   6.240  0.00  0.00     0.194 C 
HETATM   20  O   UNK N   1      29.243  14.979   4.099  0.00  0.00    -0.286 OA
HETATM   21  C   UNK N   1      29.864  14.941   2.928  0.00  0.00     0.408 A 
HETATM   22  O   UNK N   1      29.278  15.097   1.865  0.00  0.00    -0.229 OA
HETATM   23  O   UNK N   1      31.180  14.723   3.011  0.00  0.00    -0.280 OA
HETATM   24  C   UNK N   1      34.707  10.698   4.752  0.00  0.00     0.210 C 
HETATM   25  O   UNK N   1      36.093  10.694   4.488  0.00  0.00    -0.380 OA
HETATM   26  C   UNK N   1      33.816  13.066   7.304  0.00  0.00     0.027 C 
ENDROOT
BRANCH  19  27
HETATM   27  O   UNK N   1      29.111  16.727   6.170  0.00  0.00    -0.307 OA
BRANCH  27  28
HETATM   28  C   UNK N   1      27.896  16.718   6.782  0.00  0.00     0.290 C 
HETATM   29  O   UNK N   1      27.666  17.441   7.736  0.00  0.00    -0.262 OA
BRANCH  28  30
HETATM   30  C   UNK N   1      26.812  15.819   6.268  0.00  0.00     0.240 C 
BRANCH  30  31
HETATM   31  C   UNK N   1      26.367  16.264   4.854  0.00  0.00     0.125 C 
BRANCH  31  32
HETATM   32  C   UNK N   1      26.007  15.058   3.962  0.00  0.00     0.032 C 
BRANCH  32  33
HETATM   33  C   UNK N   1      25.027  15.259   2.812  0.00  0.00    -0.021 C 
HETATM   34  C   UNK N   1      24.083  14.078   2.779  0.00  0.00     0.009 C 
HETATM   35  C   UNK N   1      25.783  15.255   1.496  0.00  0.00     0.009 C 
ENDBRANCH  32  33
ENDBRANCH  31  32
BRANCH  31  36
HETATM   36  N   UNK N   1      25.172  17.090   4.847  0.00  0.00    -0.329 N 
HETATM   37  C   UNK N   1      25.049  18.421   5.103  0.00  0.00     0.361 C 
HETATM   38  O   UNK N   1      23.942  18.929   5.039  0.00  0.00    -0.238 OA
HETATM   39  H   UNK N   1      24.334  16.622   4.627  0.00  0.00     0.165 HD
BRANCH  37  40
HETATM   40  O   UNK N   1      26.095  19.190   5.508  0.00  0.00    -0.294 OA
BRANCH  40  41
HETATM   41  C   UNK N   1      26.747  20.145   4.748  0.00  0.00     0.061 C 
HETATM   42  C   UNK N   1      26.102  20.316   3.387  0.00  0.00     0.046 C 
HETATM   43  C   UNK N   1      28.175  19.682   4.539  0.00  0.00     0.046 C 
HETATM   44  C   UNK N   1      26.782  21.482   5.466  0.00  0.00     0.046 C 
ENDBRANCH  40  41
ENDBRANCH  37  40
ENDBRANCH  31  36
ENDBRANCH  30  31
BRANCH  30  45
HETATM   45  O   UNK N   1      25.770  15.865   7.191  0.00  0.00    -0.383 OA
HETATM   46  H   UNK N   1      25.898  15.959   8.148  0.00  0.00     0.210 HD
ENDBRANCH  30  45
ENDBRANCH  28  30
ENDBRANCH  27  28
ENDBRANCH  19  27
BRANCH  13  47
HETATM   47  O   UNK N   1      31.731  12.298   3.799  0.00  0.00    -0.308 OA
BRANCH  47  48
HETATM   48  C   UNK N   1      30.679  11.453   4.033  0.00  0.00     0.293 C 
HETATM   49  O   UNK N   1      30.699  10.690   4.988  0.00  0.00    -0.259 OA
BRANCH  48  50
HETATM   50  C   UNK N   1      29.470  11.505   3.167  0.00  0.00     0.039 A 
HETATM   51  C   UNK N   1      28.196  11.605   3.734  0.00  0.00     0.017 A 
HETATM   52  C   UNK N   1      27.052  11.646   2.931  0.00  0.00     0.001 A 
HETATM   53  C   UNK N   1      27.172  11.558   1.544  0.00  0.00     0.000 A 
HETATM   54  C   UNK N   1      28.437  11.434   0.963  0.00  0.00     0.001 A 
HETATM   55  C   UNK N   1      29.582  11.414   1.769  0.00  0.00     0.017 A 
ENDBRANCH  48  50
ENDBRANCH  47  48
ENDBRANCH  13  47
BRANCH   4  56
HETATM   56  O   UNK N   1      34.291  17.358   6.969  0.00  0.00    -0.304 OA
BRANCH  56  57
HETATM   57  C   UNK N   1      34.658  17.933   8.143  0.00  0.00     0.255 C 
HETATM   58  O   UNK N   1      34.952  19.119   8.198  0.00  0.00    -0.266 OA
HETATM   59  C   UNK N   1      34.727  17.105   9.378  0.00  0.00     0.126 C 
ENDBRANCH  56  57
ENDBRANCH   4  56
BRANCH  11  60
HETATM   60  O   UNK N   1      34.067  11.797   2.658  0.00  0.00    -0.305 OA
BRANCH  60  61
HETATM   61  C   UNK N   1      34.430  12.489   1.535  0.00  0.00     0.255 C 
HETATM   62  O   UNK N   1      33.977  13.608   1.362  0.00  0.00    -0.266 OA
HETATM   63  C   UNK N   1      35.333  11.923   0.478  0.00  0.00     0.126 C 
ENDBRANCH  60  61
ENDBRANCH  11  60
BRANCH   8  64
HETATM   64  O   UNK N   1      36.775  13.352   7.233  0.00  0.00    -0.394 OA
HETATM   65  H   UNK N   1      36.423  13.448   8.132  0.00  0.00     0.210 HD
ENDBRANCH   8  64
TORSDOF 18
ENDMDL
MODEL 8
REMARK VINA RESULT:      -6.5      3.084     10.113
REMARK  18 active torsions:
REMARK  status: ('A' for Active; 'I' for Inactive)
REMARK    1  A    between atoms: C_4  and  O_59 
REMARK    2  A    between atoms: C_8  and  O_57 
REMARK    3  A    between atoms: C_11  and  O_53 
REMARK    4  A    between atoms: C_13  and  O_42 
REMARK    5  A    between atoms: C_19  and  O_20 
REMARK    6  A    between atoms: O_20  and  C_21 
REMARK    7  A    between atoms: C_21  and  C_23 
REMARK    8  A    between atoms: C_23  and  C_24 
REMARK    9  A    between atoms: C_23  and  O_37 
REMARK   10  A    between atoms: C_24  and  C_25 
REMARK   11  A    between atoms: C_24  and  N_29 
REMARK   12  A    between atoms: C_25  and  C_26 
REMARK       I    between atoms: N_29  and  C_30 
REMARK   13  A    between atoms: C_30  and  O_32 
REMARK   14  A    between atoms: O_32  and  C_33 
REMARK   15  A    between atoms: O_42  and  C_43 
REMARK   16  A    between atoms: C_43  and  C_45 
REMARK   17  A    between atoms: O_53  and  C_54 
REMARK   18  A    between atoms: O_59  and  C_60 
ROOT
HETATM    1  C   UNK N   1      26.383  13.071   5.687  0.00  0.00     0.046 C 
HETATM    2  C   UNK N   1      25.888  14.239   4.889  0.00  0.00    -0.046 C 
HETATM    3  C   UNK N   1      25.152  14.090   3.757  0.00  0.00    -0.028 C 
HETATM    4  C   UNK N   1      24.779  12.712   3.324  0.00  0.00     0.232 C 
HETATM    5  C   UNK N   1      23.335  12.617   2.895  0.00  0.00     0.171 C 
HETATM    6  O   UNK N   1      23.103  12.167   1.778  0.00  0.00    -0.294 OA
HETATM    7  C   UNK N   1      22.157  13.035   3.807  0.00  0.00     0.055 C 
HETATM    8  C   UNK N   1      20.945  12.154   3.405  0.00  0.00     0.137 C 
HETATM    9  C   UNK N   1      20.240  12.706   2.183  0.00  0.00     0.068 C 
HETATM   10  C   UNK N   1      19.452  13.939   2.625  0.00  0.00     0.161 C 
HETATM   11  C   UNK N   1      20.196  14.858   3.586  0.00  0.00     0.125 C 
HETATM   12  C   UNK N   1      21.752  14.600   3.725  0.00  0.00     0.076 C 
HETATM   13  C   UNK N   1      22.550  15.644   4.640  0.00  0.00     0.179 C 
HETATM   14  C   UNK N   1      23.921  16.228   4.075  0.00  0.00     0.140 A 
HETATM   15  C   UNK N   1      24.659  15.347   3.019  0.00  0.00     0.016 C 
HETATM   16  C   UNK N   1      25.846  16.093   2.429  0.00  0.00     0.023 C 
HETATM   17  C   UNK N   1      23.798  15.128   1.778  0.00  0.00     0.023 C 
HETATM   18  C   UNK N   1      24.877  16.536   5.305  0.00  0.00     0.207 A 
HETATM   19  C   UNK N   1      26.100  15.622   5.419  0.00  0.00     0.194 C 
HETATM   20  O   UNK N   1      25.211  17.862   5.168  0.00  0.00    -0.286 OA
HETATM   21  C   UNK N   1      24.519  18.373   4.158  0.00  0.00     0.408 A 
HETATM   22  O   UNK N   1      24.596  19.550   3.834  0.00  0.00    -0.229 OA
HETATM   23  O   UNK N   1      23.738  17.491   3.525  0.00  0.00    -0.280 OA
HETATM   24  C   UNK N   1      19.289  14.222   4.618  0.00  0.00     0.210 C 
HETATM   25  O   UNK N   1      18.543  13.548   3.630  0.00  0.00    -0.380 OA
HETATM   26  C   UNK N   1      22.454  12.642   5.247  0.00  0.00     0.027 C 
ENDROOT
BRANCH  19  27
HETATM   27  O   UNK N   1      27.354  16.218   5.416  0.00  0.00    -0.307 OA
BRANCH  27  28
HETATM   28  C   UNK N   1      27.989  16.785   6.477  0.00  0.00     0.290 C 
HETATM   29  O   UNK N   1      27.603  16.594   7.618  0.00  0.00    -0.262 OA
BRANCH  28  30
HETATM   30  C   UNK N   1      29.196  17.644   6.248  0.00  0.00     0.240 C 
BRANCH  30  31
HETATM   31  C   UNK N   1      30.489  16.798   6.354  0.00  0.00     0.125 C 
BRANCH  31  32
HETATM   32  C   UNK N   1      31.151  16.935   7.740  0.00  0.00     0.032 C 
BRANCH  32  33
HETATM   33  C   UNK N   1      32.518  17.600   7.841  0.00  0.00    -0.021 C 
HETATM   34  C   UNK N   1      33.145  17.611   6.465  0.00  0.00     0.009 C 
HETATM   35  C   UNK N   1      33.422  16.764   8.730  0.00  0.00     0.009 C 
ENDBRANCH  32  33
ENDBRANCH  31  32
BRANCH  31  36
HETATM   36  N   UNK N   1      30.271  15.370   6.196  0.00  0.00    -0.329 N 
HETATM   37  C   UNK N   1      30.627  14.558   5.163  0.00  0.00     0.361 C 
HETATM   38  O   UNK N   1      30.350  13.373   5.230  0.00  0.00    -0.238 OA
HETATM   39  H   UNK N   1      29.800  14.928   6.940  0.00  0.00     0.165 HD
BRANCH  37  40
HETATM   40  O   UNK N   1      31.203  15.029   4.025  0.00  0.00    -0.294 OA
BRANCH  40  41
HETATM   41  C   UNK N   1      32.506  14.807   3.618  0.00  0.00     0.061 C 
HETATM   42  C   UNK N   1      32.593  13.692   2.595  0.00  0.00     0.046 C 
HETATM   43  C   UNK N   1      33.313  14.396   4.834  0.00  0.00     0.046 C 
HETATM   44  C   UNK N   1      33.122  16.071   3.045  0.00  0.00     0.046 C 
ENDBRANCH  40  41
ENDBRANCH  37  40
ENDBRANCH  31  36
ENDBRANCH  30  31
BRANCH  30  45
HETATM   45  O   UNK N   1      29.155  18.669   7.190  0.00  0.00    -0.383 OA
HETATM   46  H   UNK N   1      28.480  18.741   7.884  0.00  0.00     0.210 HD
ENDBRANCH  30  45
ENDBRANCH  28  30
ENDBRANCH  27  28
ENDBRANCH  19  27
BRANCH  13  47
HETATM   47  O   UNK N   1      21.727  16.720   4.997  0.00  0.00    -0.308 OA
BRANCH  47  48
HETATM   48  C   UNK N   1      21.558  17.230   6.257  0.00  0.00     0.293 C 
HETATM   49  O   UNK N   1      21.750  18.417   6.474  0.00  0.00    -0.259 OA
BRANCH  48  50
HETATM   50  C   UNK N   1      21.068  16.358   7.359  0.00  0.00     0.039 A 
HETATM   51  C   UNK N   1      21.751  15.183   7.689  0.00  0.00     0.017 A 
HETATM   52  C   UNK N   1      21.296  14.351   8.716  0.00  0.00     0.001 A 
HETATM   53  C   UNK N   1      20.129  14.674   9.409  0.00  0.00     0.000 A 
HETATM   54  C   UNK N   1      19.422  15.833   9.075  0.00  0.00     0.001 A 
HETATM   55  C   UNK N   1      19.892  16.674   8.059  0.00  0.00     0.017 A 
ENDBRANCH  48  50
ENDBRANCH  47  48
ENDBRANCH  13  47
BRANCH   4  56
HETATM   56  O   UNK N   1      25.652  12.271   2.350  0.00  0.00    -0.304 OA
BRANCH  56  57
HETATM   57  C   UNK N   1      26.577  11.308   2.594  0.00  0.00     0.255 C 
HETATM   58  O   UNK N   1      26.238  10.161   2.852  0.00  0.00    -0.266 OA
HETATM   59  C   UNK N   1      28.025  11.655   2.571  0.00  0.00     0.126 C 
ENDBRANCH  56  57
ENDBRANCH   4  56
BRANCH  11  60
HETATM   60  O   UNK N   1      19.846  16.156   3.221  0.00  0.00    -0.305 OA
BRANCH  60  61
HETATM   61  C   UNK N   1      20.199  16.852   2.097  0.00  0.00     0.255 C 
HETATM   62  O   UNK N   1      20.475  16.232   1.084  0.00  0.00    -0.266 OA
HETATM   63  C   UNK N   1      20.302  18.349   2.058  0.00  0.00     0.126 C 
ENDBRANCH  60  61
ENDBRANCH  11  60
BRANCH   8  64
HETATM   64  O   UNK N   1      21.257  10.800   3.245  0.00  0.00    -0.394 OA
HETATM   65  H   UNK N   1      21.260  10.384   2.368  0.00  0.00     0.210 HD
ENDBRANCH   8  64
TORSDOF 18
ENDMDL
MODEL 9
REMARK VINA RESULT:      -6.4      3.184      9.706
REMARK  18 active torsions:
REMARK  status: ('A' for Active; 'I' for Inactive)
REMARK    1  A    between atoms: C_4  and  O_59 
REMARK    2  A    between atoms: C_8  and  O_57 
REMARK    3  A    between atoms: C_11  and  O_53 
REMARK    4  A    between atoms: C_13  and  O_42 
REMARK    5  A    between atoms: C_19  and  O_20 
REMARK    6  A    between atoms: O_20  and  C_21 
REMARK    7  A    between atoms: C_21  and  C_23 
REMARK    8  A    between atoms: C_23  and  C_24 
REMARK    9  A    between atoms: C_23  and  O_37 
REMARK   10  A    between atoms: C_24  and  C_25 
REMARK   11  A    between atoms: C_24  and  N_29 
REMARK   12  A    between atoms: C_25  and  C_26 
REMARK       I    between atoms: N_29  and  C_30 
REMARK   13  A    between atoms: C_30  and  O_32 
REMARK   14  A    between atoms: O_32  and  C_33 
REMARK   15  A    between atoms: O_42  and  C_43 
REMARK   16  A    between atoms: C_43  and  C_45 
REMARK   17  A    between atoms: O_53  and  C_54 
REMARK   18  A    between atoms: O_59  and  C_60 
ROOT
HETATM    1  C   UNK N   1      22.907  17.776   5.264  0.00  0.00     0.046 C 
HETATM    2  C   UNK N   1      23.608  16.487   5.569  0.00  0.00    -0.046 C 
HETATM    3  C   UNK N   1      22.974  15.429   6.137  0.00  0.00    -0.028 C 
HETATM    4  C   UNK N   1      21.513  15.538   6.417  0.00  0.00     0.232 C 
HETATM    5  C   UNK N   1      20.757  14.295   6.011  0.00  0.00     0.171 C 
HETATM    6  O   UNK N   1      20.065  13.748   6.862  0.00  0.00    -0.294 OA
HETATM    7  C   UNK N   1      20.803  13.715   4.578  0.00  0.00     0.055 C 
HETATM    8  C   UNK N   1      19.445  13.003   4.339  0.00  0.00     0.137 C 
HETATM    9  C   UNK N   1      19.435  11.612   4.940  0.00  0.00     0.068 C 
HETATM   10  C   UNK N   1      20.289  10.718   4.041  0.00  0.00     0.161 C 
HETATM   11  C   UNK N   1      21.585  11.356   3.556  0.00  0.00     0.125 C 
HETATM   12  C   UNK N   1      22.020  12.686   4.296  0.00  0.00     0.076 C 
HETATM   13  C   UNK N   1      23.442  13.286   3.868  0.00  0.00     0.179 C 
HETATM   14  C   UNK N   1      24.433  13.746   5.029  0.00  0.00     0.140 A 
HETATM   15  C   UNK N   1      23.766  14.133   6.385  0.00  0.00     0.016 C 
HETATM   16  C   UNK N   1      24.820  14.374   7.455  0.00  0.00     0.023 C 
HETATM   17  C   UNK N   1      22.999  12.957   6.983  0.00  0.00     0.023 C 
HETATM   18  C   UNK N   1      25.316  14.947   4.483  0.00  0.00     0.207 A 
HETATM   19  C   UNK N   1      25.024  16.308   5.121  0.00  0.00     0.194 C 
HETATM   20  O   UNK N   1      26.615  14.539   4.665  0.00  0.00    -0.286 OA
HETATM   21  C   UNK N   1      26.611  13.286   5.098  0.00  0.00     0.408 A 
HETATM   22  O   UNK N   1      27.640  12.657   5.311  0.00  0.00    -0.229 OA
HETATM   23  O   UNK N   1      25.390  12.773   5.285  0.00  0.00    -0.280 OA
HETATM   24  C   UNK N   1      20.821  11.500   2.256  0.00  0.00     0.210 C 
HETATM   25  O   UNK N   1      19.738  10.738   2.743  0.00  0.00    -0.380 OA
HETATM   26  C   UNK N   1      20.825  14.848   3.561  0.00  0.00     0.027 C 
ENDROOT
BRANCH  19  27
HETATM   27  O   UNK N   1      26.074  16.967   5.746  0.00  0.00    -0.307 OA
BRANCH  27  28
HETATM   28  C   UNK N   1      26.783  18.020   5.255  0.00  0.00     0.290 C 
HETATM   29  O   UNK N   1      26.509  19.166   5.569  0.00  0.00    -0.262 OA
BRANCH  28  30
HETATM   30  C   UNK N   1      27.934  17.772   4.328  0.00  0.00     0.240 C 
BRANCH  30  31
HETATM   31  C   UNK N   1      29.142  17.197   5.107  0.00  0.00     0.125 C 
BRANCH  31  32
HETATM   32  C   UNK N   1      30.481  17.542   4.423  0.00  0.00     0.032 C 
BRANCH  32  33
HETATM   33  C   UNK N   1      31.336  16.411   3.866  0.00  0.00    -0.021 C 
HETATM   34  C   UNK N   1      32.286  16.991   2.841  0.00  0.00     0.009 C 
HETATM   35  C   UNK N   1      30.450  15.420   3.132  0.00  0.00     0.009 C 
ENDBRANCH  32  33
ENDBRANCH  31  32
BRANCH  31  36
HETATM   36  N   UNK N   1      29.277  17.726   6.453  0.00  0.00    -0.329 N 
HETATM   37  C   UNK N   1      29.988  17.228   7.502  0.00  0.00     0.361 C 
HETATM   38  O   UNK N   1      29.972  17.836   8.560  0.00  0.00    -0.238 OA
HETATM   39  H   UNK N   1      28.786  18.562   6.633  0.00  0.00     0.165 HD
BRANCH  37  40
HETATM   40  O   UNK N   1      30.645  16.040   7.444  0.00  0.00    -0.294 OA
BRANCH  40  41
HETATM   41  C   UNK N   1      32.006  15.852   7.611  0.00  0.00     0.061 C 
HETATM   42  C   UNK N   1      32.517  14.690   6.782  0.00  0.00     0.046 C 
HETATM   43  C   UNK N   1      32.260  15.538   9.072  0.00  0.00     0.046 C 
HETATM   44  C   UNK N   1      32.778  17.110   7.254  0.00  0.00     0.046 C 
ENDBRANCH  40  41
ENDBRANCH  37  40
ENDBRANCH  31  36
ENDBRANCH  30  31
BRANCH  30  45
HETATM   45  O   UNK N   1      28.230  18.983   3.708  0.00  0.00    -0.383 OA
HETATM   46  H   UNK N   1      29.128  19.271   3.480  0.00  0.00     0.210 HD
ENDBRANCH  30  45
ENDBRANCH  28  30
ENDBRANCH  27  28
ENDBRANCH  19  27
BRANCH  13  47
HETATM   47  O   UNK N   1      24.126  12.390   3.035  0.00  0.00    -0.308 OA
BRANCH  47  48
HETATM   48  C   UNK N   1      24.792  12.702   1.880  0.00  0.00     0.293 C 
HETATM   49  O   UNK N   1      24.342  13.542   1.114  0.00  0.00    -0.259 OA
BRANCH  48  50
HETATM   50  C   UNK N   1      26.107  12.073   1.580  0.00  0.00     0.039 A 
HETATM   51  C   UNK N   1      27.291  12.802   1.722  0.00  0.00     0.017 A 
HETATM   52  C   UNK N   1      28.531  12.225   1.435  0.00  0.00     0.001 A 
HETATM   53  C   UNK N   1      28.596  10.911   0.971  0.00  0.00     0.000 A 
HETATM   54  C   UNK N   1      27.420  10.176   0.801  0.00  0.00     0.001 A 
HETATM   55  C   UNK N   1      26.181  10.751   1.110  0.00  0.00     0.017 A 
ENDBRANCH  48  50
ENDBRANCH  47  48
ENDBRANCH  13  47
BRANCH   4  56
HETATM   56  O   UNK N   1      21.310  15.873   7.741  0.00  0.00    -0.304 OA
BRANCH  56  57
HETATM   57  C   UNK N   1      20.429  16.836   8.114  0.00  0.00     0.255 C 
HETATM   58  O   UNK N   1      20.627  18.011   7.837  0.00  0.00    -0.266 OA
HETATM   59  C   UNK N   1      19.216  16.461   8.891  0.00  0.00     0.126 C 
ENDBRANCH  56  57
ENDBRANCH   4  56
BRANCH  11  60
HETATM   60  O   UNK N   1      22.537  10.339   3.564  0.00  0.00    -0.305 OA
BRANCH  60  61
HETATM   61  C   UNK N   1      22.824   9.446   4.560  0.00  0.00     0.255 C 
HETATM   62  O   UNK N   1      23.425   9.837   5.546  0.00  0.00    -0.266 OA
HETATM   63  C   UNK N   1      22.469   7.990   4.482  0.00  0.00     0.126 C 
ENDBRANCH  60  61
ENDBRANCH  11  60
BRANCH   8  64
HETATM   64  O   UNK N   1      18.335  13.746   4.755  0.00  0.00    -0.394 OA
HETATM   65  H   UNK N   1      17.910  13.578   5.612  0.00  0.00     0.210 HD
ENDBRANCH   8  64
TORSDOF 18
ENDMDL
