REMARK  6 active torsions:
REMARK  status: ('A' for Active; 'I' for Inactive)
REMARK    1  A    between atoms: C_2  and  S_4 
REMARK    2  A    between atoms: S_4  and  N_7 
REMARK    3  A    between atoms: C_8  and  N_7 
REMARK    4  A    between atoms: C_12  and  O_13 
REMARK    5  A    between atoms: O_13  and  C_14 
REMARK    6  A    between atoms: C_17  and  C_20 
ROOT
HETATM    1  C   UNK N   1      -1.333   2.598  -0.234  0.00  0.00     0.016 A 
HETATM    2  C   UNK N   1      -2.201   3.411   0.510  0.00  0.00     0.022 A 
HETATM    3  C   UNK N   1      -1.689   4.748   0.673  0.00  0.00     0.031 A 
HETATM    4  C   UNK N   1      -0.436   4.928   0.077  0.00  0.00     0.086 A 
HETATM    5  S   UNK N   1      -0.026   3.529  -0.647  0.00  0.00    -0.079 SA
HETATM    6  C   UNK N   1       0.494   6.020   0.152  0.00  0.00     0.107 C 
HETATM    7  N   UNK N   1       1.263   6.895   0.202  0.00  0.00    -0.191 NA
ENDROOT
BRANCH   1   8
HETATM    8  C   UNK N   1      -1.279   1.136  -0.395  0.00  0.00    -0.019 A 
HETATM    9  C   UNK N   1      -2.129   0.221   0.269  0.00  0.00     0.015 A 
HETATM   10  C   UNK N   1      -1.758  -1.147   0.317  0.00  0.00     0.037 A 
HETATM   11  C   UNK N   1      -0.544  -1.566  -0.284  0.00  0.00     0.069 A 
HETATM   12  C   UNK N   1       0.206  -0.651  -1.014  0.00  0.00     0.037 A 
HETATM   13  C   UNK N   1      -0.146   0.664  -1.058  0.00  0.00     0.015 A 
BRANCH  11  14
HETATM   14  O   UNK N   1      -0.054  -2.820  -0.107  0.00  0.00    -0.342 OA
BRANCH  14  15
HETATM   15  C   UNK N   1       1.201  -3.221  -0.579  0.00  0.00     0.178 C 
HETATM   16  C   UNK N   1       1.479  -4.648  -0.140  0.00  0.00     0.202 C 
HETATM   17  O   UNK N   1       2.691  -4.677   0.580  0.00  0.00    -0.386 OA
HETATM   18  C   UNK N   1       3.391  -3.549   0.139  0.00  0.00     0.196 C 
HETATM   19  C   UNK N   1       2.371  -2.453   0.038  0.00  0.00     0.148 C 
BRANCH  19  20
HETATM   20  N   UNK N   1       2.892  -1.373  -0.814  0.00  0.00    -0.310 N 
HETATM   21  H   UNK N   1       2.753  -1.292  -1.821  0.00  0.00     0.172 HD
BRANCH  20  22
HETATM   22  S   UNK N   1       3.811  -0.224   0.205  0.00  0.00     0.230 S 
HETATM   23  O   UNK N   1       2.798   0.238   1.273  0.00  0.00    -0.206 OA
HETATM   24  O   UNK N   1       4.769  -1.083   1.051  0.00  0.00    -0.206 OA
BRANCH  22  25
HETATM   25  C   UNK N   1       4.675   1.220  -0.540  0.00  0.00     0.121 C 
HETATM   26  C   UNK N   1       4.042   2.525  -0.084  0.00  0.00     0.027 C 
HETATM   27  C   UNK N   1       6.135   1.222  -0.107  0.00  0.00     0.027 C 
ENDBRANCH  22  25
ENDBRANCH  20  22
ENDBRANCH  19  20
ENDBRANCH  14  15
ENDBRANCH  11  14
ENDBRANCH   1   8
TORSDOF 6
