MODEL 1
REMARK VINA RESULT:      -6.5      0.000      0.000
REMARK  3 active torsions:
REMARK  status: ('A' for Active; 'I' for Inactive)
REMARK    1  A    between atoms: C_4  and  C_7 
REMARK    2  A    between atoms: C_7  and  C_8 
REMARK       I    between atoms: C_8  and  N_10 
REMARK    3  A    between atoms: C_11  and  N_10 
ROOT
HETATM    1  C   UNK N   1      20.701  14.221   8.546  0.00  0.00     0.222 C 
HETATM    2  O   UNK N   1      20.360  13.524   7.600  0.00  0.00    -0.273 OA
HETATM    3  N   UNK N   1      21.140  15.491   8.352  0.00  0.00    -0.348 N 
HETATM    4  H   UNK N   1      21.335  16.040   9.145  0.00  0.00     0.163 HD
ENDROOT
BRANCH   3   5
HETATM    5  C   UNK N   1      21.339  16.087   7.043  0.00  0.00     0.177 C 
HETATM    6  C   UNK N   1      22.735  15.860   6.481  0.00  0.00     0.044 C 
HETATM    7  C   UNK N   1      22.830  16.496   5.091  0.00  0.00     0.106 C 
HETATM    8  C   UNK N   1      22.308  17.915   5.086  0.00  0.00     0.224 C 
HETATM    9  O   UNK N   1      22.655  18.673   4.196  0.00  0.00    -0.273 OA
HETATM   10  N   UNK N   1      21.470  18.364   6.055  0.00  0.00    -0.296 N 
HETATM   11  C   UNK N   1      21.004  17.561   7.043  0.00  0.00     0.247 C 
HETATM   12  H   UNK N   1      21.189  19.308   6.040  0.00  0.00     0.171 HD
HETATM   13  O   UNK N   1      20.303  18.033   7.923  0.00  0.00    -0.271 OA
ENDBRANCH   3   5
BRANCH   1  14
HETATM   14  C   UNK N   1      20.724  13.646   9.927  0.00  0.00     0.141 C 
BRANCH  14  15
HETATM   15  C   UNK N   1      22.081  13.090  10.233  0.00  0.00    -0.050 A 
HETATM   16  C   UNK N   1      23.144  13.332   9.357  0.00  0.00     0.007 A 
HETATM   17  C   UNK N   1      24.419  12.834   9.647  0.00  0.00     0.001 A 
HETATM   18  C   UNK N   1      24.636  12.101  10.818  0.00  0.00     0.000 A 
HETATM   19  C   UNK N   1      23.575  11.854  11.695  0.00  0.00     0.001 A 
HETATM   20  C   UNK N   1      22.300  12.344  11.401  0.00  0.00     0.007 A 
ENDBRANCH  14  15
ENDBRANCH   1  14
TORSDOF 3
ENDMDL
MODEL 2
REMARK VINA RESULT:      -6.5     12.925     14.628
REMARK  3 active torsions:
REMARK  status: ('A' for Active; 'I' for Inactive)
REMARK    1  A    between atoms: C_4  and  C_7 
REMARK    2  A    between atoms: C_7  and  C_8 
REMARK       I    between atoms: C_8  and  N_10 
REMARK    3  A    between atoms: C_11  and  N_10 
ROOT
HETATM    1  C   UNK N   1      35.655  13.452  13.368  0.00  0.00     0.222 C 
HETATM    2  O   UNK N   1      34.484  13.133  13.525  0.00  0.00    -0.273 OA
HETATM    3  N   UNK N   1      36.054  14.110  12.249  0.00  0.00    -0.348 N 
HETATM    4  H   UNK N   1      36.990  14.411  12.197  0.00  0.00     0.163 HD
ENDROOT
BRANCH   3   5
HETATM    5  C   UNK N   1      35.181  14.396  11.125  0.00  0.00     0.177 C 
HETATM    6  C   UNK N   1      34.954  13.198  10.215  0.00  0.00     0.044 C 
HETATM    7  C   UNK N   1      33.998  13.594   9.086  0.00  0.00     0.106 C 
HETATM    8  C   UNK N   1      34.414  14.891   8.427  0.00  0.00     0.224 C 
HETATM    9  O   UNK N   1      34.012  15.141   7.303  0.00  0.00    -0.273 OA
HETATM   10  N   UNK N   1      35.230  15.774   9.057  0.00  0.00    -0.296 N 
HETATM   11  C   UNK N   1      35.670  15.581  10.325  0.00  0.00     0.247 C 
HETATM   12  H   UNK N   1      35.513  16.585   8.575  0.00  0.00     0.171 HD
HETATM   13  O   UNK N   1      36.453  16.377  10.818  0.00  0.00    -0.271 OA
ENDBRANCH   3   5
BRANCH   1  14
HETATM   14  C   UNK N   1      36.682  13.036  14.373  0.00  0.00     0.141 C 
BRANCH  14  15
HETATM   15  C   UNK N   1      36.560  13.870  15.612  0.00  0.00    -0.050 A 
HETATM   16  C   UNK N   1      37.280  15.063  15.721  0.00  0.00     0.007 A 
HETATM   17  C   UNK N   1      37.154  15.857  16.865  0.00  0.00     0.001 A 
HETATM   18  C   UNK N   1      36.300  15.464  17.901  0.00  0.00     0.000 A 
HETATM   19  C   UNK N   1      35.580  14.270  17.797  0.00  0.00     0.001 A 
HETATM   20  C   UNK N   1      35.713  13.472  16.658  0.00  0.00     0.007 A 
ENDBRANCH  14  15
ENDBRANCH   1  14
TORSDOF 3
ENDMDL
MODEL 3
REMARK VINA RESULT:      -6.5     17.580     19.022
REMARK  3 active torsions:
REMARK  status: ('A' for Active; 'I' for Inactive)
REMARK    1  A    between atoms: C_4  and  C_7 
REMARK    2  A    between atoms: C_7  and  C_8 
REMARK       I    between atoms: C_8  and  N_10 
REMARK    3  A    between atoms: C_11  and  N_10 
ROOT
HETATM    1  C   UNK N   1      25.431  25.229  -5.506  0.00  0.00     0.222 C 
HETATM    2  O   UNK N   1      25.950  24.837  -4.470  0.00  0.00    -0.273 OA
HETATM    3  N   UNK N   1      25.481  24.479  -6.637  0.00  0.00    -0.348 N 
HETATM    4  H   UNK N   1      24.988  24.798  -7.427  0.00  0.00     0.163 HD
ENDROOT
BRANCH   3   5
HETATM    5  C   UNK N   1      26.216  23.232  -6.749  0.00  0.00     0.177 C 
HETATM    6  C   UNK N   1      27.705  23.428  -6.992  0.00  0.00     0.044 C 
HETATM    7  C   UNK N   1      28.391  22.061  -7.061  0.00  0.00     0.106 C 
HETATM    8  C   UNK N   1      27.661  21.112  -7.986  0.00  0.00     0.224 C 
HETATM    9  O   UNK N   1      28.258  20.154  -8.446  0.00  0.00    -0.273 OA
HETATM   10  N   UNK N   1      26.360  21.311  -8.319  0.00  0.00    -0.296 N 
HETATM   11  C   UNK N   1      25.623  22.326  -7.803  0.00  0.00     0.247 C 
HETATM   12  H   UNK N   1      25.935  20.695  -8.959  0.00  0.00     0.171 HD
HETATM   13  O   UNK N   1      24.477  22.493  -8.187  0.00  0.00    -0.271 OA
ENDBRANCH   3   5
BRANCH   1  14
HETATM   14  C   UNK N   1      24.812  26.590  -5.562  0.00  0.00     0.141 C 
BRANCH  14  15
HETATM   15  C   UNK N   1      25.876  27.644  -5.522  0.00  0.00    -0.050 A 
HETATM   16  C   UNK N   1      25.938  28.527  -4.439  0.00  0.00     0.007 A 
HETATM   17  C   UNK N   1      26.942  29.500  -4.384  0.00  0.00     0.001 A 
HETATM   18  C   UNK N   1      27.892  29.586  -5.407  0.00  0.00     0.000 A 
HETATM   19  C   UNK N   1      27.832  28.706  -6.492  0.00  0.00     0.001 A 
HETATM   20  C   UNK N   1      26.824  27.741  -6.552  0.00  0.00     0.007 A 
ENDBRANCH  14  15
ENDBRANCH   1  14
TORSDOF 3
ENDMDL
MODEL 4
REMARK VINA RESULT:      -6.5     15.852     17.588
REMARK  3 active torsions:
REMARK  status: ('A' for Active; 'I' for Inactive)
REMARK    1  A    between atoms: C_4  and  C_7 
REMARK    2  A    between atoms: C_7  and  C_8 
REMARK       I    between atoms: C_8  and  N_10 
REMARK    3  A    between atoms: C_11  and  N_10 
ROOT
HETATM    1  C   UNK N   1      28.455  24.035  -3.686  0.00  0.00     0.222 C 
HETATM    2  O   UNK N   1      28.955  24.822  -4.479  0.00  0.00    -0.273 OA
HETATM    3  N   UNK N   1      29.077  22.868  -3.377  0.00  0.00    -0.348 N 
HETATM    4  H   UNK N   1      28.677  22.300  -2.680  0.00  0.00     0.163 HD
ENDROOT
BRANCH   3   5
HETATM    5  C   UNK N   1      30.298  22.409  -4.014  0.00  0.00     0.177 C 
HETATM    6  C   UNK N   1      30.071  21.295  -5.025  0.00  0.00     0.044 C 
HETATM    7  C   UNK N   1      31.410  20.908  -5.660  0.00  0.00     0.106 C 
HETATM    8  C   UNK N   1      32.483  20.684  -4.618  0.00  0.00     0.224 C 
HETATM    9  O   UNK N   1      33.462  20.017  -4.907  0.00  0.00    -0.273 OA
HETATM   10  N   UNK N   1      32.374  21.203  -3.369  0.00  0.00    -0.296 N 
HETATM   11  C   UNK N   1      31.338  21.996  -2.998  0.00  0.00     0.247 C 
HETATM   12  H   UNK N   1      33.073  20.996  -2.706  0.00  0.00     0.171 HD
HETATM   13  O   UNK N   1      31.259  22.383  -1.843  0.00  0.00    -0.271 OA
ENDBRANCH   3   5
BRANCH   1  14
HETATM   14  C   UNK N   1      27.102  24.312  -3.113  0.00  0.00     0.141 C 
BRANCH  14  15
HETATM   15  C   UNK N   1      26.423  25.398  -3.892  0.00  0.00    -0.050 A 
HETATM   16  C   UNK N   1      25.847  25.107  -5.132  0.00  0.00     0.007 A 
HETATM   17  C   UNK N   1      25.193  26.111  -5.855  0.00  0.00     0.001 A 
HETATM   18  C   UNK N   1      25.107  27.406  -5.335  0.00  0.00     0.000 A 
HETATM   19  C   UNK N   1      25.684  27.702  -4.096  0.00  0.00     0.001 A 
HETATM   20  C   UNK N   1      26.344  26.702  -3.378  0.00  0.00     0.007 A 
ENDBRANCH  14  15
ENDBRANCH   1  14
TORSDOF 3
ENDMDL
MODEL 5
REMARK VINA RESULT:      -6.4      2.010      2.349
REMARK  3 active torsions:
REMARK  status: ('A' for Active; 'I' for Inactive)
REMARK    1  A    between atoms: C_4  and  C_7 
REMARK    2  A    between atoms: C_7  and  C_8 
REMARK       I    between atoms: C_8  and  N_10 
REMARK    3  A    between atoms: C_11  and  N_10 
ROOT
HETATM    1  C   UNK N   1      20.348  14.463   7.872  0.00  0.00     0.222 C 
HETATM    2  O   UNK N   1      20.352  13.391   7.281  0.00  0.00    -0.273 OA
HETATM    3  N   UNK N   1      20.367  15.635   7.187  0.00  0.00    -0.348 N 
HETATM    4  H   UNK N   1      20.289  16.472   7.700  0.00  0.00     0.163 HD
ENDROOT
BRANCH   3   5
HETATM    5  C   UNK N   1      20.496  15.728   5.744  0.00  0.00     0.177 C 
HETATM    6  C   UNK N   1      21.588  16.687   5.294  0.00  0.00     0.044 C 
HETATM    7  C   UNK N   1      21.664  16.686   3.765  0.00  0.00     0.106 C 
HETATM    8  C   UNK N   1      20.299  16.851   3.134  0.00  0.00     0.224 C 
HETATM    9  O   UNK N   1      20.220  17.250   1.985  0.00  0.00    -0.273 OA
HETATM   10  N   UNK N   1      19.163  16.574   3.824  0.00  0.00    -0.296 N 
HETATM   11  C   UNK N   1      19.181  16.078   5.087  0.00  0.00     0.247 C 
HETATM   12  H   UNK N   1      18.293  16.738   3.392  0.00  0.00     0.171 HD
HETATM   13  O   UNK N   1      18.129  15.907   5.681  0.00  0.00    -0.271 OA
ENDBRANCH   3   5
BRANCH   1  14
HETATM   14  C   UNK N   1      20.413  14.491   9.366  0.00  0.00     0.141 C 
BRANCH  14  15
HETATM   15  C   UNK N   1      21.534  13.622   9.851  0.00  0.00    -0.050 A 
HETATM   16  C   UNK N   1      21.278  12.619  10.790  0.00  0.00     0.007 A 
HETATM   17  C   UNK N   1      22.316  11.790  11.231  0.00  0.00     0.001 A 
HETATM   18  C   UNK N   1      23.609  11.958  10.726  0.00  0.00     0.000 A 
HETATM   19  C   UNK N   1      23.870  12.961   9.789  0.00  0.00     0.001 A 
HETATM   20  C   UNK N   1      22.836  13.795   9.355  0.00  0.00     0.007 A 
ENDBRANCH  14  15
ENDBRANCH   1  14
TORSDOF 3
ENDMDL
MODEL 6
REMARK VINA RESULT:      -6.4     13.400     14.552
REMARK  3 active torsions:
REMARK  status: ('A' for Active; 'I' for Inactive)
REMARK    1  A    between atoms: C_4  and  C_7 
REMARK    2  A    between atoms: C_7  and  C_8 
REMARK       I    between atoms: C_8  and  N_10 
REMARK    3  A    between atoms: C_11  and  N_10 
ROOT
HETATM    1  C   UNK N   1      35.824  14.193  13.424  0.00  0.00     0.222 C 
HETATM    2  O   UNK N   1      34.818  13.496  13.412  0.00  0.00    -0.273 OA
HETATM    3  N   UNK N   1      36.222  14.860  12.311  0.00  0.00    -0.348 N 
HETATM    4  H   UNK N   1      36.994  15.467  12.385  0.00  0.00     0.163 HD
ENDROOT
BRANCH   3   5
HETATM    5  C   UNK N   1      35.574  14.734  11.017  0.00  0.00     0.177 C 
HETATM    6  C   UNK N   1      36.326  13.832  10.050  0.00  0.00     0.044 C 
HETATM    7  C   UNK N   1      35.548  13.739   8.735  0.00  0.00     0.106 C 
HETATM    8  C   UNK N   1      35.137  15.103   8.227  0.00  0.00     0.224 C 
HETATM    9  O   UNK N   1      34.866  15.241   7.047  0.00  0.00    -0.273 OA
HETATM   10  N   UNK N   1      35.075  16.177   9.056  0.00  0.00    -0.296 N 
HETATM   11  C   UNK N   1      35.314  16.083  10.388  0.00  0.00     0.247 C 
HETATM   12  H   UNK N   1      34.848  17.057   8.677  0.00  0.00     0.171 HD
HETATM   13  O   UNK N   1      35.306  17.092  11.074  0.00  0.00    -0.271 OA
ENDBRANCH   3   5
BRANCH   1  14
HETATM   14  C   UNK N   1      36.682  14.244  14.649  0.00  0.00     0.141 C 
BRANCH  14  15
HETATM   15  C   UNK N   1      36.308  13.139  15.589  0.00  0.00    -0.050 A 
HETATM   16  C   UNK N   1      36.783  11.843  15.362  0.00  0.00     0.007 A 
HETATM   17  C   UNK N   1      36.455  10.811  16.248  0.00  0.00     0.001 A 
HETATM   18  C   UNK N   1      35.658  11.074  17.367  0.00  0.00     0.000 A 
HETATM   19  C   UNK N   1      35.179  12.367  17.595  0.00  0.00     0.001 A 
HETATM   20  C   UNK N   1      35.499  13.397  16.706  0.00  0.00     0.007 A 
ENDBRANCH  14  15
ENDBRANCH   1  14
TORSDOF 3
ENDMDL
MODEL 7
REMARK VINA RESULT:      -6.3     11.300     13.317
REMARK  3 active torsions:
REMARK  status: ('A' for Active; 'I' for Inactive)
REMARK    1  A    between atoms: C_4  and  C_7 
REMARK    2  A    between atoms: C_7  and  C_8 
REMARK       I    between atoms: C_8  and  N_10 
REMARK    3  A    between atoms: C_11  and  N_10 
ROOT
HETATM    1  C   UNK N   1      32.822  16.170   8.338  0.00  0.00     0.222 C 
HETATM    2  O   UNK N   1      32.848  15.031   7.891  0.00  0.00    -0.273 OA
HETATM    3  N   UNK N   1      33.650  16.541   9.348  0.00  0.00    -0.348 N 
HETATM    4  H   UNK N   1      33.647  17.485   9.626  0.00  0.00     0.163 HD
ENDROOT
BRANCH   3   5
HETATM    5  C   UNK N   1      34.541  15.627  10.041  0.00  0.00     0.177 C 
HETATM    6  C   UNK N   1      33.818  14.683  10.990  0.00  0.00     0.044 C 
HETATM    7  C   UNK N   1      34.837  13.744  11.642  0.00  0.00     0.106 C 
HETATM    8  C   UNK N   1      36.026  14.500  12.194  0.00  0.00     0.224 C 
HETATM    9  O   UNK N   1      36.714  13.979  13.055  0.00  0.00    -0.273 OA
HETATM   10  N   UNK N   1      36.335  15.747  11.756  0.00  0.00    -0.296 N 
HETATM   11  C   UNK N   1      35.644  16.363  10.766  0.00  0.00     0.247 C 
HETATM   12  H   UNK N   1      37.090  16.223  12.173  0.00  0.00     0.171 HD
HETATM   13  O   UNK N   1      35.927  17.509  10.456  0.00  0.00    -0.271 OA
ENDBRANCH   3   5
BRANCH   1  14
HETATM   14  C   UNK N   1      31.807  17.146   7.833  0.00  0.00     0.141 C 
BRANCH  14  15
HETATM   15  C   UNK N   1      31.840  17.198   6.335  0.00  0.00    -0.050 A 
HETATM   16  C   UNK N   1      33.026  17.538   5.678  0.00  0.00     0.007 A 
HETATM   17  C   UNK N   1      33.069  17.568   4.280  0.00  0.00     0.001 A 
HETATM   18  C   UNK N   1      31.929  17.247   3.536  0.00  0.00     0.000 A 
HETATM   19  C   UNK N   1      30.740  16.908   4.190  0.00  0.00     0.001 A 
HETATM   20  C   UNK N   1      30.694  16.888   5.586  0.00  0.00     0.007 A 
ENDBRANCH  14  15
ENDBRANCH   1  14
TORSDOF 3
ENDMDL
MODEL 8
REMARK VINA RESULT:      -6.3     14.944     15.481
REMARK  3 active torsions:
REMARK  status: ('A' for Active; 'I' for Inactive)
REMARK    1  A    between atoms: C_4  and  C_7 
REMARK    2  A    between atoms: C_7  and  C_8 
REMARK       I    between atoms: C_8  and  N_10 
REMARK    3  A    between atoms: C_11  and  N_10 
ROOT
HETATM    1  C   UNK N   1      36.105  13.955  13.448  0.00  0.00     0.222 C 
HETATM    2  O   UNK N   1      34.921  13.714  13.257  0.00  0.00    -0.273 OA
HETATM    3  N   UNK N   1      37.005  13.867  12.435  0.00  0.00    -0.348 N 
HETATM    4  H   UNK N   1      37.934  14.140  12.615  0.00  0.00     0.163 HD
ENDROOT
BRANCH   3   5
HETATM    5  C   UNK N   1      36.679  13.395  11.101  0.00  0.00     0.177 C 
HETATM    6  C   UNK N   1      37.506  12.195  10.665  0.00  0.00     0.044 C 
HETATM    7  C   UNK N   1      37.063  11.757   9.266  0.00  0.00     0.106 C 
HETATM    8  C   UNK N   1      36.987  12.926   8.309  0.00  0.00     0.224 C 
HETATM    9  O   UNK N   1      37.031  12.715   7.109  0.00  0.00    -0.273 OA
HETATM   10  N   UNK N   1      36.880  14.202   8.759  0.00  0.00    -0.296 N 
HETATM   11  C   UNK N   1      36.774  14.503  10.077  0.00  0.00     0.247 C 
HETATM   12  H   UNK N   1      36.879  14.938   8.104  0.00  0.00     0.171 HD
HETATM   13  O   UNK N   1      36.744  15.671  10.428  0.00  0.00    -0.271 OA
ENDBRANCH   3   5
BRANCH   1  14
HETATM   14  C   UNK N   1      36.592  14.262  14.829  0.00  0.00     0.141 C 
BRANCH  14  15
HETATM   15  C   UNK N   1      36.258  13.134  15.757  0.00  0.00    -0.050 A 
HETATM   16  C   UNK N   1      35.488  13.379  16.898  0.00  0.00     0.007 A 
HETATM   17  C   UNK N   1      35.155  12.327  17.758  0.00  0.00     0.001 A 
HETATM   18  C   UNK N   1      35.583  11.026  17.473  0.00  0.00     0.000 A 
HETATM   19  C   UNK N   1      36.356  10.778  16.335  0.00  0.00     0.001 A 
HETATM   20  C   UNK N   1      36.696  11.830  15.481  0.00  0.00     0.007 A 
ENDBRANCH  14  15
ENDBRANCH   1  14
TORSDOF 3
ENDMDL
MODEL 9
REMARK VINA RESULT:      -6.2     14.856     16.082
REMARK  3 active torsions:
REMARK  status: ('A' for Active; 'I' for Inactive)
REMARK    1  A    between atoms: C_4  and  C_7 
REMARK    2  A    between atoms: C_7  and  C_8 
REMARK       I    between atoms: C_8  and  N_10 
REMARK    3  A    between atoms: C_11  and  N_10 
ROOT
HETATM    1  C   UNK N   1      35.647  13.481  15.329  0.00  0.00     0.222 C 
HETATM    2  O   UNK N   1      36.657  14.049  15.721  0.00  0.00    -0.273 OA
HETATM    3  N   UNK N   1      35.439  13.267  14.004  0.00  0.00    -0.348 N 
HETATM    4  H   UNK N   1      34.650  12.742  13.738  0.00  0.00     0.163 HD
ENDROOT
BRANCH   3   5
HETATM    5  C   UNK N   1      36.312  13.767  12.957  0.00  0.00     0.177 C 
HETATM    6  C   UNK N   1      35.561  14.373  11.781  0.00  0.00     0.044 C 
HETATM    7  C   UNK N   1      36.568  14.896  10.753  0.00  0.00     0.106 C 
HETATM    8  C   UNK N   1      37.633  13.870  10.436  0.00  0.00     0.224 C 
HETATM    9  O   UNK N   1      38.259  13.967   9.394  0.00  0.00    -0.273 OA
HETATM   10  N   UNK N   1      37.898  12.842  11.281  0.00  0.00    -0.296 N 
HETATM   11  C   UNK N   1      37.275  12.705  12.478  0.00  0.00     0.247 C 
HETATM   12  H   UNK N   1      38.567  12.170  11.016  0.00  0.00     0.171 HD
HETATM   13  O   UNK N   1      37.508  11.727  13.170  0.00  0.00    -0.271 OA
ENDBRANCH   3   5
BRANCH   1  14
HETATM   14  C   UNK N   1      34.581  13.094  16.305  0.00  0.00     0.141 C 
BRANCH  14  15
HETATM   15  C   UNK N   1      35.166  12.263  17.406  0.00  0.00    -0.050 A 
HETATM   16  C   UNK N   1      35.130  12.730  18.723  0.00  0.00     0.007 A 
HETATM   17  C   UNK N   1      35.655  11.950  19.759  0.00  0.00     0.001 A 
HETATM   18  C   UNK N   1      36.208  10.696  19.480  0.00  0.00     0.000 A 
HETATM   19  C   UNK N   1      36.248  10.226  18.164  0.00  0.00     0.001 A 
HETATM   20  C   UNK N   1      35.733  11.009  17.129  0.00  0.00     0.007 A 
ENDBRANCH  14  15
ENDBRANCH   1  14
TORSDOF 3
ENDMDL
