REMARK  15 active torsions:
REMARK  status: ('A' for Active; 'I' for Inactive)
REMARK    1  A    between atoms: C_2  and  C_3 
REMARK    2  A    between atoms: C_3  and  C_4 
REMARK    3  A    between atoms: C_5  and  C_4 
REMARK    4  A    between atoms: C_5  and  C_37 
REMARK    5  A    between atoms: C_12  and  C_26 
REMARK    6  A    between atoms: C_13  and  O_24 
REMARK    7  A    between atoms: C_16  and  C_18 
REMARK    8  A    between atoms: C_26  and  N_27 
REMARK    9  A    between atoms: N_27  and  C_28 
REMARK   10  A    between atoms: C_28  and  C_29 
REMARK   11  A    between atoms: C_28  and  C_33 
REMARK   12  A    between atoms: C_29  and  C_30 
REMARK   13  A    between atoms: C_30  and  O_32 
REMARK   14  A    between atoms: C_33  and  C_34 
REMARK   15  A    between atoms: C_34  and  O_36 
ROOT
HETATM    1  C   UNK N   1       3.584  11.420  -0.229  0.00  0.00     0.039 C 
HETATM    2  C   UNK N   1       4.068  10.696   1.051  0.00  0.00     0.176 C 
HETATM    3  S   UNK N   1       4.132   8.904   0.838  0.00  0.00     0.178 S 
HETATM    4  O   UNK N   1       5.396   8.480   0.075  0.00  0.00    -0.223 OA
HETATM    5  O   UNK N   1       4.425   8.297   2.218  0.00  0.00    -0.223 OA
HETATM    6  C   UNK N   1       2.706   8.058   0.206  0.00  0.00     0.068 A 
HETATM    7  C   UNK N   1       2.792   6.694  -0.032  0.00  0.00     0.035 A 
HETATM    8  C   UNK N   1       1.682   5.984  -0.478  0.00  0.00    -0.006 A 
HETATM    9  C   UNK N   1       0.459   6.638  -0.683  0.00  0.00     0.076 A 
HETATM   10  C   UNK N   1       0.376   8.021  -0.444  0.00  0.00     0.048 A 
HETATM   11  C   UNK N   1       1.497   8.748  -0.001  0.00  0.00    -0.007 A 
HETATM   12  C   UNK N   1       1.427  10.248   0.260  0.00  0.00     0.145 C 
HETATM   13  N   UNK N   1       2.262  10.960  -0.716  0.00  0.00    -0.400 N 
HETATM   14  H   UNK N   1       1.950  11.128  -1.672  0.00  0.00     0.155 HD
ENDROOT
BRANCH   8  15
HETATM   15  C   UNK N   1       1.808   4.520  -0.659  0.00  0.00     0.156 C 
BRANCH  15  16
HETATM   16  N   UNK N   1       2.029   3.936   0.659  0.00  0.00    -0.412 N 
HETATM   17  H   UNK N   1       1.896   4.439   1.537  0.00  0.00     0.153 HD
BRANCH  16  18
HETATM   18  C   UNK N   1       2.463   2.541   0.571  0.00  0.00     0.096 C 
BRANCH  18  19
HETATM   19  C   UNK N   1       1.433   1.642  -0.127  0.00  0.00     0.135 C 
BRANCH  19  20
HETATM   20  C   UNK N   1       0.010   2.054   0.121  0.00  0.00     0.141 C 
HETATM   21  O   UNK N   1      -0.428   2.122   1.258  0.00  0.00    -0.650 OA
BRANCH  20  22
HETATM   22  O   UNK N   1      -0.776   2.380  -0.922  0.00  0.00    -0.776 OA
HETATM   23  H   UNK N   1      -0.853   2.968  -1.648  0.00  0.00     0.167 HD
ENDBRANCH  20  22
ENDBRANCH  19  20
ENDBRANCH  18  19
BRANCH  18  24
HETATM   24  C   UNK N   1       3.829   2.405  -0.116  0.00  0.00     0.135 C 
BRANCH  24  25
HETATM   25  C   UNK N   1       4.924   3.278   0.444  0.00  0.00     0.141 C 
HETATM   26  O   UNK N   1       4.715   4.037   1.378  0.00  0.00    -0.650 OA
BRANCH  25  27
HETATM   27  O   UNK N   1       6.148   3.232  -0.111  0.00  0.00    -0.776 OA
HETATM   28  H   UNK N   1       6.547   2.477  -0.498  0.00  0.00     0.167 HD
ENDBRANCH  25  27
ENDBRANCH  24  25
ENDBRANCH  18  24
ENDBRANCH  16  18
ENDBRANCH  15  16
ENDBRANCH   8  15
BRANCH   9  29
HETATM   29  O   UNK N   1      -0.621   5.922  -1.085  0.00  0.00    -0.355 OA
HETATM   30  C   UNK N   1      -1.872   6.470  -1.250  0.00  0.00     0.210 C 
ENDBRANCH   9  29
BRANCH  12  31
HETATM   31  C   UNK N   1       0.040  10.830   0.299  0.00  0.00    -0.031 A 
HETATM   32  C   UNK N   1      -0.828  10.744  -0.802  0.00  0.00     0.009 A 
HETATM   33  C   UNK N   1      -2.119  11.275  -0.722  0.00  0.00     0.001 A 
HETATM   34  C   UNK N   1      -2.543  11.908   0.450  0.00  0.00     0.000 A 
HETATM   35  C   UNK N   1      -1.677  12.010   1.542  0.00  0.00     0.001 A 
HETATM   36  C   UNK N   1      -0.391  11.467   1.468  0.00  0.00     0.009 A 
ENDBRANCH  12  31
BRANCH   1  37
HETATM   37  C   UNK N   1       3.465  12.923   0.082  0.00  0.00     0.031 C 
BRANCH  37  38
HETATM   38  C   UNK N   1       4.705  13.535   0.736  0.00  0.00     0.002 C 
BRANCH  38  39
HETATM   39  C   UNK N   1       5.564  14.248  -0.288  0.00  0.00    -0.004 C 
HETATM   40  C   UNK N   1       6.973  14.381   0.254  0.00  0.00     0.005 C 
ENDBRANCH  38  39
ENDBRANCH  37  38
ENDBRANCH   1  37
BRANCH   1  41
HETATM   41  C   UNK N   1       4.562  11.178  -1.395  0.00  0.00     0.027 C 
HETATM   42  C   UNK N   1       6.038  11.336  -1.056  0.00  0.00     0.007 C 
ENDBRANCH   1  41
TORSDOF 15
