MODEL 1
REMARK VINA RESULT:      -6.7      0.000      0.000
REMARK  6 active torsions:
REMARK  status: ('A' for Active; 'I' for Inactive)
REMARK    1  A    between atoms: C_4  and  C_7 
REMARK       I    between atoms: C_7  and  N_9 
REMARK    2  A    between atoms: C_10  and  N_9 
REMARK    3  A    between atoms: C_12  and  C_19 
REMARK       I    between atoms: N_13  and  C_15 
REMARK    4  A    between atoms: C_15  and  C_17 
REMARK    5  A    between atoms: C_17  and  N_18 
REMARK    6  A    between atoms: C_19  and  O_21 
ROOT
HETATM    1  C   UNK N   1      29.482  24.362  -4.612  0.00  0.00     0.105 C 
HETATM    2  C   UNK N   1      28.878  25.763  -4.664  0.00  0.00     0.063 C 
HETATM    3  C   UNK N   1      27.374  25.542  -4.751  0.00  0.00     0.187 C 
HETATM    4  N   UNK N   1      27.275  24.275  -5.424  0.00  0.00    -0.334 N 
HETATM    5  C   UNK N   1      28.494  23.507  -5.413  0.00  0.00     0.152 C 
HETATM    6  C   UNK N   1      26.147  23.893  -6.091  0.00  0.00     0.237 C 
HETATM    7  O   UNK N   1      25.156  24.608  -6.086  0.00  0.00    -0.272 OA
ENDROOT
BRANCH   1   8
HETATM    8  N   UNK N   1      29.498  23.971  -3.221  0.00  0.00    -0.351 N 
HETATM    9  C   UNK N   1      30.333  23.053  -2.664  0.00  0.00     0.252 C 
HETATM   10  O   UNK N   1      30.378  22.984  -1.445  0.00  0.00    -0.268 OA
HETATM   11  H   UNK N   1      28.848  24.408  -2.625  0.00  0.00     0.163 HD
BRANCH   9  12
HETATM   12  C   UNK N   1      31.213  22.142  -3.456  0.00  0.00     0.032 A 
HETATM   13  C   UNK N   1      30.724  20.881  -3.837  0.00  0.00     0.017 A 
HETATM   14  C   UNK N   1      31.501  20.018  -4.614  0.00  0.00     0.001 A 
HETATM   15  C   UNK N   1      32.769  20.417  -5.041  0.00  0.00     0.000 A 
HETATM   16  C   UNK N   1      33.263  21.672  -4.679  0.00  0.00     0.001 A 
HETATM   17  C   UNK N   1      32.492  22.529  -3.886  0.00  0.00     0.017 A 
ENDBRANCH   9  12
ENDBRANCH   1   8
BRANCH   3  18
HETATM   18  C   UNK N   1      26.708  25.465  -3.392  0.00  0.00     0.163 C 
HETATM   19  O   UNK N   1      26.224  26.469  -2.894  0.00  0.00    -0.648 OA
BRANCH  18  20
HETATM   20  O   UNK N   1      26.643  24.298  -2.719  0.00  0.00    -0.775 OA
HETATM   21  H   UNK N   1      25.820  23.981  -2.402  0.00  0.00     0.167 HD
ENDBRANCH  18  20
ENDBRANCH   3  18
BRANCH   6  22
HETATM   22  C   UNK N   1      26.102  22.608  -6.862  0.00  0.00     0.215 C 
BRANCH  22  23
HETATM   23  N   UNK N   1      24.781  22.013  -6.741  0.00  0.00    -0.422 N 
HETATM   24  H   UNK N   1      23.884  22.465  -6.568  0.00  0.00     0.150 HD
HETATM   25  H   UNK N   1      24.747  20.998  -6.844  0.00  0.00     0.150 HD
ENDBRANCH  22  23
ENDBRANCH   6  22
TORSDOF 6
ENDMDL
MODEL 2
REMARK VINA RESULT:      -6.5     14.564     17.380
REMARK  6 active torsions:
REMARK  status: ('A' for Active; 'I' for Inactive)
REMARK    1  A    between atoms: C_4  and  C_7 
REMARK       I    between atoms: C_7  and  N_9 
REMARK    2  A    between atoms: C_10  and  N_9 
REMARK    3  A    between atoms: C_12  and  C_19 
REMARK       I    between atoms: N_13  and  C_15 
REMARK    4  A    between atoms: C_15  and  C_17 
REMARK    5  A    between atoms: C_17  and  N_18 
REMARK    6  A    between atoms: C_19  and  O_21 
ROOT
HETATM    1  C   UNK N   1      33.946  14.970   8.331  0.00  0.00     0.105 C 
HETATM    2  C   UNK N   1      33.622  15.334   9.778  0.00  0.00     0.063 C 
HETATM    3  C   UNK N   1      34.895  15.028  10.557  0.00  0.00     0.187 C 
HETATM    4  N   UNK N   1      35.485  13.960   9.797  0.00  0.00    -0.334 N 
HETATM    5  C   UNK N   1      34.965  13.832   8.460  0.00  0.00     0.152 C 
HETATM    6  C   UNK N   1      36.389  13.094  10.343  0.00  0.00     0.237 C 
HETATM    7  O   UNK N   1      36.765  13.241  11.495  0.00  0.00    -0.272 OA
ENDROOT
BRANCH   1   8
HETATM    8  N   UNK N   1      34.547  16.140   7.736  0.00  0.00    -0.351 N 
HETATM    9  C   UNK N   1      33.890  17.281   7.391  0.00  0.00     0.252 C 
HETATM   10  O   UNK N   1      34.560  18.262   7.100  0.00  0.00    -0.268 OA
HETATM   11  H   UNK N   1      35.516  16.110   7.565  0.00  0.00     0.163 HD
BRANCH   9  12
HETATM   12  C   UNK N   1      32.403  17.410   7.371  0.00  0.00     0.032 A 
HETATM   13  C   UNK N   1      31.692  16.938   6.254  0.00  0.00     0.017 A 
HETATM   14  C   UNK N   1      30.296  17.001   6.216  0.00  0.00     0.001 A 
HETATM   15  C   UNK N   1      29.593  17.515   7.307  0.00  0.00     0.000 A 
HETATM   16  C   UNK N   1      30.286  17.978   8.427  0.00  0.00     0.001 A 
HETATM   17  C   UNK N   1      31.684  17.930   8.458  0.00  0.00     0.017 A 
ENDBRANCH   9  12
ENDBRANCH   1   8
BRANCH   3  18
HETATM   18  C   UNK N   1      35.844  16.207  10.627  0.00  0.00     0.163 C 
HETATM   19  O   UNK N   1      35.416  17.341  10.487  0.00  0.00    -0.648 OA
BRANCH  18  20
HETATM   20  O   UNK N   1      37.162  16.022  10.841  0.00  0.00    -0.775 OA
HETATM   21  H   UNK N   1      37.455  15.482  11.548  0.00  0.00     0.167 HD
ENDBRANCH  18  20
ENDBRANCH   3  18
BRANCH   6  22
HETATM   22  C   UNK N   1      36.920  11.933   9.556  0.00  0.00     0.215 C 
BRANCH  22  23
HETATM   23  N   UNK N   1      38.361  11.847   9.728  0.00  0.00    -0.422 N 
HETATM   24  H   UNK N   1      38.896  11.357  10.445  0.00  0.00     0.150 HD
HETATM   25  H   UNK N   1      38.916  12.345   9.032  0.00  0.00     0.150 HD
ENDBRANCH  22  23
ENDBRANCH   6  22
TORSDOF 6
ENDMDL
MODEL 3
REMARK VINA RESULT:      -6.2     20.136     22.433
REMARK  6 active torsions:
REMARK  status: ('A' for Active; 'I' for Inactive)
REMARK    1  A    between atoms: C_4  and  C_7 
REMARK       I    between atoms: C_7  and  N_9 
REMARK    2  A    between atoms: C_10  and  N_9 
REMARK    3  A    between atoms: C_12  and  C_19 
REMARK       I    between atoms: N_13  and  C_15 
REMARK    4  A    between atoms: C_15  and  C_17 
REMARK    5  A    between atoms: C_17  and  N_18 
REMARK    6  A    between atoms: C_19  and  O_21 
ROOT
HETATM    1  C   UNK N   1      36.482  12.688  13.713  0.00  0.00     0.105 C 
HETATM    2  C   UNK N   1      36.075  14.147  13.522  0.00  0.00     0.063 C 
HETATM    3  C   UNK N   1      36.071  14.361  12.014  0.00  0.00     0.187 C 
HETATM    4  N   UNK N   1      37.062  13.426  11.556  0.00  0.00    -0.334 N 
HETATM    5  C   UNK N   1      37.390  12.400  12.513  0.00  0.00     0.152 C 
HETATM    6  C   UNK N   1      37.694  13.568  10.354  0.00  0.00     0.237 C 
HETATM    7  O   UNK N   1      37.388  14.481   9.602  0.00  0.00    -0.272 OA
ENDROOT
BRANCH   1   8
HETATM    8  N   UNK N   1      35.268  11.908  13.645  0.00  0.00    -0.351 N 
HETATM    9  C   UNK N   1      34.468  11.590  14.699  0.00  0.00     0.252 C 
HETATM   10  O   UNK N   1      33.368  11.114  14.459  0.00  0.00    -0.268 OA
HETATM   11  H   UNK N   1      34.995  11.579  12.758  0.00  0.00     0.163 HD
BRANCH   9  12
HETATM   12  C   UNK N   1      34.848  11.810  16.126  0.00  0.00     0.032 A 
HETATM   13  C   UNK N   1      34.724  13.099  16.673  0.00  0.00     0.017 A 
HETATM   14  C   UNK N   1      35.028  13.336  18.017  0.00  0.00     0.001 A 
HETATM   15  C   UNK N   1      35.435  12.281  18.836  0.00  0.00     0.000 A 
HETATM   16  C   UNK N   1      35.551  10.994  18.307  0.00  0.00     0.001 A 
HETATM   17  C   UNK N   1      35.264  10.760  16.958  0.00  0.00     0.017 A 
ENDBRANCH   9  12
ENDBRANCH   1   8
BRANCH   3  18
HETATM   18  C   UNK N   1      34.730  14.056  11.377  0.00  0.00     0.163 C 
HETATM   19  O   UNK N   1      34.534  12.967  10.864  0.00  0.00    -0.648 OA
BRANCH  18  20
HETATM   20  O   UNK N   1      33.745  14.977  11.367  0.00  0.00    -0.775 OA
HETATM   21  H   UNK N   1      33.325  15.210  10.562  0.00  0.00     0.167 HD
ENDBRANCH  18  20
ENDBRANCH   3  18
BRANCH   6  22
HETATM   22  C   UNK N   1      38.789  12.632   9.941  0.00  0.00     0.215 C 
BRANCH  22  23
HETATM   23  N   UNK N   1      39.153  12.889   8.557  0.00  0.00    -0.422 N 
HETATM   24  H   UNK N   1      38.664  13.443   7.854  0.00  0.00     0.150 HD
HETATM   25  H   UNK N   1      40.023  12.455   8.244  0.00  0.00     0.150 HD
ENDBRANCH  22  23
ENDBRANCH   6  22
TORSDOF 6
ENDMDL
MODEL 4
REMARK VINA RESULT:      -6.1     15.407     16.361
REMARK  6 active torsions:
REMARK  status: ('A' for Active; 'I' for Inactive)
REMARK    1  A    between atoms: C_4  and  C_7 
REMARK       I    between atoms: C_7  and  N_9 
REMARK    2  A    between atoms: C_10  and  N_9 
REMARK    3  A    between atoms: C_12  and  C_19 
REMARK       I    between atoms: N_13  and  C_15 
REMARK    4  A    between atoms: C_15  and  C_17 
REMARK    5  A    between atoms: C_17  and  N_18 
REMARK    6  A    between atoms: C_19  and  O_21 
ROOT
HETATM    1  C   UNK N   1      21.993  15.263   7.252  0.00  0.00     0.105 C 
HETATM    2  C   UNK N   1      20.763  16.069   7.666  0.00  0.00     0.063 C 
HETATM    3  C   UNK N   1      20.349  16.826   6.411  0.00  0.00     0.187 C 
HETATM    4  N   UNK N   1      21.594  16.999   5.715  0.00  0.00    -0.334 N 
HETATM    5  C   UNK N   1      22.646  16.122   6.164  0.00  0.00     0.152 C 
HETATM    6  C   UNK N   1      21.774  17.976   4.779  0.00  0.00     0.237 C 
HETATM    7  O   UNK N   1      20.847  18.708   4.466  0.00  0.00    -0.272 OA
ENDROOT
BRANCH   1   8
HETATM    8  N   UNK N   1      21.505  14.017   6.707  0.00  0.00    -0.351 N 
HETATM    9  C   UNK N   1      21.405  12.840   7.383  0.00  0.00     0.252 C 
HETATM   10  O   UNK N   1      20.776  11.931   6.860  0.00  0.00    -0.268 OA
HETATM   11  H   UNK N   1      21.220  14.020   5.765  0.00  0.00     0.163 HD
BRANCH   9  12
HETATM   12  C   UNK N   1      21.997  12.604   8.733  0.00  0.00     0.032 A 
HETATM   13  C   UNK N   1      21.182  12.741   9.870  0.00  0.00     0.017 A 
HETATM   14  C   UNK N   1      21.689  12.486  11.147  0.00  0.00     0.001 A 
HETATM   15  C   UNK N   1      23.011  12.067  11.301  0.00  0.00     0.000 A 
HETATM   16  C   UNK N   1      23.829  11.916  10.179  0.00  0.00     0.001 A 
HETATM   17  C   UNK N   1      23.327  12.188   8.902  0.00  0.00     0.017 A 
ENDBRANCH   9  12
ENDBRANCH   1   8
BRANCH   3  18
HETATM   18  C   UNK N   1      19.370  16.054   5.550  0.00  0.00     0.163 C 
HETATM   19  O   UNK N   1      18.985  14.952   5.906  0.00  0.00    -0.648 OA
BRANCH  18  20
HETATM   20  O   UNK N   1      18.917  16.566   4.387  0.00  0.00    -0.775 OA
HETATM   21  H   UNK N   1      18.294  17.266   4.391  0.00  0.00     0.167 HD
ENDBRANCH  18  20
ENDBRANCH   3  18
BRANCH   6  22
HETATM   22  C   UNK N   1      23.110  18.194   4.135  0.00  0.00     0.215 C 
BRANCH  22  23
HETATM   23  N   UNK N   1      23.151  19.517   3.534  0.00  0.00    -0.422 N 
HETATM   24  H   UNK N   1      22.608  19.888   2.755  0.00  0.00     0.150 HD
HETATM   25  H   UNK N   1      23.818  20.168   3.952  0.00  0.00     0.150 HD
ENDBRANCH  22  23
ENDBRANCH   6  22
TORSDOF 6
ENDMDL
MODEL 5
REMARK VINA RESULT:      -6.0     12.739     15.556
REMARK  6 active torsions:
REMARK  status: ('A' for Active; 'I' for Inactive)
REMARK    1  A    between atoms: C_4  and  C_7 
REMARK       I    between atoms: C_7  and  N_9 
REMARK    2  A    between atoms: C_10  and  N_9 
REMARK    3  A    between atoms: C_12  and  C_19 
REMARK       I    between atoms: N_13  and  C_15 
REMARK    4  A    between atoms: C_15  and  C_17 
REMARK    5  A    between atoms: C_17  and  N_18 
REMARK    6  A    between atoms: C_19  and  O_21 
ROOT
HETATM    1  C   UNK N   1      32.529  15.737   7.657  0.00  0.00     0.105 C 
HETATM    2  C   UNK N   1      32.275  17.060   8.375  0.00  0.00     0.063 C 
HETATM    3  C   UNK N   1      33.629  17.467   8.942  0.00  0.00     0.187 C 
HETATM    4  N   UNK N   1      34.277  16.202   9.162  0.00  0.00    -0.334 N 
HETATM    5  C   UNK N   1      33.676  15.102   8.452  0.00  0.00     0.152 C 
HETATM    6  C   UNK N   1      35.310  16.060  10.042  0.00  0.00     0.237 C 
HETATM    7  O   UNK N   1      35.753  17.031  10.636  0.00  0.00    -0.272 OA
ENDROOT
BRANCH   1   8
HETATM    8  N   UNK N   1      32.948  16.069   6.315  0.00  0.00    -0.351 N 
HETATM    9  C   UNK N   1      32.126  16.224   5.242  0.00  0.00     0.252 C 
HETATM   10  O   UNK N   1      32.597  16.715   4.226  0.00  0.00    -0.268 OA
HETATM   11  H   UNK N   1      33.913  16.194   6.164  0.00  0.00     0.163 HD
BRANCH   9  12
HETATM   12  C   UNK N   1      30.680  15.852   5.242  0.00  0.00     0.032 A 
HETATM   13  C   UNK N   1      29.716  16.861   5.406  0.00  0.00     0.017 A 
HETATM   14  C   UNK N   1      28.352  16.559   5.368  0.00  0.00     0.001 A 
HETATM   15  C   UNK N   1      27.936  15.246   5.141  0.00  0.00     0.000 A 
HETATM   16  C   UNK N   1      28.883  14.235   4.966  0.00  0.00     0.001 A 
HETATM   17  C   UNK N   1      30.249  14.535   5.021  0.00  0.00     0.017 A 
ENDBRANCH   9  12
ENDBRANCH   1   8
BRANCH   3  18
HETATM   18  C   UNK N   1      34.442  18.312   7.983  0.00  0.00     0.163 C 
HETATM   19  O   UNK N   1      34.301  18.172   6.778  0.00  0.00    -0.648 OA
BRANCH  18  20
HETATM   20  O   UNK N   1      35.327  19.221   8.441  0.00  0.00    -0.775 OA
HETATM   21  H   UNK N   1      36.209  18.968   8.631  0.00  0.00     0.167 HD
ENDBRANCH  18  20
ENDBRANCH   3  18
BRANCH   6  22
HETATM   22  C   UNK N   1      35.907  14.713  10.321  0.00  0.00     0.215 C 
BRANCH  22  23
HETATM   23  N   UNK N   1      37.252  14.876  10.849  0.00  0.00    -0.422 N 
HETATM   24  H   UNK N   1      37.831  14.207  11.355  0.00  0.00     0.150 HD
HETATM   25  H   UNK N   1      37.677  15.790  10.690  0.00  0.00     0.150 HD
ENDBRANCH  22  23
ENDBRANCH   6  22
TORSDOF 6
ENDMDL
MODEL 6
REMARK VINA RESULT:      -5.8     10.541     11.557
REMARK  6 active torsions:
REMARK  status: ('A' for Active; 'I' for Inactive)
REMARK    1  A    between atoms: C_4  and  C_7 
REMARK       I    between atoms: C_7  and  N_9 
REMARK    2  A    between atoms: C_10  and  N_9 
REMARK    3  A    between atoms: C_12  and  C_19 
REMARK       I    between atoms: N_13  and  C_15 
REMARK    4  A    between atoms: C_15  and  C_17 
REMARK    5  A    between atoms: C_17  and  N_18 
REMARK    6  A    between atoms: C_19  and  O_21 
ROOT
HETATM    1  C   UNK N   1      23.009  18.280   4.711  0.00  0.00     0.105 C 
HETATM    2  C   UNK N   1      21.740  17.724   5.355  0.00  0.00     0.063 C 
HETATM    3  C   UNK N   1      20.675  17.817   4.270  0.00  0.00     0.187 C 
HETATM    4  N   UNK N   1      21.110  18.942   3.489  0.00  0.00    -0.334 N 
HETATM    5  C   UNK N   1      22.487  19.309   3.701  0.00  0.00     0.152 C 
HETATM    6  C   UNK N   1      20.254  19.647   2.693  0.00  0.00     0.237 C 
HETATM    7  O   UNK N   1      19.089  19.301   2.581  0.00  0.00    -0.272 OA
ENDROOT
BRANCH   1   8
HETATM    8  N   UNK N   1      23.650  17.173   4.040  0.00  0.00    -0.351 N 
HETATM    9  C   UNK N   1      24.992  16.993   3.910  0.00  0.00     0.252 C 
HETATM   10  O   UNK N   1      25.389  15.908   3.511  0.00  0.00    -0.268 OA
HETATM   11  H   UNK N   1      23.064  16.489   3.643  0.00  0.00     0.163 HD
BRANCH   9  12
HETATM   12  C   UNK N   1      26.007  18.036   4.249  0.00  0.00     0.032 A 
HETATM   13  C   UNK N   1      26.155  19.145   3.398  0.00  0.00     0.017 A 
HETATM   14  C   UNK N   1      27.063  20.162   3.704  0.00  0.00     0.001 A 
HETATM   15  C   UNK N   1      27.816  20.095   4.878  0.00  0.00     0.000 A 
HETATM   16  C   UNK N   1      27.670  19.004   5.737  0.00  0.00     0.001 A 
HETATM   17  C   UNK N   1      26.774  17.977   5.422  0.00  0.00     0.017 A 
ENDBRANCH   9  12
ENDBRANCH   1   8
BRANCH   3  18
HETATM   18  C   UNK N   1      20.603  16.575   3.404  0.00  0.00     0.163 C 
HETATM   19  O   UNK N   1      21.344  15.632   3.630  0.00  0.00    -0.648 OA
BRANCH  18  20
HETATM   20  O   UNK N   1      19.729  16.495   2.380  0.00  0.00    -0.775 OA
HETATM   21  H   UNK N   1      19.074  17.156   2.266  0.00  0.00     0.167 HD
ENDBRANCH  18  20
ENDBRANCH   3  18
BRANCH   6  22
HETATM   22  C   UNK N   1      20.713  20.873   1.960  0.00  0.00     0.215 C 
BRANCH  22  23
HETATM   23  N   UNK N   1      20.375  20.753   0.551  0.00  0.00    -0.422 N 
HETATM   24  H   UNK N   1      20.266  19.913  -0.016  0.00  0.00     0.150 HD
HETATM   25  H   UNK N   1      20.224  21.635   0.060  0.00  0.00     0.150 HD
ENDBRANCH  22  23
ENDBRANCH   6  22
TORSDOF 6
ENDMDL
MODEL 7
REMARK VINA RESULT:      -5.8      2.480      3.574
REMARK  6 active torsions:
REMARK  status: ('A' for Active; 'I' for Inactive)
REMARK    1  A    between atoms: C_4  and  C_7 
REMARK       I    between atoms: C_7  and  N_9 
REMARK    2  A    between atoms: C_10  and  N_9 
REMARK    3  A    between atoms: C_12  and  C_19 
REMARK       I    between atoms: N_13  and  C_15 
REMARK    4  A    between atoms: C_15  and  C_17 
REMARK    5  A    between atoms: C_17  and  N_18 
REMARK    6  A    between atoms: C_19  and  O_21 
ROOT
HETATM    1  C   UNK N   1      30.507  23.001  -5.127  0.00  0.00     0.105 C 
HETATM    2  C   UNK N   1      30.751  24.109  -4.106  0.00  0.00     0.063 C 
HETATM    3  C   UNK N   1      29.445  24.226  -3.331  0.00  0.00     0.187 C 
HETATM    4  N   UNK N   1      28.462  23.817  -4.297  0.00  0.00    -0.334 N 
HETATM    5  C   UNK N   1      29.006  23.097  -5.420  0.00  0.00     0.152 C 
HETATM    6  C   UNK N   1      27.149  24.171  -4.190  0.00  0.00     0.237 C 
HETATM    7  O   UNK N   1      26.759  24.811  -3.225  0.00  0.00    -0.272 OA
ENDROOT
BRANCH   1   8
HETATM    8  N   UNK N   1      30.831  21.756  -4.471  0.00  0.00    -0.351 N 
HETATM    9  C   UNK N   1      31.138  20.586  -5.094  0.00  0.00     0.252 C 
HETATM   10  O   UNK N   1      31.599  19.680  -4.415  0.00  0.00    -0.268 OA
HETATM   11  H   UNK N   1      30.828  21.754  -3.486  0.00  0.00     0.163 HD
BRANCH   9  12
HETATM   12  C   UNK N   1      30.968  20.355  -6.559  0.00  0.00     0.032 A 
HETATM   13  C   UNK N   1      32.060  20.577  -7.416  0.00  0.00     0.017 A 
HETATM   14  C   UNK N   1      31.952  20.331  -8.788  0.00  0.00     0.001 A 
HETATM   15  C   UNK N   1      30.759  19.836  -9.315  0.00  0.00     0.000 A 
HETATM   16  C   UNK N   1      29.669  19.601  -8.473  0.00  0.00     0.001 A 
HETATM   17  C   UNK N   1      29.771  19.864  -7.103  0.00  0.00     0.017 A 
ENDBRANCH   9  12
ENDBRANCH   1   8
BRANCH   3  18
HETATM   18  C   UNK N   1      29.395  23.320  -2.117  0.00  0.00     0.163 C 
HETATM   19  O   UNK N   1      30.432  22.929  -1.606  0.00  0.00    -0.648 OA
BRANCH  18  20
HETATM   20  O   UNK N   1      28.215  22.934  -1.591  0.00  0.00    -0.775 OA
HETATM   21  H   UNK N   1      27.877  23.358  -0.827  0.00  0.00     0.167 HD
ENDBRANCH  18  20
ENDBRANCH   3  18
BRANCH   6  22
HETATM   22  C   UNK N   1      26.161  23.809  -5.259  0.00  0.00     0.215 C 
BRANCH  22  23
HETATM   23  N   UNK N   1      25.178  24.872  -5.392  0.00  0.00    -0.422 N 
HETATM   24  H   UNK N   1      24.187  24.807  -5.627  0.00  0.00     0.150 HD
HETATM   25  H   UNK N   1      25.527  25.817  -5.227  0.00  0.00     0.150 HD
ENDBRANCH  22  23
ENDBRANCH   6  22
TORSDOF 6
ENDMDL
MODEL 8
REMARK VINA RESULT:      -5.7      2.775      6.645
REMARK  6 active torsions:
REMARK  status: ('A' for Active; 'I' for Inactive)
REMARK    1  A    between atoms: C_4  and  C_7 
REMARK       I    between atoms: C_7  and  N_9 
REMARK    2  A    between atoms: C_10  and  N_9 
REMARK    3  A    between atoms: C_12  and  C_19 
REMARK       I    between atoms: N_13  and  C_15 
REMARK    4  A    between atoms: C_15  and  C_17 
REMARK    5  A    between atoms: C_17  and  N_18 
REMARK    6  A    between atoms: C_19  and  O_21 
ROOT
HETATM    1  C   UNK N   1      28.715  23.944  -5.533  0.00  0.00     0.105 C 
HETATM    2  C   UNK N   1      29.525  23.682  -6.801  0.00  0.00     0.063 C 
HETATM    3  C   UNK N   1      30.206  22.340  -6.564  0.00  0.00     0.187 C 
HETATM    4  N   UNK N   1      30.357  22.306  -5.135  0.00  0.00    -0.334 N 
HETATM    5  C   UNK N   1      29.522  23.247  -4.432  0.00  0.00     0.152 C 
HETATM    6  C   UNK N   1      31.284  21.513  -4.521  0.00  0.00     0.237 C 
HETATM    7  O   UNK N   1      31.983  20.760  -5.180  0.00  0.00    -0.272 OA
ENDROOT
BRANCH   1   8
HETATM    8  N   UNK N   1      27.434  23.304  -5.723  0.00  0.00    -0.351 N 
HETATM    9  C   UNK N   1      26.221  23.911  -5.620  0.00  0.00     0.252 C 
HETATM   10  O   UNK N   1      25.239  23.300  -6.018  0.00  0.00    -0.268 OA
HETATM   11  H   UNK N   1      27.440  22.345  -5.946  0.00  0.00     0.163 HD
BRANCH   9  12
HETATM   12  C   UNK N   1      26.023  25.286  -5.073  0.00  0.00     0.032 A 
HETATM   13  C   UNK N   1      25.314  26.229  -5.838  0.00  0.00     0.017 A 
HETATM   14  C   UNK N   1      25.071  27.513  -5.342  0.00  0.00     0.001 A 
HETATM   15  C   UNK N   1      25.512  27.861  -4.064  0.00  0.00     0.000 A 
HETATM   16  C   UNK N   1      26.208  26.930  -3.289  0.00  0.00     0.001 A 
HETATM   17  C   UNK N   1      26.466  25.651  -3.793  0.00  0.00     0.017 A 
ENDBRANCH   9  12
ENDBRANCH   1   8
BRANCH   3  18
HETATM   18  C   UNK N   1      29.372  21.163  -7.030  0.00  0.00     0.163 C 
HETATM   19  O   UNK N   1      28.286  21.356  -7.552  0.00  0.00    -0.648 OA
BRANCH  18  20
HETATM   20  O   UNK N   1      29.813  19.898  -6.873  0.00  0.00    -0.775 OA
HETATM   21  H   UNK N   1      30.586  19.609  -7.316  0.00  0.00     0.167 HD
ENDBRANCH  18  20
ENDBRANCH   3  18
BRANCH   6  22
HETATM   22  C   UNK N   1      31.484  21.566  -3.036  0.00  0.00     0.215 C 
BRANCH  22  23
HETATM   23  N   UNK N   1      32.809  21.067  -2.706  0.00  0.00    -0.422 N 
HETATM   24  H   UNK N   1      33.288  20.234  -3.048  0.00  0.00     0.150 HD
HETATM   25  H   UNK N   1      33.336  21.631  -2.038  0.00  0.00     0.150 HD
ENDBRANCH  22  23
ENDBRANCH   6  22
TORSDOF 6
ENDMDL
MODEL 9
REMARK VINA RESULT:      -5.7     11.442     14.353
REMARK  6 active torsions:
REMARK  status: ('A' for Active; 'I' for Inactive)
REMARK    1  A    between atoms: C_4  and  C_7 
REMARK       I    between atoms: C_7  and  N_9 
REMARK    2  A    between atoms: C_10  and  N_9 
REMARK    3  A    between atoms: C_12  and  C_19 
REMARK       I    between atoms: N_13  and  C_15 
REMARK    4  A    between atoms: C_15  and  C_17 
REMARK    5  A    between atoms: C_17  and  N_18 
REMARK    6  A    between atoms: C_19  and  O_21 
ROOT
HETATM    1  C   UNK N   1      30.985  17.135   5.731  0.00  0.00     0.105 C 
HETATM    2  C   UNK N   1      31.745  16.146   4.850  0.00  0.00     0.063 C 
HETATM    3  C   UNK N   1      32.698  15.427   5.796  0.00  0.00     0.187 C 
HETATM    4  N   UNK N   1      32.948  16.415   6.810  0.00  0.00    -0.334 N 
HETATM    5  C   UNK N   1      31.988  17.489   6.834  0.00  0.00     0.152 C 
HETATM    6  C   UNK N   1      34.055  16.372   7.607  0.00  0.00     0.237 C 
HETATM    7  O   UNK N   1      34.848  15.448   7.513  0.00  0.00    -0.272 OA
ENDROOT
BRANCH   1   8
HETATM    8  N   UNK N   1      29.851  16.421   6.270  0.00  0.00    -0.351 N 
HETATM    9  C   UNK N   1      28.564  16.863   6.275  0.00  0.00     0.252 C 
HETATM   10  O   UNK N   1      27.685  16.064   6.566  0.00  0.00    -0.268 OA
HETATM   11  H   UNK N   1      30.025  15.538   6.668  0.00  0.00     0.163 HD
BRANCH   9  12
HETATM   12  C   UNK N   1      28.163  18.258   5.924  0.00  0.00     0.032 A 
HETATM   13  C   UNK N   1      27.882  18.569   4.582  0.00  0.00     0.017 A 
HETATM   14  C   UNK N   1      27.461  19.852   4.220  0.00  0.00     0.001 A 
HETATM   15  C   UNK N   1      27.293  20.832   5.200  0.00  0.00     0.000 A 
HETATM   16  C   UNK N   1      27.558  20.533   6.538  0.00  0.00     0.001 A 
HETATM   17  C   UNK N   1      27.996  19.254   6.898  0.00  0.00     0.017 A 
ENDBRANCH   9  12
ENDBRANCH   1   8
BRANCH   3  18
HETATM   18  C   UNK N   1      32.092  14.184   6.415  0.00  0.00     0.163 C 
HETATM   19  O   UNK N   1      31.183  13.602   5.845  0.00  0.00    -0.648 OA
BRANCH  18  20
HETATM   20  O   UNK N   1      32.541  13.709   7.594  0.00  0.00    -0.775 OA
HETATM   21  H   UNK N   1      32.301  14.130   8.396  0.00  0.00     0.167 HD
ENDBRANCH  18  20
ENDBRANCH   3  18
BRANCH   6  22
HETATM   22  C   UNK N   1      34.340  17.465   8.594  0.00  0.00     0.215 C 
BRANCH  22  23
HETATM   23  N   UNK N   1      34.230  16.942   9.946  0.00  0.00    -0.422 N 
HETATM   24  H   UNK N   1      34.214  17.446  10.832  0.00  0.00     0.150 HD
HETATM   25  H   UNK N   1      34.156  15.926  10.018  0.00  0.00     0.150 HD
ENDBRANCH  22  23
ENDBRANCH   6  22
TORSDOF 6
ENDMDL
