MODEL 1
REMARK VINA RESULT:      -8.2      0.000      0.000
REMARK  4 active torsions:
REMARK  status: ('A' for Active; 'I' for Inactive)
REMARK    1  A    between atoms: C_10  and  O_29 
REMARK    2  A    between atoms: C_13  and  C_17 
REMARK       I    between atoms: C_17  and  N_19 
REMARK    3  A    between atoms: N_19  and  C_20 
REMARK    4  A    between atoms: C_20  and  C_21 
ROOT
HETATM    1  C   UNK N   1      20.903  20.705   1.317  0.00  0.00     0.034 C 
HETATM    2  C   UNK N   1      20.852  20.263   2.769  0.00  0.00     0.110 C 
HETATM    3  C   UNK N   1      19.801  19.177   2.934  0.00  0.00     0.195 C 
HETATM    4  O   UNK N   1      20.367  18.083   3.640  0.00  0.00    -0.363 OA
HETATM    5  C   UNK N   1      21.761  18.195   3.474  0.00  0.00     0.244 C 
HETATM    6  N   UNK N   1      22.027  19.555   3.132  0.00  0.00    -0.312 N 
HETATM    7  C   UNK N   1      23.285  20.076   3.204  0.00  0.00     0.276 C 
HETATM    8  O   UNK N   1      23.515  21.213   2.819  0.00  0.00    -0.266 OA
HETATM    9  C   UNK N   1      24.347  19.239   3.826  0.00  0.00     0.141 A 
HETATM   10  C   UNK N   1      25.723  19.547   3.734  0.00  0.00     0.150 A 
HETATM   11  C   UNK N   1      26.665  18.705   4.355  0.00  0.00     0.224 A 
HETATM   12  O   UNK N   1      27.855  18.959   4.277  0.00  0.00    -0.284 OA
HETATM   13  C   UNK N   1      26.219  17.571   5.062  0.00  0.00     0.100 A 
HETATM   14  C   UNK N   1      24.847  17.325   5.132  0.00  0.00     0.113 A 
HETATM   15  N   UNK N   1      23.947  18.134   4.535  0.00  0.00    -0.345 N 
HETATM   16  C   UNK N   1      22.524  17.836   4.733  0.00  0.00     0.182 C 
ENDROOT
BRANCH  13  17
HETATM   17  C   UNK N   1      27.104  16.603   5.755  0.00  0.00     0.257 C 
HETATM   18  O   UNK N   1      26.733  15.971   6.734  0.00  0.00    -0.267 OA
HETATM   19  N   UNK N   1      28.355  16.454   5.264  0.00  0.00    -0.352 N 
HETATM   20  H   UNK N   1      28.578  16.994   4.471  0.00  0.00     0.163 HD
BRANCH  19  21
HETATM   21  C   UNK N   1      29.394  15.601   5.763  0.00  0.00     0.164 C 
BRANCH  21  22
HETATM   22  C   UNK N   1      30.460  16.434   6.448  0.00  0.00    -0.002 A 
HETATM   23  C   UNK N   1      31.683  16.603   5.789  0.00  0.00     0.015 A 
HETATM   24  C   UNK N   1      32.707  17.360   6.368  0.00  0.00     0.043 A 
HETATM   25  C   UNK N   1      32.520  17.956   7.617  0.00  0.00     0.119 A 
HETATM   26  C   UNK N   1      31.312  17.798   8.289  0.00  0.00     0.085 A 
HETATM   27  F   UNK N   1      33.511  18.688   8.180  0.00  0.00    -0.206 F 
HETATM   28  C   UNK N   1      30.282  17.047   7.723  0.00  0.00     0.127 A 
HETATM   29  F   UNK N   1      29.131  16.928   8.431  0.00  0.00    -0.205 F 
ENDBRANCH  21  22
ENDBRANCH  19  21
ENDBRANCH  13  17
BRANCH  10  30
HETATM   30  O   UNK N   1      26.141  20.631   3.052  0.00  0.00    -0.355 OA
HETATM   31  H   UNK N   1      25.692  20.901   2.276  0.00  0.00     0.218 HD
ENDBRANCH  10  30
TORSDOF 4
ENDMDL
MODEL 2
REMARK VINA RESULT:      -8.0      9.405     12.690
REMARK  4 active torsions:
REMARK  status: ('A' for Active; 'I' for Inactive)
REMARK    1  A    between atoms: C_10  and  O_29 
REMARK    2  A    between atoms: C_13  and  C_17 
REMARK       I    between atoms: C_17  and  N_19 
REMARK    3  A    between atoms: N_19  and  C_20 
REMARK    4  A    between atoms: C_20  and  C_21 
ROOT
HETATM    1  C   UNK N   1      33.590  17.561   5.985  0.00  0.00     0.034 C 
HETATM    2  C   UNK N   1      32.991  16.242   6.438  0.00  0.00     0.110 C 
HETATM    3  C   UNK N   1      33.134  15.210   5.330  0.00  0.00     0.195 C 
HETATM    4  O   UNK N   1      33.691  14.021   5.871  0.00  0.00    -0.363 OA
HETATM    5  C   UNK N   1      34.347  14.404   7.057  0.00  0.00     0.244 C 
HETATM    6  N   UNK N   1      33.772  15.647   7.461  0.00  0.00    -0.312 N 
HETATM    7  C   UNK N   1      33.954  16.141   8.719  0.00  0.00     0.276 C 
HETATM    8  O   UNK N   1      33.536  17.248   9.023  0.00  0.00    -0.266 OA
HETATM    9  C   UNK N   1      34.616  15.261   9.720  0.00  0.00     0.141 A 
HETATM   10  C   UNK N   1      35.090  15.731  10.966  0.00  0.00     0.150 A 
HETATM   11  C   UNK N   1      35.701  14.832  11.860  0.00  0.00     0.224 A 
HETATM   12  O   UNK N   1      36.119  15.229  12.934  0.00  0.00    -0.284 OA
HETATM   13  C   UNK N   1      35.826  13.476  11.499  0.00  0.00     0.100 A 
HETATM   14  C   UNK N   1      35.326  13.065  10.262  0.00  0.00     0.113 A 
HETATM   15  N   UNK N   1      34.741  13.930   9.408  0.00  0.00    -0.345 N 
HETATM   16  C   UNK N   1      34.176  13.388   8.167  0.00  0.00     0.182 C 
ENDROOT
BRANCH  13  17
HETATM   17  C   UNK N   1      36.452  12.429  12.343  0.00  0.00     0.257 C 
HETATM   18  O   UNK N   1      37.174  11.562  11.873  0.00  0.00    -0.267 OA
HETATM   19  N   UNK N   1      36.180  12.464  13.668  0.00  0.00    -0.352 N 
HETATM   20  H   UNK N   1      35.594  13.195  13.971  0.00  0.00     0.163 HD
BRANCH  19  21
HETATM   21  C   UNK N   1      36.646  11.563  14.681  0.00  0.00     0.164 C 
BRANCH  21  22
HETATM   22  C   UNK N   1      36.114  11.991  16.035  0.00  0.00    -0.002 A 
HETATM   23  C   UNK N   1      35.858  13.353  16.236  0.00  0.00     0.015 A 
HETATM   24  C   UNK N   1      35.367  13.813  17.462  0.00  0.00     0.043 A 
HETATM   25  C   UNK N   1      35.129  12.915  18.505  0.00  0.00     0.119 A 
HETATM   26  C   UNK N   1      35.380  11.559  18.326  0.00  0.00     0.085 A 
HETATM   27  F   UNK N   1      34.655  13.359  19.694  0.00  0.00    -0.206 F 
HETATM   28  C   UNK N   1      35.869  11.085  17.108  0.00  0.00     0.127 A 
HETATM   29  F   UNK N   1      36.096   9.753  16.999  0.00  0.00    -0.205 F 
ENDBRANCH  21  22
ENDBRANCH  19  21
ENDBRANCH  13  17
BRANCH  10  30
HETATM   30  O   UNK N   1      34.970  17.030  11.300  0.00  0.00    -0.355 OA
HETATM   31  H   UNK N   1      35.329  17.694  10.746  0.00  0.00     0.218 HD
ENDBRANCH  10  30
TORSDOF 4
ENDMDL
MODEL 3
REMARK VINA RESULT:      -7.8      6.892     10.433
REMARK  4 active torsions:
REMARK  status: ('A' for Active; 'I' for Inactive)
REMARK    1  A    between atoms: C_10  and  O_29 
REMARK    2  A    between atoms: C_13  and  C_17 
REMARK       I    between atoms: C_17  and  N_19 
REMARK    3  A    between atoms: N_19  and  C_20 
REMARK    4  A    between atoms: C_20  and  C_21 
ROOT
HETATM    1  C   UNK N   1      30.238  16.768   4.646  0.00  0.00     0.034 C 
HETATM    2  C   UNK N   1      30.171  15.689   5.711  0.00  0.00     0.110 C 
HETATM    3  C   UNK N   1      30.144  14.320   5.050  0.00  0.00     0.195 C 
HETATM    4  O   UNK N   1      31.122  13.489   5.659  0.00  0.00    -0.363 OA
HETATM    5  C   UNK N   1      32.051  14.361   6.260  0.00  0.00     0.244 C 
HETATM    6  N   UNK N   1      31.385  15.610   6.440  0.00  0.00    -0.312 N 
HETATM    7  C   UNK N   1      31.886  16.572   7.267  0.00  0.00     0.276 C 
HETATM    8  O   UNK N   1      31.358  17.672   7.340  0.00  0.00    -0.266 OA
HETATM    9  C   UNK N   1      33.051  16.214   8.121  0.00  0.00     0.141 A 
HETATM   10  C   UNK N   1      33.817  17.174   8.821  0.00  0.00     0.150 A 
HETATM   11  C   UNK N   1      34.902  16.751   9.612  0.00  0.00     0.224 A 
HETATM   12  O   UNK N   1      35.573  17.572  10.215  0.00  0.00    -0.284 OA
HETATM   13  C   UNK N   1      35.205  15.378   9.695  0.00  0.00     0.100 A 
HETATM   14  C   UNK N   1      34.405  14.474   8.993  0.00  0.00     0.113 A 
HETATM   15  N   UNK N   1      33.365  14.883   8.237  0.00  0.00    -0.345 N 
HETATM   16  C   UNK N   1      32.536  13.852   7.602  0.00  0.00     0.182 C 
ENDROOT
BRANCH  13  17
HETATM   17  C   UNK N   1      36.320  14.803  10.486  0.00  0.00     0.257 C 
HETATM   18  O   UNK N   1      37.491  14.969  10.173  0.00  0.00    -0.267 OA
HETATM   19  N   UNK N   1      35.989  14.069  11.572  0.00  0.00    -0.352 N 
HETATM   20  H   UNK N   1      35.026  13.984  11.762  0.00  0.00     0.163 HD
BRANCH  19  21
HETATM   21  C   UNK N   1      36.875  13.401  12.481  0.00  0.00     0.164 C 
BRANCH  21  22
HETATM   22  C   UNK N   1      36.222  13.284  13.844  0.00  0.00    -0.002 A 
HETATM   23  C   UNK N   1      36.789  14.002  14.904  0.00  0.00     0.015 A 
HETATM   24  C   UNK N   1      36.235  13.937  16.187  0.00  0.00     0.043 A 
HETATM   25  C   UNK N   1      35.106  13.149  16.425  0.00  0.00     0.119 A 
HETATM   26  C   UNK N   1      34.530  12.427  15.386  0.00  0.00     0.085 A 
HETATM   27  F   UNK N   1      34.569  13.083  17.667  0.00  0.00    -0.206 F 
HETATM   28  C   UNK N   1      35.071  12.483  14.101  0.00  0.00     0.127 A 
HETATM   29  F   UNK N   1      34.465  11.752  13.132  0.00  0.00    -0.205 F 
ENDBRANCH  21  22
ENDBRANCH  19  21
ENDBRANCH  13  17
BRANCH  10  30
HETATM   30  O   UNK N   1      33.524  18.485   8.732  0.00  0.00    -0.355 OA
HETATM   31  H   UNK N   1      33.260  18.961   9.494  0.00  0.00     0.218 HD
ENDBRANCH  10  30
TORSDOF 4
ENDMDL
MODEL 4
REMARK VINA RESULT:      -7.8     11.528     14.551
REMARK  4 active torsions:
REMARK  status: ('A' for Active; 'I' for Inactive)
REMARK    1  A    between atoms: C_10  and  O_29 
REMARK    2  A    between atoms: C_13  and  C_17 
REMARK       I    between atoms: C_17  and  N_19 
REMARK    3  A    between atoms: N_19  and  C_20 
REMARK    4  A    between atoms: C_20  and  C_21 
ROOT
HETATM    1  C   UNK N   1      34.876  17.992  -5.835  0.00  0.00     0.034 C 
HETATM    2  C   UNK N   1      34.799  19.384  -6.436  0.00  0.00     0.110 C 
HETATM    3  C   UNK N   1      34.387  19.286  -7.896  0.00  0.00     0.195 C 
HETATM    4  O   UNK N   1      33.315  20.186  -8.138  0.00  0.00    -0.363 OA
HETATM    5  C   UNK N   1      32.727  20.435  -6.883  0.00  0.00     0.244 C 
HETATM    6  N   UNK N   1      33.710  20.116  -5.898  0.00  0.00    -0.312 N 
HETATM    7  C   UNK N   1      33.584  20.530  -4.605  0.00  0.00     0.276 C 
HETATM    8  O   UNK N   1      34.383  20.172  -3.753  0.00  0.00    -0.266 OA
HETATM    9  C   UNK N   1      32.486  21.483  -4.286  0.00  0.00     0.141 A 
HETATM   10  C   UNK N   1      32.090  21.787  -2.964  0.00  0.00     0.150 A 
HETATM   11  C   UNK N   1      31.043  22.703  -2.748  0.00  0.00     0.224 A 
HETATM   12  O   UNK N   1      30.689  22.968  -1.611  0.00  0.00    -0.284 OA
HETATM   13  C   UNK N   1      30.410  23.305  -3.853  0.00  0.00     0.100 A 
HETATM   14  C   UNK N   1      30.853  22.977  -5.136  0.00  0.00     0.113 A 
HETATM   15  N   UNK N   1      31.857  22.099  -5.340  0.00  0.00    -0.345 N 
HETATM   16  C   UNK N   1      32.304  21.881  -6.720  0.00  0.00     0.182 C 
ENDROOT
BRANCH  13  17
HETATM   17  C   UNK N   1      29.295  24.279  -3.764  0.00  0.00     0.257 C 
HETATM   18  O   UNK N   1      29.488  25.487  -3.760  0.00  0.00    -0.267 OA
HETATM   19  N   UNK N   1      28.044  23.775  -3.675  0.00  0.00    -0.352 N 
HETATM   20  H   UNK N   1      27.969  22.793  -3.689  0.00  0.00     0.163 HD
BRANCH  19  21
HETATM   21  C   UNK N   1      26.813  24.503  -3.562  0.00  0.00     0.164 C 
BRANCH  21  22
HETATM   22  C   UNK N   1      26.428  25.074  -4.913  0.00  0.00    -0.002 A 
HETATM   23  C   UNK N   1      26.444  24.213  -6.016  0.00  0.00     0.015 A 
HETATM   24  C   UNK N   1      26.100  24.678  -7.290  0.00  0.00     0.043 A 
HETATM   25  C   UNK N   1      25.737  26.014  -7.475  0.00  0.00     0.119 A 
HETATM   26  C   UNK N   1      25.718  26.886  -6.392  0.00  0.00     0.085 A 
HETATM   27  F   UNK N   1      25.405  26.467  -8.708  0.00  0.00    -0.206 F 
HETATM   28  C   UNK N   1      26.058  26.436  -5.116  0.00  0.00     0.127 A 
HETATM   29  F   UNK N   1      26.023  27.337  -4.103  0.00  0.00    -0.205 F 
ENDBRANCH  21  22
ENDBRANCH  19  21
ENDBRANCH  13  17
BRANCH  10  30
HETATM   30  O   UNK N   1      32.697  21.204  -1.913  0.00  0.00    -0.355 OA
HETATM   31  H   UNK N   1      33.243  21.710  -1.345  0.00  0.00     0.218 HD
ENDBRANCH  10  30
TORSDOF 4
ENDMDL
MODEL 5
REMARK VINA RESULT:      -7.8      8.635     11.983
REMARK  4 active torsions:
REMARK  status: ('A' for Active; 'I' for Inactive)
REMARK    1  A    between atoms: C_10  and  O_29 
REMARK    2  A    between atoms: C_13  and  C_17 
REMARK       I    between atoms: C_17  and  N_19 
REMARK    3  A    between atoms: N_19  and  C_20 
REMARK    4  A    between atoms: C_20  and  C_21 
ROOT
HETATM    1  C   UNK N   1      33.061  17.562   4.502  0.00  0.00     0.034 C 
HETATM    2  C   UNK N   1      32.993  16.087   4.853  0.00  0.00     0.110 C 
HETATM    3  C   UNK N   1      33.599  15.266   3.727  0.00  0.00     0.195 C 
HETATM    4  O   UNK N   1      34.537  14.348   4.271  0.00  0.00    -0.363 OA
HETATM    5  C   UNK N   1      34.913  14.875   5.522  0.00  0.00     0.244 C 
HETATM    6  N   UNK N   1      33.875  15.771   5.919  0.00  0.00    -0.312 N 
HETATM    7  C   UNK N   1      33.767  16.211   7.205  0.00  0.00     0.276 C 
HETATM    8  O   UNK N   1      32.933  17.050   7.511  0.00  0.00    -0.266 OA
HETATM    9  C   UNK N   1      34.651  15.589   8.227  0.00  0.00     0.141 A 
HETATM   10  C   UNK N   1      34.822  16.121   9.525  0.00  0.00     0.150 A 
HETATM   11  C   UNK N   1      35.674  15.467  10.436  0.00  0.00     0.224 A 
HETATM   12  O   UNK N   1      35.833  15.922  11.556  0.00  0.00    -0.284 OA
HETATM   13  C   UNK N   1      36.340  14.291  10.039  0.00  0.00     0.100 A 
HETATM   14  C   UNK N   1      36.121  13.803   8.749  0.00  0.00     0.113 A 
HETATM   15  N   UNK N   1      35.303  14.432   7.879  0.00  0.00    -0.345 N 
HETATM   16  C   UNK N   1      35.077  13.799   6.575  0.00  0.00     0.182 C 
ENDROOT
BRANCH  13  17
HETATM   17  C   UNK N   1      37.265  13.511  10.896  0.00  0.00     0.257 C 
HETATM   18  O   UNK N   1      38.420  13.282  10.564  0.00  0.00    -0.267 OA
HETATM   19  N   UNK N   1      36.775  13.048  12.068  0.00  0.00    -0.352 N 
HETATM   20  H   UNK N   1      35.838  13.278  12.267  0.00  0.00     0.163 HD
BRANCH  19  21
HETATM   21  C   UNK N   1      37.459  12.263  13.054  0.00  0.00     0.164 C 
BRANCH  21  22
HETATM   22  C   UNK N   1      36.790  12.436  14.404  0.00  0.00    -0.002 A 
HETATM   23  C   UNK N   1      36.433  11.281  15.109  0.00  0.00     0.015 A 
HETATM   24  C   UNK N   1      35.813  11.372  16.360  0.00  0.00     0.043 A 
HETATM   25  C   UNK N   1      35.540  12.623  16.919  0.00  0.00     0.119 A 
HETATM   26  C   UNK N   1      35.885  13.782  16.233  0.00  0.00     0.085 A 
HETATM   27  F   UNK N   1      34.938  12.713  18.129  0.00  0.00    -0.206 F 
HETATM   28  C   UNK N   1      36.505  13.706  14.985  0.00  0.00     0.127 A 
HETATM   29  F   UNK N   1      36.812  14.873  14.366  0.00  0.00    -0.205 F 
ENDBRANCH  21  22
ENDBRANCH  19  21
ENDBRANCH  13  17
BRANCH  10  30
HETATM   30  O   UNK N   1      34.185  17.248   9.895  0.00  0.00    -0.355 OA
HETATM   31  H   UNK N   1      34.480  17.733  10.640  0.00  0.00     0.218 HD
ENDBRANCH  10  30
TORSDOF 4
ENDMDL
MODEL 6
REMARK VINA RESULT:      -7.7      7.148     12.703
REMARK  4 active torsions:
REMARK  status: ('A' for Active; 'I' for Inactive)
REMARK    1  A    between atoms: C_10  and  O_29 
REMARK    2  A    between atoms: C_13  and  C_17 
REMARK       I    between atoms: C_17  and  N_19 
REMARK    3  A    between atoms: N_19  and  C_20 
REMARK    4  A    between atoms: C_20  and  C_21 
ROOT
HETATM    1  C   UNK N   1      35.710   9.983  14.284  0.00  0.00     0.034 C 
HETATM    2  C   UNK N   1      35.937   9.974  12.783  0.00  0.00     0.110 C 
HETATM    3  C   UNK N   1      35.036   8.933  12.138  0.00  0.00     0.195 C 
HETATM    4  O   UNK N   1      34.350   9.524  11.044  0.00  0.00    -0.363 OA
HETATM    5  C   UNK N   1      34.368  10.912  11.280  0.00  0.00     0.244 C 
HETATM    6  N   UNK N   1      35.446  11.161  12.182  0.00  0.00    -0.312 N 
HETATM    7  C   UNK N   1      35.938  12.419  12.375  0.00  0.00     0.276 C 
HETATM    8  O   UNK N   1      36.796  12.632  13.218  0.00  0.00    -0.266 OA
HETATM    9  C   UNK N   1      35.443  13.502  11.482  0.00  0.00     0.141 A 
HETATM   10  C   UNK N   1      35.671  14.873  11.735  0.00  0.00     0.150 A 
HETATM   11  C   UNK N   1      35.172  15.836  10.836  0.00  0.00     0.224 A 
HETATM   12  O   UNK N   1      35.358  17.022  11.048  0.00  0.00    -0.284 OA
HETATM   13  C   UNK N   1      34.456  15.415   9.698  0.00  0.00     0.100 A 
HETATM   14  C   UNK N   1      34.275  14.046   9.492  0.00  0.00     0.113 A 
HETATM   15  N   UNK N   1      34.755  13.126  10.355  0.00  0.00    -0.345 N 
HETATM   16  C   UNK N   1      34.581  11.711  10.010  0.00  0.00     0.182 C 
ENDROOT
BRANCH  13  17
HETATM   17  C   UNK N   1      33.875  16.323   8.680  0.00  0.00     0.257 C 
HETATM   18  O   UNK N   1      34.172  16.246   7.496  0.00  0.00    -0.267 OA
HETATM   19  N   UNK N   1      33.002  17.259   9.117  0.00  0.00    -0.352 N 
HETATM   20  H   UNK N   1      32.810  17.255  10.083  0.00  0.00     0.163 HD
BRANCH  19  21
HETATM   21  C   UNK N   1      32.324  18.254   8.339  0.00  0.00     0.164 C 
BRANCH  21  22
HETATM   22  C   UNK N   1      30.882  17.841   8.119  0.00  0.00    -0.002 A 
HETATM   23  C   UNK N   1      30.588  17.072   6.986  0.00  0.00     0.015 A 
HETATM   24  C   UNK N   1      29.277  16.659   6.726  0.00  0.00     0.043 A 
HETATM   25  C   UNK N   1      28.243  17.013   7.594  0.00  0.00     0.119 A 
HETATM   26  C   UNK N   1      28.514  17.779   8.723  0.00  0.00     0.085 A 
HETATM   27  F   UNK N   1      26.973  16.616   7.342  0.00  0.00    -0.206 F 
HETATM   28  C   UNK N   1      29.817  18.197   8.997  0.00  0.00     0.127 A 
HETATM   29  F   UNK N   1      30.015  18.945  10.111  0.00  0.00    -0.205 F 
ENDBRANCH  21  22
ENDBRANCH  19  21
ENDBRANCH  13  17
BRANCH  10  30
HETATM   30  O   UNK N   1      36.352  15.267  12.828  0.00  0.00    -0.355 OA
HETATM   31  H   UNK N   1      37.259  15.053  12.919  0.00  0.00     0.218 HD
ENDBRANCH  10  30
TORSDOF 4
ENDMDL
MODEL 7
REMARK VINA RESULT:      -7.7      1.392      1.722
REMARK  4 active torsions:
REMARK  status: ('A' for Active; 'I' for Inactive)
REMARK    1  A    between atoms: C_10  and  O_29 
REMARK    2  A    between atoms: C_13  and  C_17 
REMARK       I    between atoms: C_17  and  N_19 
REMARK    3  A    between atoms: N_19  and  C_20 
REMARK    4  A    between atoms: C_20  and  C_21 
ROOT
HETATM    1  C   UNK N   1      20.678  20.705   1.269  0.00  0.00     0.034 C 
HETATM    2  C   UNK N   1      20.690  20.315   2.736  0.00  0.00     0.110 C 
HETATM    3  C   UNK N   1      19.667  19.217   2.980  0.00  0.00     0.195 C 
HETATM    4  O   UNK N   1      20.282  18.161   3.703  0.00  0.00    -0.363 OA
HETATM    5  C   UNK N   1      21.666  18.292   3.480  0.00  0.00     0.244 C 
HETATM    6  N   UNK N   1      21.891  19.644   3.079  0.00  0.00    -0.312 N 
HETATM    7  C   UNK N   1      23.140  20.190   3.084  0.00  0.00     0.276 C 
HETATM    8  O   UNK N   1      23.333  21.316   2.650  0.00  0.00    -0.266 OA
HETATM    9  C   UNK N   1      24.242  19.397   3.694  0.00  0.00     0.141 A 
HETATM   10  C   UNK N   1      25.607  19.727   3.539  0.00  0.00     0.150 A 
HETATM   11  C   UNK N   1      26.588  18.926   4.154  0.00  0.00     0.224 A 
HETATM   12  O   UNK N   1      27.769  19.198   4.021  0.00  0.00    -0.284 OA
HETATM   13  C   UNK N   1      26.192  17.810   4.917  0.00  0.00     0.100 A 
HETATM   14  C   UNK N   1      24.828  17.541   5.048  0.00  0.00     0.113 A 
HETATM   15  N   UNK N   1      23.891  18.311   4.458  0.00  0.00    -0.345 N 
HETATM   16  C   UNK N   1      22.482  17.994   4.721  0.00  0.00     0.182 C 
ENDROOT
BRANCH  13  17
HETATM   17  C   UNK N   1      27.121  16.885   5.610  0.00  0.00     0.257 C 
HETATM   18  O   UNK N   1      26.908  15.683   5.680  0.00  0.00    -0.267 OA
HETATM   19  N   UNK N   1      28.221  17.430   6.178  0.00  0.00    -0.352 N 
HETATM   20  H   UNK N   1      28.325  18.404   6.076  0.00  0.00     0.163 HD
BRANCH  19  21
HETATM   21  C   UNK N   1      29.252  16.756   6.912  0.00  0.00     0.164 C 
BRANCH  21  22
HETATM   22  C   UNK N   1      30.491  16.618   6.050  0.00  0.00    -0.002 A 
HETATM   23  C   UNK N   1      30.558  17.375   4.874  0.00  0.00     0.015 A 
HETATM   24  C   UNK N   1      31.673  17.294   4.035  0.00  0.00     0.043 A 
HETATM   25  C   UNK N   1      32.737  16.449   4.360  0.00  0.00     0.119 A 
HETATM   26  C   UNK N   1      32.689  15.686   5.522  0.00  0.00     0.085 A 
HETATM   27  F   UNK N   1      33.818  16.367   3.548  0.00  0.00    -0.206 F 
HETATM   28  C   UNK N   1      31.583  15.758   6.370  0.00  0.00     0.127 A 
HETATM   29  F   UNK N   1      31.595  14.986   7.485  0.00  0.00    -0.205 F 
ENDBRANCH  21  22
ENDBRANCH  19  21
ENDBRANCH  13  17
BRANCH  10  30
HETATM   30  O   UNK N   1      25.977  20.792   2.803  0.00  0.00    -0.355 OA
HETATM   31  H   UNK N   1      26.874  20.907   2.559  0.00  0.00     0.218 HD
ENDBRANCH  10  30
TORSDOF 4
ENDMDL
MODEL 8
REMARK VINA RESULT:      -7.7      9.522     13.438
REMARK  4 active torsions:
REMARK  status: ('A' for Active; 'I' for Inactive)
REMARK    1  A    between atoms: C_10  and  O_29 
REMARK    2  A    between atoms: C_13  and  C_17 
REMARK       I    between atoms: C_17  and  N_19 
REMARK    3  A    between atoms: N_19  and  C_20 
REMARK    4  A    between atoms: C_20  and  C_21 
ROOT
HETATM    1  C   UNK N   1      32.634  16.987   7.431  0.00  0.00     0.034 C 
HETATM    2  C   UNK N   1      34.121  16.910   7.727  0.00  0.00     0.110 C 
HETATM    3  C   UNK N   1      34.584  18.213   8.357  0.00  0.00     0.195 C 
HETATM    4  O   UNK N   1      35.332  17.924   9.530  0.00  0.00    -0.363 OA
HETATM    5  C   UNK N   1      34.942  16.631   9.929  0.00  0.00     0.244 C 
HETATM    6  N   UNK N   1      34.390  15.994   8.776  0.00  0.00    -0.312 N 
HETATM    7  C   UNK N   1      34.201  14.645   8.730  0.00  0.00     0.276 C 
HETATM    8  O   UNK N   1      33.641  14.124   7.776  0.00  0.00    -0.266 OA
HETATM    9  C   UNK N   1      34.756  13.828   9.842  0.00  0.00     0.141 A 
HETATM   10  C   UNK N   1      34.416  12.471  10.047  0.00  0.00     0.150 A 
HETATM   11  C   UNK N   1      34.990  11.767  11.122  0.00  0.00     0.224 A 
HETATM   12  O   UNK N   1      34.699  10.598  11.311  0.00  0.00    -0.284 OA
HETATM   13  C   UNK N   1      35.898  12.426  11.975  0.00  0.00     0.100 A 
HETATM   14  C   UNK N   1      36.208  13.762  11.716  0.00  0.00     0.113 A 
HETATM   15  N   UNK N   1      35.656  14.434  10.684  0.00  0.00    -0.345 N 
HETATM   16  C   UNK N   1      36.105  15.810  10.446  0.00  0.00     0.182 C 
ENDROOT
BRANCH  13  17
HETATM   17  C   UNK N   1      36.567  11.803  13.143  0.00  0.00     0.257 C 
HETATM   18  O   UNK N   1      37.779  11.855  13.300  0.00  0.00    -0.267 OA
HETATM   19  N   UNK N   1      35.779  11.158  14.032  0.00  0.00    -0.352 N 
HETATM   20  H   UNK N   1      34.813  11.163  13.838  0.00  0.00     0.163 HD
BRANCH  19  21
HETATM   21  C   UNK N   1      36.184  10.468  15.221  0.00  0.00     0.164 C 
BRANCH  21  22
HETATM   22  C   UNK N   1      35.800  11.279  16.443  0.00  0.00    -0.002 A 
HETATM   23  C   UNK N   1      35.419  12.612  16.250  0.00  0.00     0.015 A 
HETATM   24  C   UNK N   1      35.053  13.415  17.335  0.00  0.00     0.043 A 
HETATM   25  C   UNK N   1      35.068  12.893  18.631  0.00  0.00     0.119 A 
HETATM   26  C   UNK N   1      35.447  11.572  18.844  0.00  0.00     0.085 A 
HETATM   27  F   UNK N   1      34.717  13.669  19.684  0.00  0.00    -0.206 F 
HETATM   28  C   UNK N   1      35.812  10.759  17.771  0.00  0.00     0.127 A 
HETATM   29  F   UNK N   1      36.175   9.482  18.046  0.00  0.00    -0.205 F 
ENDBRANCH  21  22
ENDBRANCH  19  21
ENDBRANCH  13  17
BRANCH  10  30
HETATM   30  O   UNK N   1      33.544  11.851   9.230  0.00  0.00    -0.355 OA
HETATM   31  H   UNK N   1      32.637  12.085   9.244  0.00  0.00     0.218 HD
ENDBRANCH  10  30
TORSDOF 4
ENDMDL
MODEL 9
REMARK VINA RESULT:      -7.7      7.367     13.230
REMARK  4 active torsions:
REMARK  status: ('A' for Active; 'I' for Inactive)
REMARK    1  A    between atoms: C_10  and  O_29 
REMARK    2  A    between atoms: C_13  and  C_17 
REMARK       I    between atoms: C_17  and  N_19 
REMARK    3  A    between atoms: N_19  and  C_20 
REMARK    4  A    between atoms: C_20  and  C_21 
ROOT
HETATM    1  C   UNK N   1      37.680   9.717  13.296  0.00  0.00     0.034 C 
HETATM    2  C   UNK N   1      36.645  10.667  13.872  0.00  0.00     0.110 C 
HETATM    3  C   UNK N   1      37.237  11.404  15.062  0.00  0.00     0.195 C 
HETATM    4  O   UNK N   1      37.001  12.796  14.912  0.00  0.00    -0.363 OA
HETATM    5  C   UNK N   1      36.778  13.006  13.538  0.00  0.00     0.244 C 
HETATM    6  N   UNK N   1      36.391  11.746  12.988  0.00  0.00    -0.312 N 
HETATM    7  C   UNK N   1      35.806  11.655  11.759  0.00  0.00     0.276 C 
HETATM    8  O   UNK N   1      35.566  10.565  11.260  0.00  0.00    -0.266 OA
HETATM    9  C   UNK N   1      35.414  12.920  11.082  0.00  0.00     0.141 A 
HETATM   10  C   UNK N   1      35.042  12.982   9.720  0.00  0.00     0.150 A 
HETATM   11  C   UNK N   1      34.679  14.220   9.156  0.00  0.00     0.224 A 
HETATM   12  O   UNK N   1      34.362  14.285   7.980  0.00  0.00    -0.284 OA
HETATM   13  C   UNK N   1      34.691  15.377   9.960  0.00  0.00     0.100 A 
HETATM   14  C   UNK N   1      35.053  15.253  11.302  0.00  0.00     0.113 A 
HETATM   15  N   UNK N   1      35.399  14.065  11.840  0.00  0.00    -0.345 N 
HETATM   16  C   UNK N   1      35.687  14.024  13.278  0.00  0.00     0.182 C 
ENDROOT
BRANCH  13  17
HETATM   17  C   UNK N   1      34.337  16.738   9.490  0.00  0.00     0.257 C 
HETATM   18  O   UNK N   1      35.145  17.656   9.493  0.00  0.00    -0.267 OA
HETATM   19  N   UNK N   1      33.069  16.931   9.063  0.00  0.00    -0.352 N 
HETATM   20  H   UNK N   1      32.479  16.143   9.086  0.00  0.00     0.163 HD
BRANCH  19  21
HETATM   21  C   UNK N   1      32.483  18.148   8.580  0.00  0.00     0.164 C 
BRANCH  21  22
HETATM   22  C   UNK N   1      31.043  17.901   8.176  0.00  0.00    -0.002 A 
HETATM   23  C   UNK N   1      30.808  17.187   6.995  0.00  0.00     0.015 A 
HETATM   24  C   UNK N   1      29.502  16.926   6.567  0.00  0.00     0.043 A 
HETATM   25  C   UNK N   1      28.413  17.380   7.315  0.00  0.00     0.119 A 
HETATM   26  C   UNK N   1      28.626  18.093   8.490  0.00  0.00     0.085 A 
HETATM   27  F   UNK N   1      27.148  17.130   6.901  0.00  0.00    -0.206 F 
HETATM   28  C   UNK N   1      29.923  18.359   8.931  0.00  0.00     0.127 A 
HETATM   29  F   UNK N   1      30.063  19.062  10.082  0.00  0.00    -0.205 F 
ENDBRANCH  21  22
ENDBRANCH  19  21
ENDBRANCH  13  17
BRANCH  10  30
HETATM   30  O   UNK N   1      35.038  11.872   8.957  0.00  0.00    -0.355 OA
HETATM   31  H   UNK N   1      35.139  11.029   9.353  0.00  0.00     0.218 HD
ENDBRANCH  10  30
TORSDOF 4
ENDMDL
