MODEL 1
REMARK VINA RESULT:      -9.2      0.000      0.000
REMARK  14 active torsions:
REMARK  status: ('A' for Active; 'I' for Inactive)
REMARK    1  A    between atoms: C_2  and  O_1 
REMARK    2  A    between atoms: C_50  and  O_1 
REMARK    3  A    between atoms: C_5  and  O_58 
REMARK    4  A    between atoms: C_6  and  O_14 
REMARK    5  A    between atoms: C_8  and  O_58 
REMARK    6  A    between atoms: C_27  and  O_28 
REMARK    7  A    between atoms: C_32  and  O_33 
REMARK    8  A    between atoms: C_37  and  O_55 
REMARK    9  A    between atoms: C_38  and  C_44 
REMARK   10  A    between atoms: C_39  and  C_41 
REMARK   11  A    between atoms: C_39  and  O_40 
REMARK   12  A    between atoms: C_44  and  O_45 
REMARK   13  A    between atoms: C_47  and  O_55 
REMARK   14  A    between atoms: C_51  and  N_53 
ROOT
HETATM    1  C   UNK N   1      21.162  12.385  11.328  0.00  0.00     0.017 A 
HETATM    2  C   UNK N   1      21.796  11.958  12.494  0.00  0.00     0.004 A 
HETATM    3  C   UNK N   1      23.187  11.901  12.550  0.00  0.00     0.037 A 
HETATM    4  C   UNK N   1      21.913  12.770  10.209  0.00  0.00     0.032 A 
HETATM    5  C   UNK N   1      23.324  12.717  10.256  0.00  0.00     0.062 A 
HETATM    6  C   UNK N   1      21.224  13.258   8.994  0.00  0.00     0.194 C 
HETATM    7  O   UNK N   1      20.000  13.263   8.946  0.00  0.00    -0.287 OA
HETATM    8  C   UNK N   1      24.109  13.162   9.071  0.00  0.00     0.199 C 
HETATM    9  O   UNK N   1      25.329  13.058   9.075  0.00  0.00    -0.286 OA
HETATM   10  C   UNK N   1      23.955  12.272  11.444  0.00  0.00     0.080 A 
HETATM   11  C   UNK N   1      22.008  13.826   7.877  0.00  0.00     0.032 A 
HETATM   12  C   UNK N   1      23.418  13.802   7.911  0.00  0.00     0.063 A 
HETATM   13  C   UNK N   1      21.344  14.448   6.813  0.00  0.00     0.025 A 
HETATM   14  C   UNK N   1      24.144  14.449   6.885  0.00  0.00     0.090 A 
HETATM   15  C   UNK N   1      22.053  15.111   5.809  0.00  0.00    -0.029 A 
HETATM   16  C   UNK N   1      23.468  15.149   5.862  0.00  0.00     0.012 A 
HETATM   17  C   UNK N   1      23.367  17.034   4.183  0.00  0.00     0.076 C 
HETATM   18  C   UNK N   1      24.257  15.978   4.858  0.00  0.00     0.163 C 
HETATM   19  C   UNK N   1      21.305  15.837   4.703  0.00  0.00     0.153 C 
HETATM   20  C   UNK N   1      22.114  16.468   3.563  0.00  0.00     0.077 C 
ENDROOT
BRANCH  18  21
HETATM   21  O   UNK N   1      25.281  16.696   5.509  0.00  0.00    -0.351 OA
BRANCH  21  22
HETATM   22  C   UNK N   1      26.465  16.697   4.729  0.00  0.00     0.263 C 
HETATM   23  C   UNK N   1      26.724  15.479   3.807  0.00  0.00     0.099 C 
HETATM   24  C   UNK N   1      27.488  14.431   4.614  0.00  0.00     0.258 C 
HETATM   25  C   UNK N   1      28.706  15.021   5.373  0.00  0.00     0.186 C 
HETATM   26  C   UNK N   1      28.136  16.160   6.226  0.00  0.00     0.151 C 
HETATM   27  O   UNK N   1      27.607  17.184   5.414  0.00  0.00    -0.354 OA
HETATM   28  C   UNK N   1      29.190  16.729   7.158  0.00  0.00     0.042 C 
BRANCH  24  29
HETATM   29  N   UNK N   1      27.577  13.091   4.011  0.00  0.00     0.087 N 
HETATM   30  C   UNK N   1      26.854  13.053   2.750  0.00  0.00     0.310 C 
HETATM   31  C   UNK N   1      27.071  12.031   4.866  0.00  0.00     0.310 C 
ENDBRANCH  24  29
BRANCH  25  32
HETATM   32  O   UNK N   1      29.844  15.487   4.657  0.00  0.00    -0.351 OA
BRANCH  32  33
HETATM   33  C   UNK N   1      30.190  14.719   3.529  0.00  0.00     0.263 C 
HETATM   34  C   UNK N   1      30.790  13.390   3.974  0.00  0.00     0.095 C 
HETATM   35  C   UNK N   1      32.154  13.604   4.634  0.00  0.00     0.154 C 
HETATM   36  C   UNK N   1      32.648  15.054   4.545  0.00  0.00     0.182 C 
HETATM   37  C   UNK N   1      32.400  15.524   3.082  0.00  0.00     0.152 C 
HETATM   38  O   UNK N   1      31.051  15.418   2.642  0.00  0.00    -0.354 OA
HETATM   39  C   UNK N   1      32.855  16.944   2.802  0.00  0.00     0.042 C 
BRANCH  35  40
HETATM   40  O   UNK N   1      32.111  13.181   5.962  0.00  0.00    -0.393 OA
HETATM   41  H   UNK N   1      31.935  13.111   6.913  0.00  0.00     0.210 HD
ENDBRANCH  35  40
BRANCH  36  42
HETATM   42  O   UNK N   1      34.010  15.072   4.925  0.00  0.00    -0.351 OA
BRANCH  42  43
HETATM   43  C   UNK N   1      34.257  15.683   6.185  0.00  0.00     0.261 C 
HETATM   44  C   UNK N   1      33.542  17.024   6.162  0.00  0.00     0.068 C 
HETATM   45  C   UNK N   1      33.886  17.850   7.380  0.00  0.00     0.086 C 
HETATM   46  C   UNK N   1      34.127  17.013   8.596  0.00  0.00     0.155 C 
HETATM   47  C   UNK N   1      34.135  15.494   8.541  0.00  0.00     0.190 C 
HETATM   48  O   UNK N   1      34.373  17.575   9.652  0.00  0.00    -0.295 OA
HETATM   49  O   UNK N   1      33.808  14.913   7.289  0.00  0.00    -0.349 OA
HETATM   50  C   UNK N   1      33.126  14.979   9.554  0.00  0.00     0.048 C 
ENDBRANCH  42  43
ENDBRANCH  36  42
ENDBRANCH  32  33
ENDBRANCH  25  32
ENDBRANCH  21  22
ENDBRANCH  18  21
BRANCH  14  51
HETATM   51  O   UNK N   1      25.492  14.451   6.914  0.00  0.00    -0.359 OA
HETATM   52  H   UNK N   1      25.968  15.149   6.508  0.00  0.00     0.217 HD
ENDBRANCH  14  51
BRANCH  20  53
HETATM   53  C   UNK N   1      22.520  15.472   2.469  0.00  0.00     0.034 C 
HETATM   54  C   UNK N   1      21.511  15.345   1.341  0.00  0.00     0.008 C 
ENDBRANCH  20  53
BRANCH  20  55
HETATM   55  O   UNK N   1      21.407  17.534   3.002  0.00  0.00    -0.389 OA
HETATM   56  H   UNK N   1      20.997  18.317   3.404  0.00  0.00     0.210 HD
ENDBRANCH  20  55
BRANCH  19  57
HETATM   57  C   UNK N   1      19.814  15.695   4.550  0.00  0.00     0.270 C 
HETATM   58  O   UNK N   1      19.080  16.570   4.987  0.00  0.00    -0.264 OA
BRANCH  57  59
HETATM   59  O   UNK N   1      19.304  14.638   3.875  0.00  0.00    -0.326 OA
HETATM   60  C   UNK N   1      18.837  13.510   4.509  0.00  0.00     0.213 C 
ENDBRANCH  57  59
ENDBRANCH  19  57
BRANCH  10  61
HETATM   61  O   UNK N   1      25.296  12.214  11.540  0.00  0.00    -0.360 OA
HETATM   62  H   UNK N   1      25.749  12.785  12.129  0.00  0.00     0.217 HD
ENDBRANCH  10  61
TORSDOF 14
ENDMDL
MODEL 2
REMARK VINA RESULT:      -9.0      2.189     10.863
REMARK  14 active torsions:
REMARK  status: ('A' for Active; 'I' for Inactive)
REMARK    1  A    between atoms: C_2  and  O_1 
REMARK    2  A    between atoms: C_50  and  O_1 
REMARK    3  A    between atoms: C_5  and  O_58 
REMARK    4  A    between atoms: C_6  and  O_14 
REMARK    5  A    between atoms: C_8  and  O_58 
REMARK    6  A    between atoms: C_27  and  O_28 
REMARK    7  A    between atoms: C_32  and  O_33 
REMARK    8  A    between atoms: C_37  and  O_55 
REMARK    9  A    between atoms: C_38  and  C_44 
REMARK   10  A    between atoms: C_39  and  C_41 
REMARK   11  A    between atoms: C_39  and  O_40 
REMARK   12  A    between atoms: C_44  and  O_45 
REMARK   13  A    between atoms: C_47  and  O_55 
REMARK   14  A    between atoms: C_51  and  N_53 
ROOT
HETATM    1  C   UNK N   1      35.380  13.456   2.220  0.00  0.00     0.017 A 
HETATM    2  C   UNK N   1      35.353  12.782   1.000  0.00  0.00     0.004 A 
HETATM    3  C   UNK N   1      34.140  12.344   0.473  0.00  0.00     0.037 A 
HETATM    4  C   UNK N   1      34.193  13.707   2.923  0.00  0.00     0.032 A 
HETATM    5  C   UNK N   1      32.958  13.267   2.396  0.00  0.00     0.062 A 
HETATM    6  C   UNK N   1      34.237  14.458   4.196  0.00  0.00     0.194 C 
HETATM    7  O   UNK N   1      35.316  14.801   4.666  0.00  0.00    -0.287 OA
HETATM    8  C   UNK N   1      31.702  13.571   3.136  0.00  0.00     0.199 C 
HETATM    9  O   UNK N   1      30.633  13.138   2.726  0.00  0.00    -0.286 OA
HETATM   10  C   UNK N   1      32.946  12.575   1.160  0.00  0.00     0.080 A 
HETATM   11  C   UNK N   1      32.981  14.875   4.853  0.00  0.00     0.032 A 
HETATM   12  C   UNK N   1      31.735  14.464   4.334  0.00  0.00     0.063 A 
HETATM   13  C   UNK N   1      33.030  15.735   5.956  0.00  0.00     0.025 A 
HETATM   14  C   UNK N   1      30.548  14.966   4.913  0.00  0.00     0.090 A 
HETATM   15  C   UNK N   1      31.863  16.255   6.518  0.00  0.00    -0.029 A 
HETATM   16  C   UNK N   1      30.606  15.901   5.969  0.00  0.00     0.012 A 
HETATM   17  C   UNK N   1      29.632  17.867   7.223  0.00  0.00     0.076 C 
HETATM   18  C   UNK N   1      29.329  16.560   6.474  0.00  0.00     0.163 C 
HETATM   19  C   UNK N   1      31.949  17.242   7.671  0.00  0.00     0.153 C 
HETATM   20  C   UNK N   1      30.646  17.716   8.329  0.00  0.00     0.077 C 
ENDROOT
BRANCH  18  21
HETATM   21  O   UNK N   1      28.499  16.917   5.393  0.00  0.00    -0.351 OA
BRANCH  21  22
HETATM   22  C   UNK N   1      27.137  16.928   5.790  0.00  0.00     0.263 C 
HETATM   23  C   UNK N   1      26.268  15.700   5.421  0.00  0.00     0.099 C 
HETATM   24  C   UNK N   1      25.666  15.946   4.039  0.00  0.00     0.258 C 
HETATM   25  C   UNK N   1      25.013  17.347   3.904  0.00  0.00     0.186 C 
HETATM   26  C   UNK N   1      26.115  18.343   4.282  0.00  0.00     0.151 C 
HETATM   27  O   UNK N   1      26.499  18.184   5.629  0.00  0.00    -0.354 OA
HETATM   28  C   UNK N   1      25.671  19.773   4.035  0.00  0.00     0.042 C 
BRANCH  24  29
HETATM   29  N   UNK N   1      25.045  14.780   3.388  0.00  0.00     0.087 N 
HETATM   30  C   UNK N   1      25.607  13.546   3.916  0.00  0.00     0.310 C 
HETATM   31  C   UNK N   1      25.190  14.773   1.943  0.00  0.00     0.310 C 
ENDBRANCH  24  29
BRANCH  25  32
HETATM   32  O   UNK N   1      23.823  17.659   4.620  0.00  0.00    -0.351 OA
BRANCH  32  33
HETATM   33  C   UNK N   1      22.681  17.848   3.818  0.00  0.00     0.263 C 
HETATM   34  C   UNK N   1      21.654  18.684   4.571  0.00  0.00     0.095 C 
HETATM   35  C   UNK N   1      21.077  17.901   5.753  0.00  0.00     0.154 C 
HETATM   36  C   UNK N   1      21.544  16.440   5.795  0.00  0.00     0.182 C 
HETATM   37  C   UNK N   1      21.417  15.885   4.347  0.00  0.00     0.152 C 
HETATM   38  O   UNK N   1      22.133  16.620   3.361  0.00  0.00    -0.354 OA
HETATM   39  C   UNK N   1      21.819  14.429   4.204  0.00  0.00     0.042 C 
BRANCH  35  40
HETATM   40  O   UNK N   1      21.384  18.550   6.948  0.00  0.00    -0.393 OA
HETATM   41  H   UNK N   1      21.842  18.899   7.729  0.00  0.00     0.210 HD
ENDBRANCH  35  40
BRANCH  36  42
HETATM   42  O   UNK N   1      20.743  15.757   6.739  0.00  0.00    -0.351 OA
BRANCH  42  43
HETATM   43  C   UNK N   1      21.478  15.121   7.777  0.00  0.00     0.261 C 
HETATM   44  C   UNK N   1      20.461  14.391   8.641  0.00  0.00     0.068 C 
HETATM   45  C   UNK N   1      21.104  13.829   9.888  0.00  0.00     0.086 C 
HETATM   46  C   UNK N   1      22.521  13.405   9.666  0.00  0.00     0.155 C 
HETATM   47  C   UNK N   1      23.238  13.644   8.347  0.00  0.00     0.190 C 
HETATM   48  O   UNK N   1      23.130  12.896  10.594  0.00  0.00    -0.295 OA
HETATM   49  O   UNK N   1      22.457  14.208   7.306  0.00  0.00    -0.349 OA
HETATM   50  C   UNK N   1      23.762  12.309   7.844  0.00  0.00     0.048 C 
ENDBRANCH  42  43
ENDBRANCH  36  42
ENDBRANCH  32  33
ENDBRANCH  25  32
ENDBRANCH  21  22
ENDBRANCH  18  21
BRANCH  14  51
HETATM   51  O   UNK N   1      29.349  14.598   4.416  0.00  0.00    -0.359 OA
HETATM   52  H   UNK N   1      29.071  14.917   3.580  0.00  0.00     0.217 HD
ENDBRANCH  14  51
BRANCH  20  53
HETATM   53  C   UNK N   1      30.088  16.735   9.369  0.00  0.00     0.034 C 
HETATM   54  C   UNK N   1      28.882  17.257  10.129  0.00  0.00     0.008 C 
ENDBRANCH  20  53
BRANCH  20  55
HETATM   55  O   UNK N   1      30.826  18.974   8.907  0.00  0.00    -0.389 OA
HETATM   56  H   UNK N   1      31.593  19.376   9.347  0.00  0.00     0.210 HD
ENDBRANCH  20  55
BRANCH  19  57
HETATM   57  C   UNK N   1      33.258  17.525   8.356  0.00  0.00     0.270 C 
HETATM   58  O   UNK N   1      33.817  18.596   8.165  0.00  0.00    -0.264 OA
BRANCH  57  59
HETATM   59  O   UNK N   1      33.772  16.623   9.226  0.00  0.00    -0.326 OA
HETATM   60  C   UNK N   1      34.985  16.803   9.848  0.00  0.00     0.213 C 
ENDBRANCH  57  59
ENDBRANCH  19  57
BRANCH  10  61
HETATM   61  O   UNK N   1      31.794  12.146   0.614  0.00  0.00    -0.360 OA
HETATM   62  H   UNK N   1      31.587  12.360  -0.275  0.00  0.00     0.217 HD
ENDBRANCH  10  61
TORSDOF 14
ENDMDL
MODEL 3
REMARK VINA RESULT:      -8.9      2.379      6.347
REMARK  14 active torsions:
REMARK  status: ('A' for Active; 'I' for Inactive)
REMARK    1  A    between atoms: C_2  and  O_1 
REMARK    2  A    between atoms: C_50  and  O_1 
REMARK    3  A    between atoms: C_5  and  O_58 
REMARK    4  A    between atoms: C_6  and  O_14 
REMARK    5  A    between atoms: C_8  and  O_58 
REMARK    6  A    between atoms: C_27  and  O_28 
REMARK    7  A    between atoms: C_32  and  O_33 
REMARK    8  A    between atoms: C_37  and  O_55 
REMARK    9  A    between atoms: C_38  and  C_44 
REMARK   10  A    between atoms: C_39  and  C_41 
REMARK   11  A    between atoms: C_39  and  O_40 
REMARK   12  A    between atoms: C_44  and  O_45 
REMARK   13  A    between atoms: C_47  and  O_55 
REMARK   14  A    between atoms: C_51  and  N_53 
ROOT
HETATM    1  C   UNK N   1      19.562  18.636   2.845  0.00  0.00     0.017 A 
HETATM    2  C   UNK N   1      19.585  19.744   1.999  0.00  0.00     0.004 A 
HETATM    3  C   UNK N   1      20.735  20.525   1.904  0.00  0.00     0.037 A 
HETATM    4  C   UNK N   1      20.692  18.292   3.599  0.00  0.00     0.032 A 
HETATM    5  C   UNK N   1      21.864  19.076   3.509  0.00  0.00     0.062 A 
HETATM    6  C   UNK N   1      20.662  17.090   4.461  0.00  0.00     0.194 C 
HETATM    7  O   UNK N   1      19.630  16.438   4.564  0.00  0.00    -0.287 OA
HETATM    8  C   UNK N   1      23.068  18.678   4.290  0.00  0.00     0.199 C 
HETATM    9  O   UNK N   1      24.066  19.386   4.273  0.00  0.00    -0.286 OA
HETATM   10  C   UNK N   1      21.870  20.205   2.652  0.00  0.00     0.080 A 
HETATM   11  C   UNK N   1      21.899  16.623   5.123  0.00  0.00     0.032 A 
HETATM   12  C   UNK N   1      23.085  17.380   5.031  0.00  0.00     0.063 A 
HETATM   13  C   UNK N   1      21.904  15.392   5.787  0.00  0.00     0.025 A 
HETATM   14  C   UNK N   1      24.280  16.859   5.578  0.00  0.00     0.090 A 
HETATM   15  C   UNK N   1      23.084  14.858   6.309  0.00  0.00    -0.029 A 
HETATM   16  C   UNK N   1      24.297  15.577   6.170  0.00  0.00     0.012 A 
HETATM   17  C   UNK N   1      25.503  13.430   6.734  0.00  0.00     0.076 C 
HETATM   18  C   UNK N   1      25.617  14.958   6.606  0.00  0.00     0.163 C 
HETATM   19  C   UNK N   1      23.074  13.487   6.964  0.00  0.00     0.153 C 
HETATM   20  C   UNK N   1      24.367  12.975   7.614  0.00  0.00     0.077 C 
ENDROOT
BRANCH  18  21
HETATM   21  O   UNK N   1      26.614  15.191   5.637  0.00  0.00    -0.351 OA
BRANCH  21  22
HETATM   22  C   UNK N   1      27.899  15.213   6.237  0.00  0.00     0.263 C 
HETATM   23  C   UNK N   1      28.144  16.223   7.385  0.00  0.00     0.099 C 
HETATM   24  C   UNK N   1      28.623  17.534   6.765  0.00  0.00     0.258 C 
HETATM   25  C   UNK N   1      29.768  17.334   5.737  0.00  0.00     0.186 C 
HETATM   26  C   UNK N   1      29.220  16.334   4.714  0.00  0.00     0.151 C 
HETATM   27  O   UNK N   1      28.969  15.083   5.314  0.00  0.00    -0.354 OA
HETATM   28  C   UNK N   1      30.174  16.165   3.545  0.00  0.00     0.042 C 
BRANCH  24  29
HETATM   29  N   UNK N   1      28.634  18.705   7.658  0.00  0.00     0.087 N 
HETATM   30  C   UNK N   1      28.187  18.330   8.991  0.00  0.00     0.310 C 
HETATM   31  C   UNK N   1      27.812  19.806   7.188  0.00  0.00     0.310 C 
ENDBRANCH  24  29
BRANCH  25  32
HETATM   32  O   UNK N   1      31.059  16.915   6.168  0.00  0.00    -0.351 OA
BRANCH  32  33
HETATM   33  C   UNK N   1      31.262  16.960   7.561  0.00  0.00     0.263 C 
HETATM   34  C   UNK N   1      32.384  17.938   7.888  0.00  0.00     0.095 C 
HETATM   35  C   UNK N   1      33.731  17.405   7.395  0.00  0.00     0.154 C 
HETATM   36  C   UNK N   1      33.650  15.973   6.847  0.00  0.00     0.182 C 
HETATM   37  C   UNK N   1      32.802  15.152   7.860  0.00  0.00     0.152 C 
HETATM   38  O   UNK N   1      31.502  15.674   8.113  0.00  0.00    -0.354 OA
HETATM   39  C   UNK N   1      32.635  13.690   7.487  0.00  0.00     0.042 C 
BRANCH  35  40
HETATM   40  O   UNK N   1      34.262  18.268   6.437  0.00  0.00    -0.393 OA
HETATM   41  H   UNK N   1      34.397  18.996   5.811  0.00  0.00     0.210 HD
ENDBRANCH  35  40
BRANCH  36  42
HETATM   42  O   UNK N   1      34.971  15.495   6.690  0.00  0.00    -0.351 OA
BRANCH  42  43
HETATM   43  C   UNK N   1      35.254  14.973   5.398  0.00  0.00     0.261 C 
HETATM   44  C   UNK N   1      35.849  13.590   5.611  0.00  0.00     0.068 C 
HETATM   45  C   UNK N   1      36.365  13.008   4.315  0.00  0.00     0.086 C 
HETATM   46  C   UNK N   1      35.557  13.435   3.130  0.00  0.00     0.155 C 
HETATM   47  C   UNK N   1      34.425  14.442   3.245  0.00  0.00     0.190 C 
HETATM   48  O   UNK N   1      35.855  12.993   2.031  0.00  0.00    -0.295 OA
HETATM   49  O   UNK N   1      34.115  14.885   4.557  0.00  0.00    -0.349 OA
HETATM   50  C   UNK N   1      33.168  13.808   2.675  0.00  0.00     0.048 C 
ENDBRANCH  42  43
ENDBRANCH  36  42
ENDBRANCH  32  33
ENDBRANCH  25  32
ENDBRANCH  21  22
ENDBRANCH  18  21
BRANCH  14  51
HETATM   51  O   UNK N   1      25.426  17.562   5.481  0.00  0.00    -0.359 OA
HETATM   52  H   UNK N   1      25.472  18.310   4.917  0.00  0.00     0.217 HD
ENDBRANCH  14  51
BRANCH  20  53
HETATM   53  C   UNK N   1      24.601  13.517   9.030  0.00  0.00     0.034 C 
HETATM   54  C   UNK N   1      24.686  12.443  10.099  0.00  0.00     0.008 C 
ENDBRANCH  20  53
BRANCH  20  55
HETATM   55  O   UNK N   1      24.381  11.579   7.627  0.00  0.00    -0.389 OA
HETATM   56  H   UNK N   1      24.198  10.928   6.931  0.00  0.00     0.210 HD
ENDBRANCH  20  55
BRANCH  19  57
HETATM   57  C   UNK N   1      21.782  12.768   7.244  0.00  0.00     0.270 C 
HETATM   58  O   UNK N   1      21.552  11.705   6.685  0.00  0.00    -0.264 OA
BRANCH  57  59
HETATM   59  O   UNK N   1      20.917  13.269   8.158  0.00  0.00    -0.326 OA
HETATM   60  C   UNK N   1      21.068  13.066   9.510  0.00  0.00     0.213 C 
ENDBRANCH  57  59
ENDBRANCH  19  57
BRANCH  10  61
HETATM   61  O   UNK N   1      22.965  20.976   2.526  0.00  0.00    -0.360 OA
HETATM   62  H   UNK N   1      23.347  21.377   3.282  0.00  0.00     0.217 HD
ENDBRANCH  10  61
TORSDOF 14
ENDMDL
MODEL 4
REMARK VINA RESULT:      -8.8      2.497      6.136
REMARK  14 active torsions:
REMARK  status: ('A' for Active; 'I' for Inactive)
REMARK    1  A    between atoms: C_2  and  O_1 
REMARK    2  A    between atoms: C_50  and  O_1 
REMARK    3  A    between atoms: C_5  and  O_58 
REMARK    4  A    between atoms: C_6  and  O_14 
REMARK    5  A    between atoms: C_8  and  O_58 
REMARK    6  A    between atoms: C_27  and  O_28 
REMARK    7  A    between atoms: C_32  and  O_33 
REMARK    8  A    between atoms: C_37  and  O_55 
REMARK    9  A    between atoms: C_38  and  C_44 
REMARK   10  A    between atoms: C_39  and  C_41 
REMARK   11  A    between atoms: C_39  and  O_40 
REMARK   12  A    between atoms: C_44  and  O_45 
REMARK   13  A    between atoms: C_47  and  O_55 
REMARK   14  A    between atoms: C_51  and  N_53 
ROOT
HETATM    1  C   UNK N   1      19.549  18.683   2.849  0.00  0.00     0.017 A 
HETATM    2  C   UNK N   1      19.555  19.795   2.009  0.00  0.00     0.004 A 
HETATM    3  C   UNK N   1      20.704  20.575   1.894  0.00  0.00     0.037 A 
HETATM    4  C   UNK N   1      20.695  18.333   3.577  0.00  0.00     0.032 A 
HETATM    5  C   UNK N   1      21.865  19.116   3.466  0.00  0.00     0.062 A 
HETATM    6  C   UNK N   1      20.682  17.126   4.433  0.00  0.00     0.194 C 
HETATM    7  O   UNK N   1      19.651  16.475   4.555  0.00  0.00    -0.287 OA
HETATM    8  C   UNK N   1      23.085  18.712   4.218  0.00  0.00     0.199 C 
HETATM    9  O   UNK N   1      24.084  19.419   4.183  0.00  0.00    -0.286 OA
HETATM   10  C   UNK N   1      21.855  20.249   2.615  0.00  0.00     0.080 A 
HETATM   11  C   UNK N   1      21.931  16.654   5.065  0.00  0.00     0.032 A 
HETATM   12  C   UNK N   1      23.117  17.410   4.952  0.00  0.00     0.063 A 
HETATM   13  C   UNK N   1      21.949  15.419   5.723  0.00  0.00     0.025 A 
HETATM   14  C   UNK N   1      24.322  16.884   5.470  0.00  0.00     0.090 A 
HETATM   15  C   UNK N   1      23.140  14.881   6.215  0.00  0.00    -0.029 A 
HETATM   16  C   UNK N   1      24.350  15.599   6.054  0.00  0.00     0.012 A 
HETATM   17  C   UNK N   1      25.565  13.448   6.580  0.00  0.00     0.076 C 
HETATM   18  C   UNK N   1      25.679  14.975   6.458  0.00  0.00     0.163 C 
HETATM   19  C   UNK N   1      23.142  13.506   6.863  0.00  0.00     0.153 C 
HETATM   20  C   UNK N   1      24.447  12.989   7.483  0.00  0.00     0.077 C 
ENDROOT
BRANCH  18  21
HETATM   21  O   UNK N   1      26.654  15.213   5.470  0.00  0.00    -0.351 OA
BRANCH  21  22
HETATM   22  C   UNK N   1      27.943  15.319   6.053  0.00  0.00     0.263 C 
HETATM   23  C   UNK N   1      28.152  16.392   7.151  0.00  0.00     0.099 C 
HETATM   24  C   UNK N   1      28.567  17.693   6.467  0.00  0.00     0.258 C 
HETATM   25  C   UNK N   1      29.711  17.496   5.437  0.00  0.00     0.186 C 
HETATM   26  C   UNK N   1      29.199  16.426   4.466  0.00  0.00     0.151 C 
HETATM   27  O   UNK N   1      29.009  15.194   5.126  0.00  0.00    -0.354 OA
HETATM   28  C   UNK N   1      30.149  16.245   3.296  0.00  0.00     0.042 C 
BRANCH  24  29
HETATM   29  N   UNK N   1      28.534  18.903   7.305  0.00  0.00     0.087 N 
HETATM   30  C   UNK N   1      28.188  18.560   8.676  0.00  0.00     0.310 C 
HETATM   31  C   UNK N   1      27.604  19.914   6.833  0.00  0.00     0.310 C 
ENDBRANCH  24  29
BRANCH  25  32
HETATM   32  O   UNK N   1      31.023  17.155   5.872  0.00  0.00    -0.351 OA
BRANCH  32  33
HETATM   33  C   UNK N   1      31.114  16.750   7.218  0.00  0.00     0.263 C 
HETATM   34  C   UNK N   1      32.192  17.560   7.928  0.00  0.00     0.095 C 
HETATM   35  C   UNK N   1      33.581  17.196   7.399  0.00  0.00     0.154 C 
HETATM   36  C   UNK N   1      33.564  16.015   6.419  0.00  0.00     0.182 C 
HETATM   37  C   UNK N   1      32.651  14.923   7.046  0.00  0.00     0.152 C 
HETATM   38  O   UNK N   1      31.327  15.353   7.348  0.00  0.00    -0.354 OA
HETATM   39  C   UNK N   1      32.534  13.659   6.214  0.00  0.00     0.042 C 
BRANCH  35  40
HETATM   40  O   UNK N   1      34.175  18.312   6.813  0.00  0.00    -0.393 OA
HETATM   41  H   UNK N   1      34.351  19.100   6.275  0.00  0.00     0.210 HD
ENDBRANCH  35  40
BRANCH  36  42
HETATM   42  O   UNK N   1      34.900  15.595   6.223  0.00  0.00    -0.351 OA
BRANCH  42  43
HETATM   43  C   UNK N   1      35.319  14.552   7.094  0.00  0.00     0.261 C 
HETATM   44  C   UNK N   1      36.400  13.780   6.354  0.00  0.00     0.068 C 
HETATM   45  C   UNK N   1      36.794  12.530   7.107  0.00  0.00     0.086 C 
HETATM   46  C   UNK N   1      36.704  12.698   8.590  0.00  0.00     0.155 C 
HETATM   47  C   UNK N   1      36.156  13.963   9.228  0.00  0.00     0.190 C 
HETATM   48  O   UNK N   1      37.039  11.765   9.304  0.00  0.00    -0.295 OA
HETATM   49  O   UNK N   1      35.820  15.016   8.338  0.00  0.00    -0.349 OA
HETATM   50  C   UNK N   1      37.204  14.502  10.187  0.00  0.00     0.048 C 
ENDBRANCH  42  43
ENDBRANCH  36  42
ENDBRANCH  32  33
ENDBRANCH  25  32
ENDBRANCH  21  22
ENDBRANCH  18  21
BRANCH  14  51
HETATM   51  O   UNK N   1      25.467  17.586   5.352  0.00  0.00    -0.359 OA
HETATM   52  H   UNK N   1      26.187  17.231   4.868  0.00  0.00     0.217 HD
ENDBRANCH  14  51
BRANCH  20  53
HETATM   53  C   UNK N   1      24.713  13.523   8.896  0.00  0.00     0.034 C 
HETATM   54  C   UNK N   1      24.460  12.511   9.999  0.00  0.00     0.008 C 
ENDBRANCH  20  53
BRANCH  20  55
HETATM   55  O   UNK N   1      24.459  11.593   7.488  0.00  0.00    -0.389 OA
HETATM   56  H   UNK N   1      24.400  10.947   6.766  0.00  0.00     0.210 HD
ENDBRANCH  20  55
BRANCH  19  57
HETATM   57  C   UNK N   1      21.855  12.788   7.167  0.00  0.00     0.270 C 
HETATM   58  O   UNK N   1      21.716  11.626   6.810  0.00  0.00    -0.264 OA
BRANCH  57  59
HETATM   59  O   UNK N   1      20.891  13.409   7.888  0.00  0.00    -0.326 OA
HETATM   60  C   UNK N   1      21.083  13.814   9.187  0.00  0.00     0.213 C 
ENDBRANCH  57  59
ENDBRANCH  19  57
BRANCH  10  61
HETATM   61  O   UNK N   1      22.948  21.020   2.470  0.00  0.00    -0.360 OA
HETATM   62  H   UNK N   1      23.801  20.631   2.479  0.00  0.00     0.217 HD
ENDBRANCH  10  61
TORSDOF 14
ENDMDL
MODEL 5
REMARK VINA RESULT:      -8.7      2.397      5.992
REMARK  14 active torsions:
REMARK  status: ('A' for Active; 'I' for Inactive)
REMARK    1  A    between atoms: C_2  and  O_1 
REMARK    2  A    between atoms: C_50  and  O_1 
REMARK    3  A    between atoms: C_5  and  O_58 
REMARK    4  A    between atoms: C_6  and  O_14 
REMARK    5  A    between atoms: C_8  and  O_58 
REMARK    6  A    between atoms: C_27  and  O_28 
REMARK    7  A    between atoms: C_32  and  O_33 
REMARK    8  A    between atoms: C_37  and  O_55 
REMARK    9  A    between atoms: C_38  and  C_44 
REMARK   10  A    between atoms: C_39  and  C_41 
REMARK   11  A    between atoms: C_39  and  O_40 
REMARK   12  A    between atoms: C_44  and  O_45 
REMARK   13  A    between atoms: C_47  and  O_55 
REMARK   14  A    between atoms: C_51  and  N_53 
ROOT
HETATM    1  C   UNK N   1      19.414  18.985   2.727  0.00  0.00     0.017 A 
HETATM    2  C   UNK N   1      19.542  20.070   1.861  0.00  0.00     0.004 A 
HETATM    3  C   UNK N   1      20.768  20.720   1.734  0.00  0.00     0.037 A 
HETATM    4  C   UNK N   1      20.513  18.532   3.469  0.00  0.00     0.032 A 
HETATM    5  C   UNK N   1      21.761  19.184   3.347  0.00  0.00     0.062 A 
HETATM    6  C   UNK N   1      20.369  17.355   4.353  0.00  0.00     0.194 C 
HETATM    7  O   UNK N   1      19.274  16.820   4.484  0.00  0.00    -0.287 OA
HETATM    8  C   UNK N   1      22.928  18.670   4.116  0.00  0.00     0.199 C 
HETATM    9  O   UNK N   1      23.997  19.265   4.071  0.00  0.00    -0.286 OA
HETATM   10  C   UNK N   1      21.875  20.291   2.470  0.00  0.00     0.080 A 
HETATM   11  C   UNK N   1      21.559  16.767   5.004  0.00  0.00     0.032 A 
HETATM   12  C   UNK N   1      22.818  17.390   4.880  0.00  0.00     0.063 A 
HETATM   13  C   UNK N   1      21.442  15.554   5.690  0.00  0.00     0.025 A 
HETATM   14  C   UNK N   1      23.959  16.752   5.418  0.00  0.00     0.090 A 
HETATM   15  C   UNK N   1      22.567  14.904   6.203  0.00  0.00    -0.029 A 
HETATM   16  C   UNK N   1      23.847  15.485   6.032  0.00  0.00     0.012 A 
HETATM   17  C   UNK N   1      24.825  13.230   6.616  0.00  0.00     0.076 C 
HETATM   18  C   UNK N   1      25.101  14.733   6.459  0.00  0.00     0.163 C 
HETATM   19  C   UNK N   1      22.420  13.552   6.883  0.00  0.00     0.153 C 
HETATM   20  C   UNK N   1      23.661  12.914   7.522  0.00  0.00     0.077 C 
ENDROOT
BRANCH  18  21
HETATM   21  O   UNK N   1      26.100  14.842   5.471  0.00  0.00    -0.351 OA
BRANCH  21  22
HETATM   22  C   UNK N   1      27.390  14.839   6.061  0.00  0.00     0.263 C 
HETATM   23  C   UNK N   1      27.888  16.153   6.713  0.00  0.00     0.099 C 
HETATM   24  C   UNK N   1      28.594  16.975   5.636  0.00  0.00     0.258 C 
HETATM   25  C   UNK N   1      29.625  16.149   4.822  0.00  0.00     0.186 C 
HETATM   26  C   UNK N   1      28.837  14.956   4.268  0.00  0.00     0.151 C 
HETATM   27  O   UNK N   1      28.366  14.133   5.312  0.00  0.00    -0.354 OA
HETATM   28  C   UNK N   1      29.680  14.140   3.306  0.00  0.00     0.042 C 
BRANCH  24  29
HETATM   29  N   UNK N   1      28.885  18.377   5.981  0.00  0.00     0.087 N 
HETATM   30  C   UNK N   1      28.187  18.754   7.201  0.00  0.00     0.310 C 
HETATM   31  C   UNK N   1      28.531  19.321   4.936  0.00  0.00     0.310 C 
ENDBRANCH  24  29
BRANCH  25  32
HETATM   32  O   UNK N   1      30.823  15.684   5.436  0.00  0.00    -0.351 OA
BRANCH  32  33
HETATM   33  C   UNK N   1      31.903  16.586   5.385  0.00  0.00     0.263 C 
HETATM   34  C   UNK N   1      33.218  15.817   5.410  0.00  0.00     0.095 C 
HETATM   35  C   UNK N   1      33.434  15.152   6.771  0.00  0.00     0.154 C 
HETATM   36  C   UNK N   1      32.374  15.545   7.810  0.00  0.00     0.182 C 
HETATM   37  C   UNK N   1      32.195  17.087   7.708  0.00  0.00     0.152 C 
HETATM   38  O   UNK N   1      31.840  17.563   6.414  0.00  0.00    -0.354 OA
HETATM   39  C   UNK N   1      31.190  17.660   8.689  0.00  0.00     0.042 C 
BRANCH  35  40
HETATM   40  O   UNK N   1      33.484  13.767   6.621  0.00  0.00    -0.393 OA
HETATM   41  H   UNK N   1      33.691  12.868   6.319  0.00  0.00     0.210 HD
ENDBRANCH  35  40
BRANCH  36  42
HETATM   42  O   UNK N   1      32.826  15.107   9.076  0.00  0.00    -0.351 OA
BRANCH  42  43
HETATM   43  C   UNK N   1      34.241  15.074   9.213  0.00  0.00     0.261 C 
HETATM   44  C   UNK N   1      34.571  15.867  10.468  0.00  0.00     0.068 C 
HETATM   45  C   UNK N   1      36.062  16.062  10.617  0.00  0.00     0.086 C 
HETATM   46  C   UNK N   1      36.851  14.909  10.083  0.00  0.00     0.155 C 
HETATM   47  C   UNK N   1      36.191  13.743   9.366  0.00  0.00     0.190 C 
HETATM   48  O   UNK N   1      38.067  14.936  10.187  0.00  0.00    -0.295 OA
HETATM   49  O   UNK N   1      34.774  13.764   9.314  0.00  0.00    -0.349 OA
HETATM   50  C   UNK N   1      36.597  12.461  10.074  0.00  0.00     0.048 C 
ENDBRANCH  42  43
ENDBRANCH  36  42
ENDBRANCH  32  33
ENDBRANCH  25  32
ENDBRANCH  21  22
ENDBRANCH  18  21
BRANCH  14  51
HETATM   51  O   UNK N   1      25.173  17.325   5.290  0.00  0.00    -0.359 OA
HETATM   52  H   UNK N   1      25.393  17.787   4.505  0.00  0.00     0.217 HD
ENDBRANCH  14  51
BRANCH  20  53
HETATM   53  C   UNK N   1      23.977  13.451   8.924  0.00  0.00     0.034 C 
HETATM   54  C   UNK N   1      24.758  12.484   9.796  0.00  0.00     0.008 C 
ENDBRANCH  20  53
BRANCH  20  55
HETATM   55  O   UNK N   1      23.524  11.525   7.560  0.00  0.00    -0.389 OA
HETATM   56  H   UNK N   1      23.303  10.882   6.867  0.00  0.00     0.210 HD
ENDBRANCH  20  55
BRANCH  19  57
HETATM   57  C   UNK N   1      21.063  12.983   7.196  0.00  0.00     0.270 C 
HETATM   58  O   UNK N   1      20.700  11.955   6.641  0.00  0.00    -0.264 OA
BRANCH  57  59
HETATM   59  O   UNK N   1      20.284  13.573   8.133  0.00  0.00    -0.326 OA
HETATM   60  C   UNK N   1      20.806  14.280   9.191  0.00  0.00     0.213 C 
ENDBRANCH  57  59
ENDBRANCH  19  57
BRANCH  10  61
HETATM   61  O   UNK N   1      23.044  20.937   2.313  0.00  0.00    -0.360 OA
HETATM   62  H   UNK N   1      23.831  20.576   2.672  0.00  0.00     0.217 HD
ENDBRANCH  10  61
TORSDOF 14
ENDMDL
MODEL 6
REMARK VINA RESULT:      -8.6      6.251     12.419
REMARK  14 active torsions:
REMARK  status: ('A' for Active; 'I' for Inactive)
REMARK    1  A    between atoms: C_2  and  O_1 
REMARK    2  A    between atoms: C_50  and  O_1 
REMARK    3  A    between atoms: C_5  and  O_58 
REMARK    4  A    between atoms: C_6  and  O_14 
REMARK    5  A    between atoms: C_8  and  O_58 
REMARK    6  A    between atoms: C_27  and  O_28 
REMARK    7  A    between atoms: C_32  and  O_33 
REMARK    8  A    between atoms: C_37  and  O_55 
REMARK    9  A    between atoms: C_38  and  C_44 
REMARK   10  A    between atoms: C_39  and  C_41 
REMARK   11  A    between atoms: C_39  and  O_40 
REMARK   12  A    between atoms: C_44  and  O_45 
REMARK   13  A    between atoms: C_47  and  O_55 
REMARK   14  A    between atoms: C_51  and  N_53 
ROOT
HETATM    1  C   UNK N   1      35.429  10.507  18.559  0.00  0.00     0.017 A 
HETATM    2  C   UNK N   1      35.312  11.588  19.432  0.00  0.00     0.004 A 
HETATM    3  C   UNK N   1      35.274  12.887  18.930  0.00  0.00     0.037 A 
HETATM    4  C   UNK N   1      35.500  10.713  17.175  0.00  0.00     0.032 A 
HETATM    5  C   UNK N   1      35.461  12.027  16.656  0.00  0.00     0.062 A 
HETATM    6  C   UNK N   1      35.584   9.552  16.262  0.00  0.00     0.194 C 
HETATM    7  O   UNK N   1      35.658   8.418  16.721  0.00  0.00    -0.287 OA
HETATM    8  C   UNK N   1      35.503  12.228  15.181  0.00  0.00     0.199 C 
HETATM    9  O   UNK N   1      35.538  13.363  14.722  0.00  0.00    -0.286 OA
HETATM   10  C   UNK N   1      35.351  13.117  17.555  0.00  0.00     0.080 A 
HETATM   11  C   UNK N   1      35.486   9.750  14.801  0.00  0.00     0.032 A 
HETATM   12  C   UNK N   1      35.427  11.053  14.262  0.00  0.00     0.063 A 
HETATM   13  C   UNK N   1      35.386   8.638  13.957  0.00  0.00     0.025 A 
HETATM   14  C   UNK N   1      35.221  11.215  12.873  0.00  0.00     0.090 A 
HETATM   15  C   UNK N   1      35.158   8.789  12.588  0.00  0.00    -0.029 A 
HETATM   16  C   UNK N   1      35.034  10.090  12.040  0.00  0.00     0.012 A 
HETATM   17  C   UNK N   1      34.007   9.009  10.000  0.00  0.00     0.076 C 
HETATM   18  C   UNK N   1      34.650  10.279  10.579  0.00  0.00     0.163 C 
HETATM   19  C   UNK N   1      34.984   7.563  11.706  0.00  0.00     0.153 C 
HETATM   20  C   UNK N   1      34.836   7.764  10.192  0.00  0.00     0.077 C 
ENDROOT
BRANCH  18  21
HETATM   21  O   UNK N   1      33.681  11.295  10.453  0.00  0.00    -0.351 OA
BRANCH  21  22
HETATM   22  C   UNK N   1      33.772  11.918   9.181  0.00  0.00     0.263 C 
HETATM   23  C   UNK N   1      35.179  12.319   8.672  0.00  0.00     0.099 C 
HETATM   24  C   UNK N   1      35.477  13.732   9.171  0.00  0.00     0.258 C 
HETATM   25  C   UNK N   1      34.314  14.724   8.904  0.00  0.00     0.186 C 
HETATM   26  C   UNK N   1      33.083  14.087   9.558  0.00  0.00     0.151 C 
HETATM   27  O   UNK N   1      32.751  12.869   8.930  0.00  0.00    -0.354 OA
HETATM   28  C   UNK N   1      31.893  15.029   9.524  0.00  0.00     0.042 C 
BRANCH  24  29
HETATM   29  N   UNK N   1      36.872  14.183   9.039  0.00  0.00     0.087 N 
HETATM   30  C   UNK N   1      37.472  13.630   7.835  0.00  0.00     0.310 C 
HETATM   31  C   UNK N   1      37.708  13.832  10.174  0.00  0.00     0.310 C 
ENDBRANCH  24  29
BRANCH  25  32
HETATM   32  O   UNK N   1      33.995  15.121   7.575  0.00  0.00    -0.351 OA
BRANCH  32  33
HETATM   33  C   UNK N   1      34.764  16.189   7.075  0.00  0.00     0.263 C 
HETATM   34  C   UNK N   1      34.484  17.450   7.884  0.00  0.00     0.095 C 
HETATM   35  C   UNK N   1      33.059  17.950   7.635  0.00  0.00     0.154 C 
HETATM   36  C   UNK N   1      32.329  17.170   6.533  0.00  0.00     0.182 C 
HETATM   37  C   UNK N   1      33.329  17.023   5.350  0.00  0.00     0.152 C 
HETATM   38  O   UNK N   1      34.562  16.396   5.684  0.00  0.00    -0.354 OA
HETATM   39  C   UNK N   1      32.763  16.289   4.148  0.00  0.00     0.042 C 
BRANCH  35  40
HETATM   40  O   UNK N   1      32.330  17.919   8.823  0.00  0.00    -0.393 OA
HETATM   41  H   UNK N   1      31.615  17.919   9.479  0.00  0.00     0.210 HD
ENDBRANCH  35  40
BRANCH  36  42
HETATM   42  O   UNK N   1      31.156  17.886   6.201  0.00  0.00    -0.351 OA
BRANCH  42  43
HETATM   43  C   UNK N   1      29.951  17.161   6.410  0.00  0.00     0.261 C 
HETATM   44  C   UNK N   1      29.139  17.955   7.421  0.00  0.00     0.068 C 
HETATM   45  C   UNK N   1      27.915  17.189   7.865  0.00  0.00     0.086 C 
HETATM   46  C   UNK N   1      27.351  16.324   6.782  0.00  0.00     0.155 C 
HETATM   47  C   UNK N   1      28.036  16.169   5.435  0.00  0.00     0.190 C 
HETATM   48  O   UNK N   1      26.334  15.689   7.013  0.00  0.00    -0.295 OA
HETATM   49  O   UNK N   1      29.192  16.964   5.227  0.00  0.00    -0.349 OA
HETATM   50  C   UNK N   1      27.037  16.536   4.351  0.00  0.00     0.048 C 
ENDBRANCH  42  43
ENDBRANCH  36  42
ENDBRANCH  32  33
ENDBRANCH  25  32
ENDBRANCH  21  22
ENDBRANCH  18  21
BRANCH  14  51
HETATM   51  O   UNK N   1      35.143  12.453  12.344  0.00  0.00    -0.359 OA
HETATM   52  H   UNK N   1      35.538  13.178  12.789  0.00  0.00     0.217 HD
ENDBRANCH  14  51
BRANCH  20  53
HETATM   53  C   UNK N   1      36.171   7.951   9.461  0.00  0.00     0.034 C 
HETATM   54  C   UNK N   1      36.059   7.917   7.948  0.00  0.00     0.008 C 
ENDBRANCH  20  53
BRANCH  20  55
HETATM   55  O   UNK N   1      34.127   6.699   9.632  0.00  0.00    -0.389 OA
HETATM   56  H   UNK N   1      34.396   5.792   9.413  0.00  0.00     0.210 HD
ENDBRANCH  20  55
BRANCH  19  57
HETATM   57  C   UNK N   1      35.247   6.180  12.238  0.00  0.00     0.270 C 
HETATM   58  O   UNK N   1      34.306   5.424  12.436  0.00  0.00    -0.264 OA
BRANCH  57  59
HETATM   59  O   UNK N   1      36.521   5.763  12.429  0.00  0.00    -0.326 OA
HETATM   60  C   UNK N   1      36.893   4.989  13.503  0.00  0.00     0.213 C 
ENDBRANCH  57  59
ENDBRANCH  19  57
BRANCH  10  61
HETATM   61  O   UNK N   1      35.301  14.384  17.108  0.00  0.00    -0.360 OA
HETATM   62  H   UNK N   1      34.505  14.874  17.174  0.00  0.00     0.217 HD
ENDBRANCH  10  61
TORSDOF 14
ENDMDL
MODEL 7
REMARK VINA RESULT:      -8.5      6.156     10.993
REMARK  14 active torsions:
REMARK  status: ('A' for Active; 'I' for Inactive)
REMARK    1  A    between atoms: C_2  and  O_1 
REMARK    2  A    between atoms: C_50  and  O_1 
REMARK    3  A    between atoms: C_5  and  O_58 
REMARK    4  A    between atoms: C_6  and  O_14 
REMARK    5  A    between atoms: C_8  and  O_58 
REMARK    6  A    between atoms: C_27  and  O_28 
REMARK    7  A    between atoms: C_32  and  O_33 
REMARK    8  A    between atoms: C_37  and  O_55 
REMARK    9  A    between atoms: C_38  and  C_44 
REMARK   10  A    between atoms: C_39  and  C_41 
REMARK   11  A    between atoms: C_39  and  O_40 
REMARK   12  A    between atoms: C_44  and  O_45 
REMARK   13  A    between atoms: C_47  and  O_55 
REMARK   14  A    between atoms: C_51  and  N_53 
ROOT
HETATM    1  C   UNK N   1      27.788  18.672   4.186  0.00  0.00     0.017 A 
HETATM    2  C   UNK N   1      26.921  19.569   4.809  0.00  0.00     0.004 A 
HETATM    3  C   UNK N   1      26.956  19.724   6.194  0.00  0.00     0.037 A 
HETATM    4  C   UNK N   1      28.704  17.925   4.940  0.00  0.00     0.032 A 
HETATM    5  C   UNK N   1      28.748  18.076   6.344  0.00  0.00     0.062 A 
HETATM    6  C   UNK N   1      29.642  17.007   4.258  0.00  0.00     0.194 C 
HETATM    7  O   UNK N   1      29.571  16.853   3.044  0.00  0.00    -0.287 OA
HETATM    8  C   UNK N   1      29.750  17.302   7.128  0.00  0.00     0.199 C 
HETATM    9  O   UNK N   1      29.753  17.372   8.351  0.00  0.00    -0.286 OA
HETATM   10  C   UNK N   1      27.855  18.984   6.966  0.00  0.00     0.080 A 
HETATM   11  C   UNK N   1      30.722  16.349   5.023  0.00  0.00     0.032 A 
HETATM   12  C   UNK N   1      30.796  16.501   6.423  0.00  0.00     0.063 A 
HETATM   13  C   UNK N   1      31.710  15.628   4.343  0.00  0.00     0.025 A 
HETATM   14  C   UNK N   1      31.899  15.955   7.118  0.00  0.00     0.090 A 
HETATM   15  C   UNK N   1      32.815  15.106   5.018  0.00  0.00    -0.029 A 
HETATM   16  C   UNK N   1      32.937  15.303   6.416  0.00  0.00     0.012 A 
HETATM   17  C   UNK N   1      35.370  14.664   6.180  0.00  0.00     0.076 C 
HETATM   18  C   UNK N   1      34.196  14.866   7.151  0.00  0.00     0.163 C 
HETATM   19  C   UNK N   1      33.908  14.387   4.245  0.00  0.00     0.153 C 
HETATM   20  C   UNK N   1      35.057  13.740   5.030  0.00  0.00     0.077 C 
ENDROOT
BRANCH  18  21
HETATM   21  O   UNK N   1      34.610  15.864   8.056  0.00  0.00    -0.351 OA
BRANCH  21  22
HETATM   22  C   UNK N   1      34.772  15.325   9.358  0.00  0.00     0.263 C 
HETATM   23  C   UNK N   1      36.215  15.065   9.857  0.00  0.00     0.099 C 
HETATM   24  C   UNK N   1      36.613  13.652   9.432  0.00  0.00     0.258 C 
HETATM   25  C   UNK N   1      35.537  12.590   9.780  0.00  0.00     0.186 C 
HETATM   26  C   UNK N   1      34.248  13.091   9.118  0.00  0.00     0.151 C 
HETATM   27  O   UNK N   1      33.833  14.314   9.684  0.00  0.00    -0.354 OA
HETATM   28  C   UNK N   1      33.137  12.064   9.232  0.00  0.00     0.042 C 
BRANCH  24  29
HETATM   29  N   UNK N   1      38.042  13.319   9.558  0.00  0.00     0.087 N 
HETATM   30  C   UNK N   1      38.860  14.355   8.946  0.00  0.00     0.310 C 
HETATM   31  C   UNK N   1      38.397  12.041   8.967  0.00  0.00     0.310 C 
ENDBRANCH  24  29
BRANCH  25  32
HETATM   32  O   UNK N   1      35.274  12.247  11.136  0.00  0.00    -0.351 OA
BRANCH  32  33
HETATM   33  C   UNK N   1      36.354  11.654  11.818  0.00  0.00     0.263 C 
HETATM   34  C   UNK N   1      35.866  10.441  12.601  0.00  0.00     0.095 C 
HETATM   35  C   UNK N   1      34.965  10.870  13.761  0.00  0.00     0.154 C 
HETATM   36  C   UNK N   1      34.903  12.392  13.947  0.00  0.00     0.182 C 
HETATM   37  C   UNK N   1      36.364  12.917  13.852  0.00  0.00     0.152 C 
HETATM   38  O   UNK N   1      37.043  12.579  12.647  0.00  0.00    -0.354 OA
HETATM   39  C   UNK N   1      36.498  14.417  14.038  0.00  0.00     0.042 C 
BRANCH  35  40
HETATM   40  O   UNK N   1      33.686  10.344  13.589  0.00  0.00    -0.393 OA
HETATM   41  H   UNK N   1      32.767  10.061  13.724  0.00  0.00     0.210 HD
ENDBRANCH  35  40
BRANCH  36  42
HETATM   42  O   UNK N   1      34.285  12.651  15.193  0.00  0.00    -0.351 OA
BRANCH  42  43
HETATM   43  C   UNK N   1      34.954  12.076  16.308  0.00  0.00     0.261 C 
HETATM   44  C   UNK N   1      34.789  13.053  17.461  0.00  0.00     0.068 C 
HETATM   45  C   UNK N   1      35.619  12.638  18.655  0.00  0.00     0.086 C 
HETATM   46  C   UNK N   1      35.742  11.152  18.782  0.00  0.00     0.155 C 
HETATM   47  C   UNK N   1      35.182  10.203  17.736  0.00  0.00     0.190 C 
HETATM   48  O   UNK N   1      36.356  10.698  19.736  0.00  0.00    -0.295 OA
HETATM   49  O   UNK N   1      34.453  10.801  16.677  0.00  0.00    -0.349 OA
HETATM   50  C   UNK N   1      34.247   9.229  18.433  0.00  0.00     0.048 C 
ENDBRANCH  42  43
ENDBRANCH  36  42
ENDBRANCH  32  33
ENDBRANCH  25  32
ENDBRANCH  21  22
ENDBRANCH  18  21
BRANCH  14  51
HETATM   51  O   UNK N   1      31.995  16.108   8.455  0.00  0.00    -0.359 OA
HETATM   52  H   UNK N   1      31.248  16.382   8.950  0.00  0.00     0.217 HD
ENDBRANCH  14  51
BRANCH  20  53
HETATM   53  C   UNK N   1      34.715  12.356   5.596  0.00  0.00     0.034 C 
HETATM   54  C   UNK N   1      35.925  11.542   6.016  0.00  0.00     0.008 C 
ENDBRANCH  20  53
BRANCH  20  55
HETATM   55  O   UNK N   1      36.202  13.662   4.233  0.00  0.00    -0.389 OA
HETATM   56  H   UNK N   1      36.456  14.135   3.425  0.00  0.00     0.210 HD
ENDBRANCH  20  55
BRANCH  19  57
HETATM   57  C   UNK N   1      33.736  14.048   2.789  0.00  0.00     0.270 C 
HETATM   58  O   UNK N   1      34.217  14.784   1.939  0.00  0.00    -0.264 OA
BRANCH  57  59
HETATM   59  O   UNK N   1      33.109  12.900   2.435  0.00  0.00    -0.326 OA
HETATM   60  C   UNK N   1      32.814  12.591   1.128  0.00  0.00     0.213 C 
ENDBRANCH  57  59
ENDBRANCH  19  57
BRANCH  10  61
HETATM   61  O   UNK N   1      27.866  19.169   8.298  0.00  0.00    -0.360 OA
HETATM   62  H   UNK N   1      28.673  19.344   8.741  0.00  0.00     0.217 HD
ENDBRANCH  10  61
TORSDOF 14
ENDMDL
MODEL 8
REMARK VINA RESULT:      -8.5      2.464      6.391
REMARK  14 active torsions:
REMARK  status: ('A' for Active; 'I' for Inactive)
REMARK    1  A    between atoms: C_2  and  O_1 
REMARK    2  A    between atoms: C_50  and  O_1 
REMARK    3  A    between atoms: C_5  and  O_58 
REMARK    4  A    between atoms: C_6  and  O_14 
REMARK    5  A    between atoms: C_8  and  O_58 
REMARK    6  A    between atoms: C_27  and  O_28 
REMARK    7  A    between atoms: C_32  and  O_33 
REMARK    8  A    between atoms: C_37  and  O_55 
REMARK    9  A    between atoms: C_38  and  C_44 
REMARK   10  A    between atoms: C_39  and  C_41 
REMARK   11  A    between atoms: C_39  and  O_40 
REMARK   12  A    between atoms: C_44  and  O_45 
REMARK   13  A    between atoms: C_47  and  O_55 
REMARK   14  A    between atoms: C_51  and  N_53 
ROOT
HETATM    1  C   UNK N   1      19.367  18.957   2.813  0.00  0.00     0.017 A 
HETATM    2  C   UNK N   1      19.474  20.040   1.941  0.00  0.00     0.004 A 
HETATM    3  C   UNK N   1      20.699  20.682   1.774  0.00  0.00     0.037 A 
HETATM    4  C   UNK N   1      20.487  18.499   3.521  0.00  0.00     0.032 A 
HETATM    5  C   UNK N   1      21.734  19.142   3.357  0.00  0.00     0.062 A 
HETATM    6  C   UNK N   1      20.363  17.324   4.412  0.00  0.00     0.194 C 
HETATM    7  O   UNK N   1      19.270  16.797   4.579  0.00  0.00    -0.287 OA
HETATM    8  C   UNK N   1      22.922  18.623   4.090  0.00  0.00     0.199 C 
HETATM    9  O   UNK N   1      23.993  19.212   4.009  0.00  0.00    -0.286 OA
HETATM   10  C   UNK N   1      21.826  20.247   2.475  0.00  0.00     0.080 A 
HETATM   11  C   UNK N   1      21.570  16.731   5.025  0.00  0.00     0.032 A 
HETATM   12  C   UNK N   1      22.828  17.346   4.860  0.00  0.00     0.063 A 
HETATM   13  C   UNK N   1      21.468  15.519   5.718  0.00  0.00     0.025 A 
HETATM   14  C   UNK N   1      23.982  16.701   5.362  0.00  0.00     0.090 A 
HETATM   15  C   UNK N   1      22.605  14.863   6.195  0.00  0.00    -0.029 A 
HETATM   16  C   UNK N   1      23.882  15.437   5.983  0.00  0.00     0.012 A 
HETATM   17  C   UNK N   1      24.864  13.176   6.539  0.00  0.00     0.076 C 
HETATM   18  C   UNK N   1      25.144  14.678   6.370  0.00  0.00     0.163 C 
HETATM   19  C   UNK N   1      22.471  13.514   6.882  0.00  0.00     0.153 C 
HETATM   20  C   UNK N   1      23.728  12.870   7.483  0.00  0.00     0.077 C 
ENDROOT
BRANCH  18  21
HETATM   21  O   UNK N   1      26.112  14.778   5.351  0.00  0.00    -0.351 OA
BRANCH  21  22
HETATM   22  C   UNK N   1      27.420  14.776   5.900  0.00  0.00     0.263 C 
HETATM   23  C   UNK N   1      27.863  16.017   6.714  0.00  0.00     0.099 C 
HETATM   24  C   UNK N   1      28.481  17.021   5.743  0.00  0.00     0.258 C 
HETATM   25  C   UNK N   1      29.529  16.380   4.795  0.00  0.00     0.186 C 
HETATM   26  C   UNK N   1      28.793  15.228   4.102  0.00  0.00     0.151 C 
HETATM   27  O   UNK N   1      28.408  14.242   5.034  0.00  0.00    -0.354 OA
HETATM   28  C   UNK N   1      29.648  14.605   3.014  0.00  0.00     0.042 C 
BRANCH  24  29
HETATM   29  N   UNK N   1      28.701  18.378   6.271  0.00  0.00     0.087 N 
HETATM   30  C   UNK N   1      28.589  18.382   7.721  0.00  0.00     0.310 C 
HETATM   31  C   UNK N   1      27.785  19.370   5.733  0.00  0.00     0.310 C 
ENDBRANCH  24  29
BRANCH  25  32
HETATM   32  O   UNK N   1      30.773  15.913   5.306  0.00  0.00    -0.351 OA
BRANCH  32  33
HETATM   33  C   UNK N   1      31.692  16.924   5.644  0.00  0.00     0.263 C 
HETATM   34  C   UNK N   1      31.935  17.824   4.438  0.00  0.00     0.095 C 
HETATM   35  C   UNK N   1      32.692  17.071   3.342  0.00  0.00     0.154 C 
HETATM   36  C   UNK N   1      33.153  15.673   3.777  0.00  0.00     0.182 C 
HETATM   37  C   UNK N   1      33.771  15.825   5.196  0.00  0.00     0.152 C 
HETATM   38  O   UNK N   1      32.903  16.400   6.167  0.00  0.00    -0.354 OA
HETATM   39  C   UNK N   1      34.307  14.531   5.781  0.00  0.00     0.042 C 
BRANCH  35  40
HETATM   40  O   UNK N   1      31.909  16.994   2.191  0.00  0.00    -0.393 OA
HETATM   41  H   UNK N   1      31.358  17.209   1.421  0.00  0.00     0.210 HD
ENDBRANCH  35  40
BRANCH  36  42
HETATM   42  O   UNK N   1      34.064  15.197   2.806  0.00  0.00    -0.351 OA
BRANCH  42  43
HETATM   43  C   UNK N   1      33.719  13.935   2.250  0.00  0.00     0.261 C 
HETATM   44  C   UNK N   1      35.000  13.117   2.205  0.00  0.00     0.068 C 
HETATM   45  C   UNK N   1      34.797  11.819   1.459  0.00  0.00     0.086 C 
HETATM   46  C   UNK N   1      33.418  11.267   1.627  0.00  0.00     0.155 C 
HETATM   47  C   UNK N   1      32.332  12.022   2.376  0.00  0.00     0.190 C 
HETATM   48  O   UNK N   1      33.150  10.197   1.103  0.00  0.00    -0.295 OA
HETATM   49  O   UNK N   1      32.726  13.239   2.987  0.00  0.00    -0.349 OA
HETATM   50  C   UNK N   1      31.799  11.118   3.475  0.00  0.00     0.048 C 
ENDBRANCH  42  43
ENDBRANCH  36  42
ENDBRANCH  32  33
ENDBRANCH  25  32
ENDBRANCH  21  22
ENDBRANCH  18  21
BRANCH  14  51
HETATM   51  O   UNK N   1      25.195  17.266   5.195  0.00  0.00    -0.359 OA
HETATM   52  H   UNK N   1      25.335  17.877   4.497  0.00  0.00     0.217 HD
ENDBRANCH  14  51
BRANCH  20  53
HETATM   53  C   UNK N   1      24.092  13.407   8.873  0.00  0.00     0.034 C 
HETATM   54  C   UNK N   1      23.925  12.395   9.992  0.00  0.00     0.008 C 
ENDBRANCH  20  53
BRANCH  20  55
HETATM   55  O   UNK N   1      23.584  11.482   7.528  0.00  0.00    -0.389 OA
HETATM   56  H   UNK N   1      23.875  10.785   6.918  0.00  0.00     0.210 HD
ENDBRANCH  20  55
BRANCH  19  57
HETATM   57  C   UNK N   1      21.121  12.954   7.240  0.00  0.00     0.270 C 
HETATM   58  O   UNK N   1      20.459  13.494   8.114  0.00  0.00    -0.264 OA
BRANCH  57  59
HETATM   59  O   UNK N   1      20.625  11.900   6.549  0.00  0.00    -0.326 OA
HETATM   60  C   UNK N   1      20.413  11.939   5.191  0.00  0.00     0.213 C 
ENDBRANCH  57  59
ENDBRANCH  19  57
BRANCH  10  61
HETATM   61  O   UNK N   1      22.994  20.886   2.279  0.00  0.00    -0.360 OA
HETATM   62  H   UNK N   1      23.628  20.533   1.686  0.00  0.00     0.217 HD
ENDBRANCH  10  61
TORSDOF 14
ENDMDL
MODEL 9
REMARK VINA RESULT:      -8.5      3.366     11.028
REMARK  14 active torsions:
REMARK  status: ('A' for Active; 'I' for Inactive)
REMARK    1  A    between atoms: C_2  and  O_1 
REMARK    2  A    between atoms: C_50  and  O_1 
REMARK    3  A    between atoms: C_5  and  O_58 
REMARK    4  A    between atoms: C_6  and  O_14 
REMARK    5  A    between atoms: C_8  and  O_58 
REMARK    6  A    between atoms: C_27  and  O_28 
REMARK    7  A    between atoms: C_32  and  O_33 
REMARK    8  A    between atoms: C_37  and  O_55 
REMARK    9  A    between atoms: C_38  and  C_44 
REMARK   10  A    between atoms: C_39  and  C_41 
REMARK   11  A    between atoms: C_39  and  O_40 
REMARK   12  A    between atoms: C_44  and  O_45 
REMARK   13  A    between atoms: C_47  and  O_55 
REMARK   14  A    between atoms: C_51  and  N_53 
ROOT
HETATM    1  C   UNK N   1      33.519  10.103  -0.259  0.00  0.00     0.017 A 
HETATM    2  C   UNK N   1      33.319   9.060  -1.161  0.00  0.00     0.004 A 
HETATM    3  C   UNK N   1      32.029   8.607  -1.428  0.00  0.00     0.037 A 
HETATM    4  C   UNK N   1      32.430  10.711   0.380  0.00  0.00     0.032 A 
HETATM    5  C   UNK N   1      31.117  10.260   0.115  0.00  0.00     0.062 A 
HETATM    6  C   UNK N   1      32.658  11.844   1.305  0.00  0.00     0.194 C 
HETATM    7  O   UNK N   1      33.802  12.203   1.559  0.00  0.00    -0.287 OA
HETATM    8  C   UNK N   1      29.968  10.939   0.775  0.00  0.00     0.199 C 
HETATM    9  O   UNK N   1      28.831  10.515   0.607  0.00  0.00    -0.286 OA
HETATM   10  C   UNK N   1      30.929   9.193  -0.797  0.00  0.00     0.080 A 
HETATM   11  C   UNK N   1      31.510  12.600   1.847  0.00  0.00     0.032 A 
HETATM   12  C   UNK N   1      30.190  12.178   1.580  0.00  0.00     0.063 A 
HETATM   13  C   UNK N   1      31.737  13.774   2.573  0.00  0.00     0.025 A 
HETATM   14  C   UNK N   1      29.110  12.978   2.016  0.00  0.00     0.090 A 
HETATM   15  C   UNK N   1      30.676  14.583   2.986  0.00  0.00    -0.029 A 
HETATM   16  C   UNK N   1      29.347  14.206   2.672  0.00  0.00     0.012 A 
HETATM   17  C   UNK N   1      28.667  16.579   3.212  0.00  0.00     0.076 C 
HETATM   18  C   UNK N   1      28.185  15.137   2.989  0.00  0.00     0.163 C 
HETATM   19  C   UNK N   1      30.954  15.889   3.712  0.00  0.00     0.153 C 
HETATM   20  C   UNK N   1      29.764  16.702   4.239  0.00  0.00     0.077 C 
ENDROOT
BRANCH  18  21
HETATM   21  O   UNK N   1      27.289  15.193   1.902  0.00  0.00    -0.351 OA
BRANCH  21  22
HETATM   22  C   UNK N   1      25.994  15.572   2.340  0.00  0.00     0.263 C 
HETATM   23  C   UNK N   1      25.616  15.282   3.814  0.00  0.00     0.099 C 
HETATM   24  C   UNK N   1      25.016  13.878   3.879  0.00  0.00     0.258 C 
HETATM   25  C   UNK N   1      23.924  13.637   2.804  0.00  0.00     0.186 C 
HETATM   26  C   UNK N   1      24.600  13.956   1.465  0.00  0.00     0.151 C 
HETATM   27  O   UNK N   1      24.967  15.316   1.397  0.00  0.00    -0.354 OA
HETATM   28  C   UNK N   1      23.698  13.603   0.297  0.00  0.00     0.042 C 
BRANCH  24  29
HETATM   29  N   UNK N   1      24.860  13.304   5.226  0.00  0.00     0.087 N 
HETATM   30  C   UNK N   1      25.884  13.823   6.120  0.00  0.00     0.310 C 
HETATM   31  C   UNK N   1      24.916  11.853   5.253  0.00  0.00     0.310 C 
ENDBRANCH  24  29
BRANCH  25  32
HETATM   32  O   UNK N   1      22.675  14.315   2.880  0.00  0.00    -0.351 OA
BRANCH  32  33
HETATM   33  C   UNK N   1      21.652  13.600   3.532  0.00  0.00     0.263 C 
HETATM   34  C   UNK N   1      20.296  14.014   2.973  0.00  0.00     0.095 C 
HETATM   35  C   UNK N   1      19.964  15.456   3.362  0.00  0.00     0.154 C 
HETATM   36  C   UNK N   1      20.981  16.068   4.335  0.00  0.00     0.182 C 
HETATM   37  C   UNK N   1      21.252  15.000   5.433  0.00  0.00     0.152 C 
HETATM   38  O   UNK N   1      21.709  13.743   4.944  0.00  0.00    -0.354 OA
HETATM   39  C   UNK N   1      22.229  15.447   6.506  0.00  0.00     0.042 C 
BRANCH  35  40
HETATM   40  O   UNK N   1      19.845  16.243   2.217  0.00  0.00    -0.393 OA
HETATM   41  H   UNK N   1      19.927  16.952   1.560  0.00  0.00     0.210 HD
ENDBRANCH  35  40
BRANCH  36  42
HETATM   42  O   UNK N   1      20.432  17.272   4.835  0.00  0.00    -0.351 OA
BRANCH  42  43
HETATM   43  C   UNK N   1      21.089  18.448   4.380  0.00  0.00     0.261 C 
HETATM   44  C   UNK N   1      22.513  18.041   4.035  0.00  0.00     0.068 C 
HETATM   45  C   UNK N   1      23.366  19.247   3.715  0.00  0.00     0.086 C 
HETATM   46  C   UNK N   1      22.591  20.344   3.058  0.00  0.00     0.155 C 
HETATM   47  C   UNK N   1      21.086  20.263   2.861  0.00  0.00     0.190 C 
HETATM   48  O   UNK N   1      23.185  21.354   2.714  0.00  0.00    -0.295 OA
HETATM   49  O   UNK N   1      20.470  19.046   3.253  0.00  0.00    -0.349 OA
HETATM   50  C   UNK N   1      20.790  20.462   1.384  0.00  0.00     0.048 C 
ENDBRANCH  42  43
ENDBRANCH  36  42
ENDBRANCH  32  33
ENDBRANCH  25  32
ENDBRANCH  21  22
ENDBRANCH  18  21
BRANCH  14  51
HETATM   51  O   UNK N   1      27.843  12.600   1.752  0.00  0.00    -0.359 OA
HETATM   52  H   UNK N   1      27.141  13.215   1.842  0.00  0.00     0.217 HD
ENDBRANCH  14  51
BRANCH  20  53
HETATM   53  C   UNK N   1      29.227  16.206   5.588  0.00  0.00     0.034 C 
HETATM   54  C   UNK N   1      28.482  17.263   6.384  0.00  0.00     0.008 C 
ENDBRANCH  20  53
BRANCH  20  55
HETATM   55  O   UNK N   1      30.105  18.054   4.327  0.00  0.00    -0.389 OA
HETATM   56  H   UNK N   1      30.559  18.644   3.704  0.00  0.00     0.210 HD
ENDBRANCH  20  55
BRANCH  19  57
HETATM   57  C   UNK N   1      32.342  16.240   4.176  0.00  0.00     0.270 C 
HETATM   58  O   UNK N   1      32.985  17.082   3.564  0.00  0.00    -0.264 OA
BRANCH  57  59
HETATM   59  O   UNK N   1      32.841  15.672   5.299  0.00  0.00    -0.326 OA
HETATM   60  C   UNK N   1      34.175  15.731   5.629  0.00  0.00     0.213 C 
ENDBRANCH  57  59
ENDBRANCH  19  57
BRANCH  10  61
HETATM   61  O   UNK N   1      29.698   8.735  -1.088  0.00  0.00    -0.360 OA
HETATM   62  H   UNK N   1      29.050   9.318  -1.432  0.00  0.00     0.217 HD
ENDBRANCH  10  61
TORSDOF 14
ENDMDL
