REMARK  7 active torsions:
REMARK  status: ('A' for Active; 'I' for Inactive)
REMARK    1  A    between atoms: N_2  and  C_4 
REMARK    2  A    between atoms: C_4  and  C_5 
REMARK    3  A    between atoms: C_7  and  S_20 
REMARK    4  A    between atoms: C_10  and  O_11 
REMARK    5  A    between atoms: O_11  and  C_12 
REMARK    6  A    between atoms: C_15  and  S_18 
REMARK    7  A    between atoms: S_20  and  N_23 
ROOT
HETATM    1  C   UNK N   1      -0.196  -1.055  -0.444  0.00  0.00     0.005 A 
HETATM    2  C   UNK N   1       1.070  -1.667  -0.541  0.00  0.00     0.037 A 
HETATM    3  C   UNK N   1       1.245  -2.994  -0.100  0.00  0.00     0.080 A 
HETATM    4  C   UNK N   1       0.162  -3.693   0.428  0.00  0.00     0.028 A 
HETATM    5  C   UNK N   1      -1.079  -3.098   0.521  0.00  0.00     0.039 A 
HETATM    6  C   UNK N   1      -1.292  -1.788   0.070  0.00  0.00     0.084 A 
ENDROOT
BRANCH   6   7
HETATM    7  O   UNK N   1      -2.530  -1.233   0.133  0.00  0.00    -0.310 OA
BRANCH   7   8
HETATM    8  C   UNK N   1      -3.707  -1.923   0.204  0.00  0.00     0.076 A 
HETATM    9  C   UNK N   1      -3.798  -3.268  -0.205  0.00  0.00     0.038 A 
HETATM   10  C   UNK N   1      -5.006  -3.958  -0.122  0.00  0.00     0.021 A 
HETATM   11  C   UNK N   1      -6.142  -3.313   0.365  0.00  0.00    -0.000 A 
HETATM   12  C   UNK N   1      -6.067  -1.972   0.763  0.00  0.00     0.021 A 
HETATM   13  C   UNK N   1      -4.854  -1.277   0.671  0.00  0.00     0.038 A 
BRANCH  11  14
HETATM   14  S   UNK N   1      -7.675  -4.224   0.524  0.00  0.00    -0.134 SA
HETATM   15  C   UNK N   1      -8.530  -3.237  -0.736  0.00  0.00     0.095 C 
ENDBRANCH  11  14
ENDBRANCH   7   8
ENDBRANCH   6   7
BRANCH   1  16
HETATM   16  C   UNK N   1      -0.380   0.348  -0.953  0.00  0.00     0.312 C 
BRANCH  16  17
HETATM   17  N   UNK N   1      -0.946   1.215   0.072  0.00  0.00     0.084 N 
HETATM   18  C   UNK N   1      -0.087   2.380   0.182  0.00  0.00     0.309 C 
HETATM   19  C   UNK N   1      -2.224   1.692  -0.429  0.00  0.00     0.309 C 
ENDBRANCH  16  17
ENDBRANCH   1  16
BRANCH   3  20
HETATM   20  S   UNK N   1       2.781  -3.905  -0.284  0.00  0.00     0.256 S 
HETATM   21  O   UNK N   1       4.221  -3.372  -0.285  0.00  0.00    -0.201 OA
HETATM   22  O   UNK N   1       2.819  -5.244   0.466  0.00  0.00    -0.201 OA
BRANCH  20  23
HETATM   23  N   UNK N   1       2.862  -3.212   1.338  0.00  0.00    -0.324 N 
HETATM   24  H   UNK N   1       3.232  -3.053   2.275  0.00  0.00     0.169 HD
HETATM   25  H   UNK N   1       2.044  -2.603   1.338  0.00  0.00     0.169 HD
ENDBRANCH  20  23
ENDBRANCH   3  20
TORSDOF 7
