MODEL 1
REMARK VINA RESULT:      -4.8      0.000      0.000
REMARK  1 active torsions:
REMARK  status: ('A' for Active; 'I' for Inactive)
REMARK    1  A    between atoms: C_1  and  C_4 
REMARK       I    between atoms: C_4  and  N_7 
ROOT
HETATM    1  C   UNK N   1      33.449  17.752   7.587  0.00  0.00     0.047 A 
HETATM    2  C   UNK N   1      32.110  17.602   7.973  0.00  0.00     0.107 A 
HETATM    3  C   UNK N   1      33.786  17.566   6.241  0.00  0.00     0.020 A 
HETATM    4  N   UNK N   1      31.159  17.282   7.056  0.00  0.00    -0.370 N 
HETATM    5  C   UNK N   1      32.797  17.237   5.314  0.00  0.00     0.018 A 
HETATM    6  C   UNK N   1      31.476  17.098   5.744  0.00  0.00     0.090 A 
HETATM    7  C   UNK N   1      29.781  17.133   7.483  0.00  0.00     0.154 C 
ENDROOT
BRANCH   1   8
HETATM    8  C   UNK N   1      34.484  18.099   8.580  0.00  0.00     0.250 C 
HETATM    9  N   UNK N   1      34.636  17.353   9.695  0.00  0.00    -0.366 N 
HETATM   10  H   UNK N   1      34.055  16.574   9.848  0.00  0.00     0.159 HD
HETATM   11  H   UNK N   1      35.327  17.588  10.354  0.00  0.00     0.159 HD
HETATM   12  O   UNK N   1      35.210  19.063   8.400  0.00  0.00    -0.268 OA
ENDBRANCH   1   8
TORSDOF 1
ENDMDL
MODEL 2
REMARK VINA RESULT:      -4.7      0.913      2.112
REMARK  1 active torsions:
REMARK  status: ('A' for Active; 'I' for Inactive)
REMARK    1  A    between atoms: C_1  and  C_4 
REMARK       I    between atoms: C_4  and  N_7 
ROOT
HETATM    1  C   UNK N   1      33.476  17.792   7.693  0.00  0.00     0.047 A 
HETATM    2  C   UNK N   1      33.679  17.640   6.316  0.00  0.00     0.107 A 
HETATM    3  C   UNK N   1      32.191  17.595   8.211  0.00  0.00     0.020 A 
HETATM    4  N   UNK N   1      32.644  17.306   5.498  0.00  0.00    -0.370 N 
HETATM    5  C   UNK N   1      31.141  17.254   7.358  0.00  0.00     0.018 A 
HETATM    6  C   UNK N   1      31.390  17.113   5.991  0.00  0.00     0.090 A 
HETATM    7  C   UNK N   1      32.882  17.155   4.076  0.00  0.00     0.154 C 
ENDROOT
BRANCH   1   8
HETATM    8  C   UNK N   1      34.598  18.155   8.583  0.00  0.00     0.250 C 
HETATM    9  N   UNK N   1      34.913  17.370   9.634  0.00  0.00    -0.366 N 
HETATM   10  H   UNK N   1      34.395  16.552   9.812  0.00  0.00     0.159 HD
HETATM   11  H   UNK N   1      35.662  17.616  10.225  0.00  0.00     0.159 HD
HETATM   12  O   UNK N   1      35.247  19.166   8.373  0.00  0.00    -0.268 OA
ENDBRANCH   1   8
TORSDOF 1
ENDMDL
MODEL 3
REMARK VINA RESULT:      -4.5     10.614     12.760
REMARK  1 active torsions:
REMARK  status: ('A' for Active; 'I' for Inactive)
REMARK    1  A    between atoms: C_1  and  C_4 
REMARK       I    between atoms: C_4  and  N_7 
ROOT
HETATM    1  C   UNK N   1      21.258  13.658   9.888  0.00  0.00     0.047 A 
HETATM    2  C   UNK N   1      22.601  13.776   9.508  0.00  0.00     0.107 A 
HETATM    3  C   UNK N   1      20.910  12.695  10.843  0.00  0.00     0.020 A 
HETATM    4  N   UNK N   1      23.548  12.969  10.058  0.00  0.00    -0.370 N 
HETATM    5  C   UNK N   1      21.894  11.876  11.395  0.00  0.00     0.018 A 
HETATM    6  C   UNK N   1      23.220  12.029  10.986  0.00  0.00     0.090 A 
HETATM    7  C   UNK N   1      24.931  13.113   9.646  0.00  0.00     0.154 C 
ENDROOT
BRANCH   1   8
HETATM    8  C   UNK N   1      20.228  14.533   9.293  0.00  0.00     0.250 C 
HETATM    9  N   UNK N   1      20.550  15.384   8.296  0.00  0.00    -0.366 N 
HETATM   10  H   UNK N   1      21.475  15.424   7.963  0.00  0.00     0.159 HD
HETATM   11  H   UNK N   1      19.860  15.965   7.903  0.00  0.00     0.159 HD
HETATM   12  O   UNK N   1      19.077  14.491   9.698  0.00  0.00    -0.268 OA
ENDBRANCH   1   8
TORSDOF 1
ENDMDL
MODEL 4
REMARK VINA RESULT:      -4.4      1.527      2.021
REMARK  1 active torsions:
REMARK  status: ('A' for Active; 'I' for Inactive)
REMARK    1  A    between atoms: C_1  and  C_4 
REMARK       I    between atoms: C_4  and  N_7 
ROOT
HETATM    1  C   UNK N   1      32.510  17.681   7.511  0.00  0.00     0.047 A 
HETATM    2  C   UNK N   1      31.756  18.181   8.580  0.00  0.00     0.107 A 
HETATM    3  C   UNK N   1      31.856  16.964   6.502  0.00  0.00     0.020 A 
HETATM    4  N   UNK N   1      30.413  17.972   8.634  0.00  0.00    -0.370 N 
HETATM    5  C   UNK N   1      30.478  16.759   6.575  0.00  0.00     0.018 A 
HETATM    6  C   UNK N   1      29.767  17.276   7.659  0.00  0.00     0.090 A 
HETATM    7  C   UNK N   1      29.656  18.501   9.753  0.00  0.00     0.154 C 
ENDROOT
BRANCH   1   8
HETATM    8  C   UNK N   1      33.968  17.906   7.449  0.00  0.00     0.250 C 
HETATM    9  N   UNK N   1      34.616  18.459   8.495  0.00  0.00    -0.366 N 
HETATM   10  H   UNK N   1      34.118  18.715   9.304  0.00  0.00     0.159 HD
HETATM   11  H   UNK N   1      35.588  18.607   8.450  0.00  0.00     0.159 HD
HETATM   12  O   UNK N   1      34.597  17.593   6.451  0.00  0.00    -0.268 OA
ENDBRANCH   1   8
TORSDOF 1
ENDMDL
MODEL 5
REMARK VINA RESULT:      -4.4     11.814     11.990
REMARK  1 active torsions:
REMARK  status: ('A' for Active; 'I' for Inactive)
REMARK    1  A    between atoms: C_1  and  C_4 
REMARK       I    between atoms: C_4  and  N_7 
ROOT
HETATM    1  C   UNK N   1      22.854  12.220  10.412  0.00  0.00     0.047 A 
HETATM    2  C   UNK N   1      21.900  13.241  10.298  0.00  0.00     0.107 A 
HETATM    3  C   UNK N   1      23.211  11.502   9.265  0.00  0.00     0.020 A 
HETATM    4  N   UNK N   1      21.334  13.525   9.094  0.00  0.00    -0.370 N 
HETATM    5  C   UNK N   1      22.620  11.807   8.040  0.00  0.00     0.018 A 
HETATM    6  C   UNK N   1      21.675  12.832   7.973  0.00  0.00     0.090 A 
HETATM    7  C   UNK N   1      20.350  14.587   9.005  0.00  0.00     0.154 C 
ENDROOT
BRANCH   1   8
HETATM    8  C   UNK N   1      23.469  11.909  11.718  0.00  0.00     0.250 C 
HETATM    9  N   UNK N   1      22.697  11.571  12.771  0.00  0.00    -0.366 N 
HETATM   10  H   UNK N   1      21.719  11.532  12.673  0.00  0.00     0.159 HD
HETATM   11  H   UNK N   1      23.112  11.365  13.639  0.00  0.00     0.159 HD
HETATM   12  O   UNK N   1      24.682  11.954  11.852  0.00  0.00    -0.268 OA
ENDBRANCH   1   8
TORSDOF 1
ENDMDL
MODEL 6
REMARK VINA RESULT:      -4.4     11.671     12.060
REMARK  1 active torsions:
REMARK  status: ('A' for Active; 'I' for Inactive)
REMARK    1  A    between atoms: C_1  and  C_4 
REMARK       I    between atoms: C_4  and  N_7 
ROOT
HETATM    1  C   UNK N   1      22.807  12.157  10.438  0.00  0.00     0.047 A 
HETATM    2  C   UNK N   1      23.259  11.504   9.284  0.00  0.00     0.107 A 
HETATM    3  C   UNK N   1      21.737  13.053  10.330  0.00  0.00     0.020 A 
HETATM    4  N   UNK N   1      22.667  11.738   8.082  0.00  0.00    -0.370 N 
HETATM    5  C   UNK N   1      21.143  13.281   9.089  0.00  0.00     0.018 A 
HETATM    6  C   UNK N   1      21.626  12.608   7.966  0.00  0.00     0.090 A 
HETATM    7  C   UNK N   1      23.155  11.048   6.903  0.00  0.00     0.154 C 
ENDROOT
BRANCH   1   8
HETATM    8  C   UNK N   1      23.448  11.905  11.745  0.00  0.00     0.250 C 
HETATM    9  N   UNK N   1      22.697  11.593  12.822  0.00  0.00    -0.366 N 
HETATM   10  H   UNK N   1      21.718  11.533  12.740  0.00  0.00     0.159 HD
HETATM   11  H   UNK N   1      23.129  11.426  13.690  0.00  0.00     0.159 HD
HETATM   12  O   UNK N   1      24.661  11.976  11.858  0.00  0.00    -0.268 OA
ENDBRANCH   1   8
TORSDOF 1
ENDMDL
MODEL 7
REMARK VINA RESULT:      -4.3     10.879     11.774
REMARK  1 active torsions:
REMARK  status: ('A' for Active; 'I' for Inactive)
REMARK    1  A    between atoms: C_1  and  C_4 
REMARK       I    between atoms: C_4  and  N_7 
ROOT
HETATM    1  C   UNK N   1      43.138  21.954   3.562  0.00  0.00     0.047 A 
HETATM    2  C   UNK N   1      42.625  22.945   2.716  0.00  0.00     0.107 A 
HETATM    3  C   UNK N   1      42.583  20.670   3.510  0.00  0.00     0.020 A 
HETATM    4  N   UNK N   1      41.606  22.663   1.860  0.00  0.00    -0.370 N 
HETATM    5  C   UNK N   1      41.538  20.399   2.627  0.00  0.00     0.018 A 
HETATM    6  C   UNK N   1      41.058  21.418   1.802  0.00  0.00     0.090 A 
HETATM    7  C   UNK N   1      41.094  23.708   0.995  0.00  0.00     0.154 C 
ENDROOT
BRANCH   1   8
HETATM    8  C   UNK N   1      44.244  22.257   4.492  0.00  0.00     0.250 C 
HETATM    9  N   UNK N   1      45.524  22.049   4.119  0.00  0.00    -0.366 N 
HETATM   10  H   UNK N   1      45.724  21.692   3.224  0.00  0.00     0.159 HD
HETATM   11  H   UNK N   1      46.258  22.253   4.743  0.00  0.00     0.159 HD
HETATM   12  O   UNK N   1      44.008  22.700   5.605  0.00  0.00    -0.268 OA
ENDBRANCH   1   8
TORSDOF 1
ENDMDL
MODEL 8
REMARK VINA RESULT:      -4.3      3.264      4.675
REMARK  1 active torsions:
REMARK  status: ('A' for Active; 'I' for Inactive)
REMARK    1  A    between atoms: C_1  and  C_4 
REMARK       I    between atoms: C_4  and  N_7 
ROOT
HETATM    1  C   UNK N   1      29.511  17.675   8.306  0.00  0.00     0.047 A 
HETATM    2  C   UNK N   1      29.644  16.993   7.090  0.00  0.00     0.107 A 
HETATM    3  C   UNK N   1      30.665  18.140   8.947  0.00  0.00     0.020 A 
HETATM    4  N   UNK N   1      30.873  16.787   6.544  0.00  0.00    -0.370 N 
HETATM    5  C   UNK N   1      31.917  17.919   8.374  0.00  0.00     0.018 A 
HETATM    6  C   UNK N   1      32.002  17.234   7.160  0.00  0.00     0.090 A 
HETATM    7  C   UNK N   1      30.981  16.078   5.284  0.00  0.00     0.154 C 
ENDROOT
BRANCH   1   8
HETATM    8  C   UNK N   1      28.178  17.900   8.901  0.00  0.00     0.250 C 
HETATM    9  N   UNK N   1      27.496  19.033   8.634  0.00  0.00    -0.366 N 
HETATM   10  H   UNK N   1      27.886  19.714   8.041  0.00  0.00     0.159 HD
HETATM   11  H   UNK N   1      26.608  19.178   9.032  0.00  0.00     0.159 HD
HETATM   12  O   UNK N   1      27.685  17.061   9.638  0.00  0.00    -0.268 OA
ENDBRANCH   1   8
TORSDOF 1
ENDMDL
MODEL 9
REMARK VINA RESULT:      -4.3      3.041      4.625
REMARK  1 active torsions:
REMARK  status: ('A' for Active; 'I' for Inactive)
REMARK    1  A    between atoms: C_1  and  C_4 
REMARK       I    between atoms: C_4  and  N_7 
ROOT
HETATM    1  C   UNK N   1      29.420  17.573   8.103  0.00  0.00     0.047 A 
HETATM    2  C   UNK N   1      30.695  17.661   8.677  0.00  0.00     0.107 A 
HETATM    3  C   UNK N   1      29.314  17.244   6.746  0.00  0.00     0.020 A 
HETATM    4  N   UNK N   1      31.807  17.429   7.929  0.00  0.00    -0.370 N 
HETATM    5  C   UNK N   1      30.465  17.011   5.994  0.00  0.00     0.018 A 
HETATM    6  C   UNK N   1      31.714  17.109   6.609  0.00  0.00     0.090 A 
HETATM    7  C   UNK N   1      33.114  17.527   8.549  0.00  0.00     0.154 C 
ENDROOT
BRANCH   1   8
HETATM    8  C   UNK N   1      28.211  17.824   8.913  0.00  0.00     0.250 C 
HETATM    9  N   UNK N   1      27.502  18.959   8.744  0.00  0.00    -0.366 N 
HETATM   10  H   UNK N   1      27.789  19.626   8.079  0.00  0.00     0.159 HD
HETATM   11  H   UNK N   1      26.697  19.122   9.286  0.00  0.00     0.159 HD
HETATM   12  O   UNK N   1      27.845  17.005   9.740  0.00  0.00    -0.268 OA
ENDBRANCH   1   8
TORSDOF 1
ENDMDL
