MODEL 1
REMARK VINA RESULT:      -7.5      0.000      0.000
REMARK  6 active torsions:
REMARK  status: ('A' for Active; 'I' for Inactive)
REMARK    1  A    between atoms: C_3  and  S_26 
REMARK    2  A    between atoms: C_5  and  N_8 
REMARK       I    between atoms: N_8  and  C_10 
REMARK    3  A    between atoms: C_10  and  C_12 
REMARK    4  A    between atoms: C_12  and  C_13 
REMARK    5  A    between atoms: C_16  and  C_19 
REMARK    6  A    between atoms: S_26  and  N_29 
ROOT
HETATM    1  N   UNK N   1      36.448  13.334  11.993  0.00  0.00    -0.302 N 
HETATM    2  C   UNK N   1      37.642  12.649  11.553  0.00  0.00     0.161 C 
HETATM    3  C   UNK N   1      36.092  13.307  13.312  0.00  0.00     0.229 C 
HETATM    4  O   UNK N   1      35.017  13.776  13.667  0.00  0.00    -0.273 OA
ENDROOT
BRANCH   3   5
HETATM    5  C   UNK N   1      37.026  12.738  14.361  0.00  0.00     0.141 C 
BRANCH   5   6
HETATM    6  C   UNK N   1      36.223  12.092  15.453  0.00  0.00    -0.049 A 
HETATM    7  C   UNK N   1      35.875  12.825  16.590  0.00  0.00     0.008 A 
HETATM    8  C   UNK N   1      35.283  12.183  17.683  0.00  0.00     0.014 A 
HETATM    9  C   UNK N   1      35.065  10.795  17.655  0.00  0.00    -0.009 A 
HETATM   10  C   UNK N   1      35.385  10.073  16.500  0.00  0.00     0.014 A 
HETATM   11  C   UNK N   1      35.946  10.717  15.401  0.00  0.00     0.008 A 
BRANCH   9  12
HETATM   12  C   UNK N   1      34.595  10.078  18.856  0.00  0.00     0.042 A 
HETATM   13  C   UNK N   1      33.897   8.867  18.743  0.00  0.00     0.030 A 
HETATM   14  C   UNK N   1      33.408   8.245  19.891  0.00  0.00     0.004 A 
HETATM   15  C   UNK N   1      33.601   8.841  21.138  0.00  0.00     0.017 A 
HETATM   16  C   UNK N   1      34.295  10.049  21.218  0.00  0.00     0.088 A 
HETATM   17  N   UNK N   1      34.776  10.636  20.089  0.00  0.00    -0.365 N 
ATOM     18  HN  UNK N   1      35.284  11.515  20.166  1.00  0.00     0.165 HD
ENDBRANCH   9  12
ENDBRANCH   5   6
ENDBRANCH   3   5
BRANCH   1  19
HETATM   19  C   UNK N   1      35.687  14.077  11.040  0.00  0.00     0.154 A 
HETATM   20  S   UNK N   1      36.012  15.611  10.509  0.00  0.00    -0.038 SA
HETATM   21  C   UNK N   1      34.657  15.797   9.580  0.00  0.00     0.145 A 
HETATM   22  C   UNK N   1      33.914  14.614   9.722  0.00  0.00     0.037 A 
HETATM   23  C   UNK N   1      32.588  14.390   9.083  0.00  0.00     0.070 C 
HETATM   24  N   UNK N   1      34.495  13.661  10.528  0.00  0.00    -0.338 N 
ATOM     25  HN  UNK N   1      34.081  12.749  10.720  1.00  0.00     0.168 HD
BRANCH  21  26
HETATM   26  S   UNK N   1      34.259  17.240   8.603  0.00  0.00     0.265 S 
HETATM   27  O   UNK N   1      34.535  17.028   7.107  0.00  0.00    -0.200 OA
HETATM   28  O   UNK N   1      35.155  18.442   8.934  0.00  0.00    -0.200 OA
BRANCH  26  29
HETATM   29  N   UNK N   1      32.612  17.866   8.679  0.00  0.00    -0.324 N 
HETATM   30  H   UNK N   1      32.066  17.772   9.535  0.00  0.00     0.169 HD
HETATM   31  H   UNK N   1      32.204  18.326   7.865  0.00  0.00     0.169 HD
ENDBRANCH  26  29
ENDBRANCH  21  26
ENDBRANCH   1  19
TORSDOF 6
ENDMDL
MODEL 2
REMARK VINA RESULT:      -7.4      3.944     10.311
REMARK  6 active torsions:
REMARK  status: ('A' for Active; 'I' for Inactive)
REMARK    1  A    between atoms: C_3  and  S_26 
REMARK    2  A    between atoms: C_5  and  N_8 
REMARK       I    between atoms: N_8  and  C_10 
REMARK    3  A    between atoms: C_10  and  C_12 
REMARK    4  A    between atoms: C_12  and  C_13 
REMARK    5  A    between atoms: C_16  and  C_19 
REMARK    6  A    between atoms: S_26  and  N_29 
ROOT
HETATM    1  N   UNK N   1      36.229  14.009  10.999  0.00  0.00    -0.302 N 
HETATM    2  C   UNK N   1      36.602  13.001  10.034  0.00  0.00     0.161 C 
HETATM    3  C   UNK N   1      35.802  15.235  10.573  0.00  0.00     0.229 C 
HETATM    4  O   UNK N   1      35.608  16.133  11.385  0.00  0.00    -0.273 OA
ENDROOT
BRANCH   3   5
HETATM    5  C   UNK N   1      35.523  15.500   9.107  0.00  0.00     0.141 C 
BRANCH   5   6
HETATM    6  C   UNK N   1      34.173  16.140   8.959  0.00  0.00    -0.049 A 
HETATM    7  C   UNK N   1      33.016  15.384   9.165  0.00  0.00     0.008 A 
HETATM    8  C   UNK N   1      31.763  15.925   8.858  0.00  0.00     0.014 A 
HETATM    9  C   UNK N   1      31.664  17.218   8.313  0.00  0.00    -0.009 A 
HETATM   10  C   UNK N   1      32.824  17.981   8.141  0.00  0.00     0.014 A 
HETATM   11  C   UNK N   1      34.069  17.453   8.475  0.00  0.00     0.008 A 
BRANCH   9  12
HETATM   12  C   UNK N   1      30.370  17.740   7.832  0.00  0.00     0.042 A 
HETATM   13  C   UNK N   1      29.488  18.388   8.707  0.00  0.00     0.030 A 
HETATM   14  C   UNK N   1      28.245  18.813   8.240  0.00  0.00     0.004 A 
HETATM   15  C   UNK N   1      27.883  18.573   6.913  0.00  0.00     0.017 A 
HETATM   16  C   UNK N   1      28.781  17.921   6.068  0.00  0.00     0.088 A 
HETATM   17  N   UNK N   1      29.995  17.524   6.537  0.00  0.00    -0.365 N 
ATOM     18  HN  UNK N   1      30.640  17.053   5.905  1.00  0.00     0.165 HD
ENDBRANCH   9  12
ENDBRANCH   5   6
ENDBRANCH   3   5
BRANCH   1  19
HETATM   19  C   UNK N   1      36.264  13.683  12.388  0.00  0.00     0.154 A 
HETATM   20  S   UNK N   1      35.532  12.384  13.108  0.00  0.00    -0.038 SA
HETATM   21  C   UNK N   1      35.905  12.779  14.669  0.00  0.00     0.145 A 
HETATM   22  C   UNK N   1      36.607  13.993  14.615  0.00  0.00     0.037 A 
HETATM   23  C   UNK N   1      37.086  14.725  15.819  0.00  0.00     0.070 C 
HETATM   24  N   UNK N   1      36.810  14.485  13.345  0.00  0.00    -0.338 N 
ATOM     25  HN  UNK N   1      37.309  15.351  13.143  1.00  0.00     0.168 HD
BRANCH  21  26
HETATM   26  S   UNK N   1      35.476  11.816  16.113  0.00  0.00     0.265 S 
HETATM   27  O   UNK N   1      36.633  10.921  16.584  0.00  0.00    -0.200 OA
HETATM   28  O   UNK N   1      34.365  10.794  15.832  0.00  0.00    -0.200 OA
BRANCH  26  29
HETATM   29  N   UNK N   1      34.947  12.676  17.559  0.00  0.00    -0.324 N 
HETATM   30  H   UNK N   1      35.486  13.465  17.913  0.00  0.00     0.169 HD
HETATM   31  H   UNK N   1      34.097  12.384  18.042  0.00  0.00     0.169 HD
ENDBRANCH  26  29
ENDBRANCH  21  26
ENDBRANCH   1  19
TORSDOF 6
ENDMDL
MODEL 3
REMARK VINA RESULT:      -7.3      2.166      3.071
REMARK  6 active torsions:
REMARK  status: ('A' for Active; 'I' for Inactive)
REMARK    1  A    between atoms: C_3  and  S_26 
REMARK    2  A    between atoms: C_5  and  N_8 
REMARK       I    between atoms: N_8  and  C_10 
REMARK    3  A    between atoms: C_10  and  C_12 
REMARK    4  A    between atoms: C_12  and  C_13 
REMARK    5  A    between atoms: C_16  and  C_19 
REMARK    6  A    between atoms: S_26  and  N_29 
ROOT
HETATM    1  N   UNK N   1      35.678  12.592   9.668  0.00  0.00    -0.302 N 
HETATM    2  C   UNK N   1      37.112  12.528   9.826  0.00  0.00     0.161 C 
HETATM    3  C   UNK N   1      34.883  11.652  10.261  0.00  0.00     0.229 C 
HETATM    4  O   UNK N   1      33.680  11.628  10.025  0.00  0.00    -0.273 OA
ENDROOT
BRANCH   3   5
HETATM    5  C   UNK N   1      35.457  10.654  11.247  0.00  0.00     0.141 C 
BRANCH   5   6
HETATM    6  C   UNK N   1      35.298  11.178  12.645  0.00  0.00    -0.049 A 
HETATM    7  C   UNK N   1      36.334  11.901  13.241  0.00  0.00     0.008 A 
HETATM    8  C   UNK N   1      36.263  12.237  14.597  0.00  0.00     0.014 A 
HETATM    9  C   UNK N   1      35.165  11.824  15.372  0.00  0.00    -0.009 A 
HETATM   10  C   UNK N   1      34.115  11.130  14.761  0.00  0.00     0.014 A 
HETATM   11  C   UNK N   1      34.173  10.822  13.404  0.00  0.00     0.008 A 
BRANCH   9  12
HETATM   12  C   UNK N   1      35.151  12.028  16.834  0.00  0.00     0.042 A 
HETATM   13  C   UNK N   1      35.099  13.318  17.378  0.00  0.00     0.030 A 
HETATM   14  C   UNK N   1      35.153  13.483  18.762  0.00  0.00     0.004 A 
HETATM   15  C   UNK N   1      35.277  12.366  19.589  0.00  0.00     0.017 A 
HETATM   16  C   UNK N   1      35.330  11.095  19.017  0.00  0.00     0.088 A 
HETATM   17  N   UNK N   1      35.264  10.952  17.666  0.00  0.00    -0.365 N 
ATOM     18  HN  UNK N   1      35.300  10.016  17.265  1.00  0.00     0.165 HD
ENDBRANCH   9  12
ENDBRANCH   5   6
ENDBRANCH   3   5
BRANCH   1  19
HETATM   19  C   UNK N   1      35.112  13.676   8.931  0.00  0.00     0.154 A 
HETATM   20  S   UNK N   1      35.379  15.287   9.199  0.00  0.00    -0.038 SA
HETATM   21  C   UNK N   1      34.305  15.862   8.081  0.00  0.00     0.145 A 
HETATM   22  C   UNK N   1      33.699  14.737   7.500  0.00  0.00     0.037 A 
HETATM   23  C   UNK N   1      32.625  14.817   6.471  0.00  0.00     0.070 C 
HETATM   24  N   UNK N   1      34.157  13.527   7.971  0.00  0.00    -0.338 N 
ATOM     25  HN  UNK N   1      33.819  12.623   7.641  1.00  0.00     0.168 HD
BRANCH  21  26
HETATM   26  S   UNK N   1      34.009  17.587   7.718  0.00  0.00     0.265 S 
HETATM   27  O   UNK N   1      32.545  17.991   7.950  0.00  0.00    -0.200 OA
HETATM   28  O   UNK N   1      34.209  17.919   6.232  0.00  0.00    -0.200 OA
BRANCH  26  29
HETATM   29  N   UNK N   1      34.958  18.794   8.585  0.00  0.00    -0.324 N 
HETATM   30  H   UNK N   1      34.676  19.096   9.517  0.00  0.00     0.169 HD
HETATM   31  H   UNK N   1      35.794  19.191   8.153  0.00  0.00     0.169 HD
ENDBRANCH  26  29
ENDBRANCH  21  26
ENDBRANCH   1  19
TORSDOF 6
ENDMDL
MODEL 4
REMARK VINA RESULT:      -7.3      2.478      3.533
REMARK  6 active torsions:
REMARK  status: ('A' for Active; 'I' for Inactive)
REMARK    1  A    between atoms: C_3  and  S_26 
REMARK    2  A    between atoms: C_5  and  N_8 
REMARK       I    between atoms: N_8  and  C_10 
REMARK    3  A    between atoms: C_10  and  C_12 
REMARK    4  A    between atoms: C_12  and  C_13 
REMARK    5  A    between atoms: C_16  and  C_19 
REMARK    6  A    between atoms: S_26  and  N_29 
ROOT
HETATM    1  N   UNK N   1      34.514  13.974   9.812  0.00  0.00    -0.302 N 
HETATM    2  C   UNK N   1      35.138  12.873   9.114  0.00  0.00     0.161 C 
HETATM    3  C   UNK N   1      34.846  14.234  11.111  0.00  0.00     0.229 C 
HETATM    4  O   UNK N   1      34.227  15.083  11.744  0.00  0.00    -0.273 OA
ENDROOT
BRANCH   3   5
HETATM    5  C   UNK N   1      36.001  13.517  11.781  0.00  0.00     0.141 C 
BRANCH   5   6
HETATM    6  C   UNK N   1      35.678  13.286  13.229  0.00  0.00    -0.049 A 
HETATM    7  C   UNK N   1      36.371  13.986  14.219  0.00  0.00     0.008 A 
HETATM    8  C   UNK N   1      36.200  13.648  15.565  0.00  0.00     0.014 A 
HETATM    9  C   UNK N   1      35.355  12.584  15.926  0.00  0.00    -0.009 A 
HETATM   10  C   UNK N   1      34.638  11.909  14.932  0.00  0.00     0.014 A 
HETATM   11  C   UNK N   1      34.786  12.265  13.594  0.00  0.00     0.008 A 
BRANCH   9  12
HETATM   12  C   UNK N   1      35.289  12.109  17.322  0.00  0.00     0.042 A 
HETATM   13  C   UNK N   1      35.230  13.018  18.387  0.00  0.00     0.030 A 
HETATM   14  C   UNK N   1      35.235  12.542  19.698  0.00  0.00     0.004 A 
HETATM   15  C   UNK N   1      35.316  11.170  19.938  0.00  0.00     0.017 A 
HETATM   16  C   UNK N   1      35.378  10.291  18.856  0.00  0.00     0.088 A 
HETATM   17  N   UNK N   1      35.360  10.771  17.584  0.00  0.00    -0.365 N 
ATOM     18  HN  UNK N   1      35.401  10.114  16.806  1.00  0.00     0.165 HD
ENDBRANCH   9  12
ENDBRANCH   5   6
ENDBRANCH   3   5
BRANCH   1  19
HETATM   19  C   UNK N   1      33.593  14.805   9.106  0.00  0.00     0.154 A 
HETATM   20  S   UNK N   1      32.568  14.326   7.897  0.00  0.00    -0.038 SA
HETATM   21  C   UNK N   1      31.977  15.824   7.524  0.00  0.00     0.145 A 
HETATM   22  C   UNK N   1      32.637  16.732   8.367  0.00  0.00     0.037 A 
HETATM   23  C   UNK N   1      32.429  18.205   8.318  0.00  0.00     0.070 C 
HETATM   24  N   UNK N   1      33.527  16.159   9.247  0.00  0.00    -0.338 N 
ATOM     25  HN  UNK N   1      34.075  16.686   9.927  1.00  0.00     0.168 HD
BRANCH  21  26
HETATM   26  S   UNK N   1      30.740  16.171   6.281  0.00  0.00     0.265 S 
HETATM   27  O   UNK N   1      29.531  16.925   6.855  0.00  0.00    -0.200 OA
HETATM   28  O   UNK N   1      30.094  14.895   5.720  0.00  0.00    -0.200 OA
BRANCH  26  29
HETATM   29  N   UNK N   1      31.224  17.097   4.861  0.00  0.00    -0.324 N 
HETATM   30  H   UNK N   1      32.124  17.576   4.843  0.00  0.00     0.169 HD
HETATM   31  H   UNK N   1      30.603  17.152   4.053  0.00  0.00     0.169 HD
ENDBRANCH  26  29
ENDBRANCH  21  26
ENDBRANCH   1  19
TORSDOF 6
ENDMDL
MODEL 5
REMARK VINA RESULT:      -7.2      4.650     11.339
REMARK  6 active torsions:
REMARK  status: ('A' for Active; 'I' for Inactive)
REMARK    1  A    between atoms: C_3  and  S_26 
REMARK    2  A    between atoms: C_5  and  N_8 
REMARK       I    between atoms: N_8  and  C_10 
REMARK    3  A    between atoms: C_10  and  C_12 
REMARK    4  A    between atoms: C_12  and  C_13 
REMARK    5  A    between atoms: C_16  and  C_19 
REMARK    6  A    between atoms: S_26  and  N_29 
ROOT
HETATM    1  N   UNK N   1      34.158  14.404   8.972  0.00  0.00    -0.302 N 
HETATM    2  C   UNK N   1      35.042  15.324   8.294  0.00  0.00     0.161 C 
HETATM    3  C   UNK N   1      33.013  13.980   8.359  0.00  0.00     0.229 C 
HETATM    4  O   UNK N   1      32.200  13.303   8.978  0.00  0.00    -0.273 OA
ENDROOT
BRANCH   3   5
HETATM    5  C   UNK N   1      32.744  14.298   6.902  0.00  0.00     0.141 C 
BRANCH   5   6
HETATM    6  C   UNK N   1      31.575  15.235   6.799  0.00  0.00    -0.049 A 
HETATM    7  C   UNK N   1      30.639  15.072   5.775  0.00  0.00     0.008 A 
HETATM    8  C   UNK N   1      29.652  16.041   5.569  0.00  0.00     0.014 A 
HETATM    9  C   UNK N   1      29.616  17.197   6.369  0.00  0.00    -0.009 A 
HETATM   10  C   UNK N   1      30.536  17.337   7.414  0.00  0.00     0.014 A 
HETATM   11  C   UNK N   1      31.500  16.358   7.638  0.00  0.00     0.008 A 
BRANCH   9  12
HETATM   12  C   UNK N   1      28.688  18.302   6.061  0.00  0.00     0.042 A 
HETATM   13  C   UNK N   1      28.341  18.601   4.737  0.00  0.00     0.030 A 
HETATM   14  C   UNK N   1      27.514  19.692   4.472  0.00  0.00     0.004 A 
HETATM   15  C   UNK N   1      27.054  20.485   5.524  0.00  0.00     0.017 A 
HETATM   16  C   UNK N   1      27.420  20.165   6.831  0.00  0.00     0.088 A 
HETATM   17  N   UNK N   1      28.218  19.090   7.073  0.00  0.00    -0.365 N 
ATOM     18  HN  UNK N   1      28.472  18.868   8.034  1.00  0.00     0.165 HD
ENDBRANCH   9  12
ENDBRANCH   5   6
ENDBRANCH   3   5
BRANCH   1  19
HETATM   19  C   UNK N   1      34.530  13.912  10.260  0.00  0.00     0.154 A 
HETATM   20  S   UNK N   1      35.309  14.764  11.446  0.00  0.00    -0.038 SA
HETATM   21  C   UNK N   1      35.494  13.511  12.510  0.00  0.00     0.145 A 
HETATM   22  C   UNK N   1      34.945  12.379  11.888  0.00  0.00     0.037 A 
HETATM   23  C   UNK N   1      34.953  11.019  12.493  0.00  0.00     0.070 C 
HETATM   24  N   UNK N   1      34.404  12.610  10.643  0.00  0.00    -0.338 N 
ATOM     25  HN  UNK N   1      33.962  11.890  10.071  1.00  0.00     0.168 HD
BRANCH  21  26
HETATM   26  S   UNK N   1      36.252  13.625  14.125  0.00  0.00     0.265 S 
HETATM   27  O   UNK N   1      35.257  13.338  15.259  0.00  0.00    -0.200 OA
HETATM   28  O   UNK N   1      36.724  15.048  14.456  0.00  0.00    -0.200 OA
BRANCH  26  29
HETATM   29  N   UNK N   1      37.642  12.595  14.465  0.00  0.00    -0.324 N 
HETATM   30  H   UNK N   1      38.565  13.006  14.599  0.00  0.00     0.169 HD
HETATM   31  H   UNK N   1      37.522  11.583  14.529  0.00  0.00     0.169 HD
ENDBRANCH  26  29
ENDBRANCH  21  26
ENDBRANCH   1  19
TORSDOF 6
ENDMDL
MODEL 6
REMARK VINA RESULT:      -7.2      4.048      6.441
REMARK  6 active torsions:
REMARK  status: ('A' for Active; 'I' for Inactive)
REMARK    1  A    between atoms: C_3  and  S_26 
REMARK    2  A    between atoms: C_5  and  N_8 
REMARK       I    between atoms: N_8  and  C_10 
REMARK    3  A    between atoms: C_10  and  C_12 
REMARK    4  A    between atoms: C_12  and  C_13 
REMARK    5  A    between atoms: C_16  and  C_19 
REMARK    6  A    between atoms: S_26  and  N_29 
ROOT
HETATM    1  N   UNK N   1      33.318  15.376   7.143  0.00  0.00    -0.302 N 
HETATM    2  C   UNK N   1      34.447  16.146   6.676  0.00  0.00     0.161 C 
HETATM    3  C   UNK N   1      33.479  14.060   7.471  0.00  0.00     0.229 C 
HETATM    4  O   UNK N   1      32.501  13.371   7.744  0.00  0.00    -0.273 OA
ENDROOT
BRANCH   3   5
HETATM    5  C   UNK N   1      34.858  13.435   7.544  0.00  0.00     0.141 C 
BRANCH   5   6
HETATM    6  C   UNK N   1      35.287  13.328   8.978  0.00  0.00    -0.049 A 
HETATM    7  C   UNK N   1      34.914  12.216   9.737  0.00  0.00     0.008 A 
HETATM    8  C   UNK N   1      35.159  12.194  11.114  0.00  0.00     0.014 A 
HETATM    9  C   UNK N   1      35.752  13.301  11.745  0.00  0.00    -0.009 A 
HETATM   10  C   UNK N   1      36.154  14.398  10.974  0.00  0.00     0.014 A 
HETATM   11  C   UNK N   1      35.937  14.407   9.599  0.00  0.00     0.008 A 
BRANCH   9  12
HETATM   12  C   UNK N   1      35.868  13.363  13.215  0.00  0.00     0.042 A 
HETATM   13  C   UNK N   1      35.001  12.627  14.035  0.00  0.00     0.030 A 
HETATM   14  C   UNK N   1      35.091  12.755  15.420  0.00  0.00     0.004 A 
HETATM   15  C   UNK N   1      36.029  13.625  15.977  0.00  0.00     0.017 A 
HETATM   16  C   UNK N   1      36.875  14.347  15.134  0.00  0.00     0.088 A 
HETATM   17  N   UNK N   1      36.782  14.201  13.786  0.00  0.00    -0.365 N 
ATOM     18  HN  UNK N   1      37.411  14.732  13.185  1.00  0.00     0.165 HD
ENDBRANCH   9  12
ENDBRANCH   5   6
ENDBRANCH   3   5
BRANCH   1  19
HETATM   19  C   UNK N   1      32.057  16.026   7.304  0.00  0.00     0.154 A 
HETATM   20  S   UNK N   1      31.527  16.813   8.661  0.00  0.00    -0.038 SA
HETATM   21  C   UNK N   1      29.999  17.142   8.122  0.00  0.00     0.145 A 
HETATM   22  C   UNK N   1      29.902  16.584   6.838  0.00  0.00     0.037 A 
HETATM   23  C   UNK N   1      28.662  16.615   6.015  0.00  0.00     0.070 C 
HETATM   24  N   UNK N   1      31.051  15.973   6.387  0.00  0.00    -0.338 N 
ATOM     25  HN  UNK N   1      31.138  15.530   5.472  1.00  0.00     0.168 HD
BRANCH  21  26
HETATM   26  S   UNK N   1      28.748  18.038   9.033  0.00  0.00     0.265 S 
HETATM   27  O   UNK N   1      29.334  18.810  10.225  0.00  0.00    -0.200 OA
HETATM   28  O   UNK N   1      27.734  17.107   9.712  0.00  0.00    -0.200 OA
BRANCH  26  29
HETATM   29  N   UNK N   1      27.769  19.217   8.161  0.00  0.00    -0.324 N 
HETATM   30  H   UNK N   1      26.755  19.115   8.122  0.00  0.00     0.169 HD
HETATM   31  H   UNK N   1      28.218  20.006   7.694  0.00  0.00     0.169 HD
ENDBRANCH  26  29
ENDBRANCH  21  26
ENDBRANCH   1  19
TORSDOF 6
ENDMDL
MODEL 7
REMARK VINA RESULT:      -7.2      9.007     15.389
REMARK  6 active torsions:
REMARK  status: ('A' for Active; 'I' for Inactive)
REMARK    1  A    between atoms: C_3  and  S_26 
REMARK    2  A    between atoms: C_5  and  N_8 
REMARK       I    between atoms: N_8  and  C_10 
REMARK    3  A    between atoms: C_10  and  C_12 
REMARK    4  A    between atoms: C_12  and  C_13 
REMARK    5  A    between atoms: C_16  and  C_19 
REMARK    6  A    between atoms: S_26  and  N_29 
ROOT
HETATM    1  N   UNK N   1      28.833  18.263   6.626  0.00  0.00    -0.302 N 
HETATM    2  C   UNK N   1      28.212  18.926   7.749  0.00  0.00     0.161 C 
HETATM    3  C   UNK N   1      28.597  18.707   5.356  0.00  0.00     0.229 C 
HETATM    4  O   UNK N   1      29.017  18.071   4.396  0.00  0.00    -0.273 OA
ENDROOT
BRANCH   3   5
HETATM    5  C   UNK N   1      27.853  20.004   5.107  0.00  0.00     0.141 C 
BRANCH   5   6
HETATM    6  C   UNK N   1      26.511  19.707   4.502  0.00  0.00    -0.049 A 
HETATM    7  C   UNK N   1      26.084  20.410   3.373  0.00  0.00     0.008 A 
HETATM    8  C   UNK N   1      24.771  20.263   2.913  0.00  0.00     0.014 A 
HETATM    9  C   UNK N   1      23.868  19.434   3.601  0.00  0.00    -0.009 A 
HETATM   10  C   UNK N   1      24.313  18.708   4.711  0.00  0.00     0.014 A 
HETATM   11  C   UNK N   1      25.628  18.831   5.151  0.00  0.00     0.008 A 
BRANCH   9  12
HETATM   12  C   UNK N   1      22.441  19.396   3.228  0.00  0.00     0.042 A 
HETATM   13  C   UNK N   1      21.832  20.493   2.603  0.00  0.00     0.030 A 
HETATM   14  C   UNK N   1      20.467  20.453   2.321  0.00  0.00     0.004 A 
HETATM   15  C   UNK N   1      19.717  19.333   2.680  0.00  0.00     0.017 A 
HETATM   16  C   UNK N   1      20.351  18.259   3.305  0.00  0.00     0.088 A 
HETATM   17  N   UNK N   1      21.685  18.309   3.562  0.00  0.00    -0.365 N 
ATOM     18  HN  UNK N   1      22.133  17.514   4.015  1.00  0.00     0.165 HD
ENDBRANCH   9  12
ENDBRANCH   5   6
ENDBRANCH   3   5
BRANCH   1  19
HETATM   19  C   UNK N   1      29.730  17.181   6.873  0.00  0.00     0.154 A 
HETATM   20  S   UNK N   1      30.761  17.037   8.161  0.00  0.00    -0.038 SA
HETATM   21  C   UNK N   1      31.517  15.653   7.665  0.00  0.00     0.145 A 
HETATM   22  C   UNK N   1      30.951  15.315   6.426  0.00  0.00     0.037 A 
HETATM   23  C   UNK N   1      31.389  14.150   5.608  0.00  0.00     0.070 C 
HETATM   24  N   UNK N   1      29.954  16.162   5.996  0.00  0.00    -0.338 N 
ATOM     25  HN  UNK N   1      29.443  16.043   5.122  1.00  0.00     0.168 HD
BRANCH  21  26
HETATM   26  S   UNK N   1      32.800  14.793   8.564  0.00  0.00     0.265 S 
HETATM   27  O   UNK N   1      34.124  14.738   7.787  0.00  0.00    -0.200 OA
HETATM   28  O   UNK N   1      32.479  13.305   8.770  0.00  0.00    -0.200 OA
BRANCH  26  29
HETATM   29  N   UNK N   1      33.235  15.389  10.166  0.00  0.00    -0.324 N 
HETATM   30  H   UNK N   1      33.222  14.760  10.969  0.00  0.00     0.169 HD
HETATM   31  H   UNK N   1      33.501  16.366  10.291  0.00  0.00     0.169 HD
ENDBRANCH  26  29
ENDBRANCH  21  26
ENDBRANCH   1  19
TORSDOF 6
ENDMDL
MODEL 8
REMARK VINA RESULT:      -7.2     12.268     14.345
REMARK  6 active torsions:
REMARK  status: ('A' for Active; 'I' for Inactive)
REMARK    1  A    between atoms: C_3  and  S_26 
REMARK    2  A    between atoms: C_5  and  N_8 
REMARK       I    between atoms: N_8  and  C_10 
REMARK    3  A    between atoms: C_10  and  C_12 
REMARK    4  A    between atoms: C_12  and  C_13 
REMARK    5  A    between atoms: C_16  and  C_19 
REMARK    6  A    between atoms: S_26  and  N_29 
ROOT
HETATM    1  N   UNK N   1      25.016  16.451   4.557  0.00  0.00    -0.302 N 
HETATM    2  C   UNK N   1      26.057  17.167   5.257  0.00  0.00     0.161 C 
HETATM    3  C   UNK N   1      25.124  15.102   4.369  0.00  0.00     0.229 C 
HETATM    4  O   UNK N   1      24.309  14.514   3.666  0.00  0.00    -0.273 OA
ENDROOT
BRANCH   3   5
HETATM    5  C   UNK N   1      26.217  14.303   5.050  0.00  0.00     0.141 C 
BRANCH   5   6
HETATM    6  C   UNK N   1      25.699  13.740   6.342  0.00  0.00    -0.049 A 
HETATM    7  C   UNK N   1      25.005  12.528   6.346  0.00  0.00     0.008 A 
HETATM    8  C   UNK N   1      24.371  12.089   7.513  0.00  0.00     0.014 A 
HETATM    9  C   UNK N   1      24.401  12.879   8.675  0.00  0.00    -0.009 A 
HETATM   10  C   UNK N   1      25.126  14.076   8.673  0.00  0.00     0.014 A 
HETATM   11  C   UNK N   1      25.782  14.498   7.520  0.00  0.00     0.008 A 
BRANCH   9  12
HETATM   12  C   UNK N   1      23.603  12.512   9.862  0.00  0.00     0.042 A 
HETATM   13  C   UNK N   1      22.203  12.484   9.804  0.00  0.00     0.030 A 
HETATM   14  C   UNK N   1      21.473  12.198  10.957  0.00  0.00     0.004 A 
HETATM   15  C   UNK N   1      22.140  11.960  12.159  0.00  0.00     0.017 A 
HETATM   16  C   UNK N   1      23.535  12.000  12.185  0.00  0.00     0.088 A 
HETATM   17  N   UNK N   1      24.231  12.269  11.049  0.00  0.00    -0.365 N 
ATOM     18  HN  UNK N   1      25.250  12.289  11.085  1.00  0.00     0.165 HD
ENDBRANCH   9  12
ENDBRANCH   5   6
ENDBRANCH   3   5
BRANCH   1  19
HETATM   19  C   UNK N   1      23.861  17.166   4.117  0.00  0.00     0.154 A 
HETATM   20  S   UNK N   1      23.812  18.752   3.646  0.00  0.00    -0.038 SA
HETATM   21  C   UNK N   1      22.175  18.854   3.439  0.00  0.00     0.145 A 
HETATM   22  C   UNK N   1      21.654  17.597   3.783  0.00  0.00     0.037 A 
HETATM   23  C   UNK N   1      20.199  17.278   3.782  0.00  0.00     0.070 C 
HETATM   24  N   UNK N   1      22.595  16.663   4.151  0.00  0.00    -0.338 N 
ATOM     25  HN  UNK N   1      22.372  15.705   4.420  1.00  0.00     0.168 HD
BRANCH  21  26
HETATM   26  S   UNK N   1      21.288  20.303   2.883  0.00  0.00     0.265 S 
HETATM   27  O   UNK N   1      22.203  21.527   2.731  0.00  0.00    -0.200 OA
HETATM   28  O   UNK N   1      20.255  20.791   3.910  0.00  0.00    -0.200 OA
BRANCH  26  29
HETATM   29  N   UNK N   1      20.402  20.202   1.362  0.00  0.00    -0.324 N 
HETATM   30  H   UNK N   1      19.561  20.761   1.219  0.00  0.00     0.169 HD
HETATM   31  H   UNK N   1      20.732  19.584   0.620  0.00  0.00     0.169 HD
ENDBRANCH  26  29
ENDBRANCH  21  26
ENDBRANCH   1  19
TORSDOF 6
ENDMDL
MODEL 9
REMARK VINA RESULT:      -7.2      4.091      6.691
REMARK  6 active torsions:
REMARK  status: ('A' for Active; 'I' for Inactive)
REMARK    1  A    between atoms: C_3  and  S_26 
REMARK    2  A    between atoms: C_5  and  N_8 
REMARK       I    between atoms: N_8  and  C_10 
REMARK    3  A    between atoms: C_10  and  C_12 
REMARK    4  A    between atoms: C_12  and  C_13 
REMARK    5  A    between atoms: C_16  and  C_19 
REMARK    6  A    between atoms: S_26  and  N_29 
ROOT
HETATM    1  N   UNK N   1      33.255  16.329   7.185  0.00  0.00    -0.302 N 
HETATM    2  C   UNK N   1      34.156  17.179   6.441  0.00  0.00     0.161 C 
HETATM    3  C   UNK N   1      33.728  15.201   7.793  0.00  0.00     0.229 C 
HETATM    4  O   UNK N   1      32.947  14.412   8.315  0.00  0.00    -0.273 OA
ENDROOT
BRANCH   3   5
HETATM    5  C   UNK N   1      35.215  14.920   7.872  0.00  0.00     0.141 C 
BRANCH   5   6
HETATM    6  C   UNK N   1      35.620  14.751   9.308  0.00  0.00    -0.049 A 
HETATM    7  C   UNK N   1      36.094  13.517   9.759  0.00  0.00     0.008 A 
HETATM    8  C   UNK N   1      36.304  13.305  11.125  0.00  0.00     0.014 A 
HETATM    9  C   UNK N   1      36.011  14.319  12.053  0.00  0.00    -0.009 A 
HETATM   10  C   UNK N   1      35.568  15.564  11.591  0.00  0.00     0.014 A 
HETATM   11  C   UNK N   1      35.388  15.785  10.229  0.00  0.00     0.008 A 
BRANCH   9  12
HETATM   12  C   UNK N   1      36.070  14.059  13.504  0.00  0.00     0.042 A 
HETATM   13  C   UNK N   1      35.202  13.136  14.104  0.00  0.00     0.030 A 
HETATM   14  C   UNK N   1      35.236  12.959  15.487  0.00  0.00     0.004 A 
HETATM   15  C   UNK N   1      36.120  13.712  16.261  0.00  0.00     0.017 A 
HETATM   16  C   UNK N   1      36.968  14.625  15.635  0.00  0.00     0.088 A 
HETATM   17  N   UNK N   1      36.930  14.778  14.284  0.00  0.00    -0.365 N 
ATOM     18  HN  UNK N   1      37.560  15.446  13.843  1.00  0.00     0.165 HD
ENDBRANCH   9  12
ENDBRANCH   5   6
ENDBRANCH   3   5
BRANCH   1  19
HETATM   19  C   UNK N   1      31.888  16.718   7.314  0.00  0.00     0.154 A 
HETATM   20  S   UNK N   1      30.836  17.027   6.073  0.00  0.00    -0.038 SA
HETATM   21  C   UNK N   1      29.565  17.530   7.002  0.00  0.00     0.145 A 
HETATM   22  C   UNK N   1      30.003  17.476   8.335  0.00  0.00     0.037 A 
HETATM   23  C   UNK N   1      29.170  17.898   9.495  0.00  0.00     0.070 C 
HETATM   24  N   UNK N   1      31.290  17.017   8.501  0.00  0.00    -0.338 N 
ATOM     25  HN  UNK N   1      31.745  16.914   9.408  1.00  0.00     0.168 HD
BRANCH  21  26
HETATM   26  S   UNK N   1      27.965  18.034   6.386  0.00  0.00     0.265 S 
HETATM   27  O   UNK N   1      27.969  18.266   4.867  0.00  0.00    -0.200 OA
HETATM   28  O   UNK N   1      27.529  19.404   6.926  0.00  0.00    -0.200 OA
BRANCH  26  29
HETATM   29  N   UNK N   1      26.588  16.971   6.681  0.00  0.00    -0.324 N 
HETATM   30  H   UNK N   1      26.428  16.585   7.611  0.00  0.00     0.169 HD
HETATM   31  H   UNK N   1      25.948  16.743   5.919  0.00  0.00     0.169 HD
ENDBRANCH  26  29
ENDBRANCH  21  26
ENDBRANCH   1  19
TORSDOF 6
ENDMDL
