MODEL 1
REMARK VINA RESULT:      -7.8      0.000      0.000
REMARK  4 active torsions:
REMARK  status: ('A' for Active; 'I' for Inactive)
REMARK    1  A    between atoms: C_5  and  C_8 
REMARK    2  A    between atoms: C_8  and  C_10 
REMARK    3  A    between atoms: C_14  and  N_17 
REMARK       I    between atoms: N_17  and  C_18 
REMARK    4  A    between atoms: C_18  and  C_20 
ROOT
HETATM    1  C   UNK N   1      30.305  17.315   7.500  0.00  0.00     0.080 A 
HETATM    2  C   UNK N   1      30.375  17.694   8.846  0.00  0.00     0.033 A 
HETATM    3  C   UNK N   1      29.324  18.438   9.405  0.00  0.00     0.006 A 
HETATM    4  C   UNK N   1      28.233  18.819   8.611  0.00  0.00     0.049 A 
HETATM    5  C   UNK N   1      28.208  18.422   7.269  0.00  0.00     0.108 A 
HETATM    6  N   UNK N   1      29.226  17.683   6.772  0.00  0.00    -0.339 N 
ATOM      7  HN  UNK N   1      29.178  17.388   5.796  1.00  0.00     0.167 HD
ENDROOT
BRANCH   5   8
HETATM    8  N   UNK N   1      27.177  18.771   6.369  0.00  0.00    -0.309 N 
HETATM    9  C   UNK N   1      26.720  18.147   5.260  0.00  0.00     0.263 C 
HETATM   10  O   UNK N   1      27.210  17.092   4.885  0.00  0.00    -0.267 OA
HETATM   11  H   UNK N   1      26.714  19.612   6.586  0.00  0.00     0.170 HD
BRANCH   9  12
HETATM   12  C   UNK N   1      25.620  18.811   4.495  0.00  0.00     0.109 A 
HETATM   13  C   UNK N   1      25.877  19.877   3.604  0.00  0.00     0.138 A 
HETATM   14  C   UNK N   1      24.818  20.503   2.936  0.00  0.00     0.085 A 
HETATM   15  F   UNK N   1      27.139  20.325   3.394  0.00  0.00    -0.205 F 
HETATM   16  C   UNK N   1      23.503  20.077   3.135  0.00  0.00     0.122 A 
HETATM   17  C   UNK N   1      23.238  19.017   3.994  0.00  0.00     0.085 A 
HETATM   18  F   UNK N   1      22.481  20.697   2.501  0.00  0.00    -0.206 F 
HETATM   19  C   UNK N   1      24.276  18.383   4.670  0.00  0.00     0.138 A 
HETATM   20  F   UNK N   1      23.956  17.353   5.494  0.00  0.00    -0.205 F 
ENDBRANCH   9  12
ENDBRANCH   5   8
BRANCH   1  21
HETATM   21  C   UNK N   1      31.382  16.575   6.796  0.00  0.00     0.180 C 
HETATM   22  O   UNK N   1      31.563  15.402   7.087  0.00  0.00    -0.290 OA
BRANCH  21  23
HETATM   23  C   UNK N   1      32.199  17.139   5.669  0.00  0.00     0.065 C 
HETATM   24  C   UNK N   1      33.706  16.890   5.690  0.00  0.00     0.043 C 
HETATM   25  C   UNK N   1      34.051  15.701   4.793  0.00  0.00     0.272 C 
HETATM   26  N   UNK N   1      33.492  15.890   3.453  0.00  0.00     0.084 N 
HETATM   27  C   UNK N   1      33.865  14.726   2.673  0.00  0.00     0.309 C 
HETATM   28  C   UNK N   1      32.033  15.892   3.534  0.00  0.00     0.272 C 
HETATM   29  C   UNK N   1      31.558  17.123   4.291  0.00  0.00     0.043 C 
ENDBRANCH  21  23
ENDBRANCH   1  21
TORSDOF 4
ENDMDL
MODEL 2
REMARK VINA RESULT:      -7.8      0.111      1.617
REMARK  4 active torsions:
REMARK  status: ('A' for Active; 'I' for Inactive)
REMARK    1  A    between atoms: C_5  and  C_8 
REMARK    2  A    between atoms: C_8  and  C_10 
REMARK    3  A    between atoms: C_14  and  N_17 
REMARK       I    between atoms: N_17  and  C_18 
REMARK    4  A    between atoms: C_18  and  C_20 
ROOT
HETATM    1  C   UNK N   1      30.260  17.281   7.403  0.00  0.00     0.080 A 
HETATM    2  C   UNK N   1      30.381  17.670   8.742  0.00  0.00     0.033 A 
HETATM    3  C   UNK N   1      29.359  18.430   9.332  0.00  0.00     0.006 A 
HETATM    4  C   UNK N   1      28.244  18.817   8.574  0.00  0.00     0.049 A 
HETATM    5  C   UNK N   1      28.168  18.410   7.236  0.00  0.00     0.108 A 
HETATM    6  N   UNK N   1      29.159  17.655   6.709  0.00  0.00    -0.339 N 
ATOM      7  HN  UNK N   1      29.073  17.353   5.739  1.00  0.00     0.167 HD
ENDROOT
BRANCH   5   8
HETATM    8  N   UNK N   1      27.110  18.764   6.370  0.00  0.00    -0.309 N 
HETATM    9  C   UNK N   1      26.653  18.174   5.242  0.00  0.00     0.263 C 
HETATM   10  O   UNK N   1      27.171  17.154   4.812  0.00  0.00    -0.267 OA
HETATM   11  H   UNK N   1      26.623  19.578   6.633  0.00  0.00     0.170 HD
BRANCH   9  12
HETATM   12  C   UNK N   1      25.518  18.834   4.527  0.00  0.00     0.109 A 
HETATM   13  C   UNK N   1      24.187  18.385   4.677  0.00  0.00     0.138 A 
HETATM   14  C   UNK N   1      23.155  19.000   3.958  0.00  0.00     0.085 A 
HETATM   15  F   UNK N   1      23.886  17.349   5.496  0.00  0.00    -0.205 F 
HETATM   16  C   UNK N   1      23.427  20.063   3.095  0.00  0.00     0.122 A 
HETATM   17  C   UNK N   1      24.729  20.527   2.952  0.00  0.00     0.085 A 
HETATM   18  F   UNK N   1      22.428  20.643   2.389  0.00  0.00    -0.206 F 
HETATM   19  C   UNK N   1      25.770  19.929   3.655  0.00  0.00     0.138 A 
HETATM   20  F   UNK N   1      27.020  20.427   3.476  0.00  0.00    -0.205 F 
ENDBRANCH   9  12
ENDBRANCH   5   8
BRANCH   1  21
HETATM   21  C   UNK N   1      31.302  16.523   6.667  0.00  0.00     0.180 C 
HETATM   22  O   UNK N   1      31.426  15.331   6.903  0.00  0.00    -0.290 OA
BRANCH  21  23
HETATM   23  C   UNK N   1      32.150  17.099   5.569  0.00  0.00     0.065 C 
HETATM   24  C   UNK N   1      33.658  16.864   5.638  0.00  0.00     0.043 C 
HETATM   25  C   UNK N   1      34.044  15.682   4.750  0.00  0.00     0.272 C 
HETATM   26  N   UNK N   1      33.527  15.869   3.393  0.00  0.00     0.084 N 
HETATM   27  C   UNK N   1      33.937  14.712   2.622  0.00  0.00     0.309 C 
HETATM   28  C   UNK N   1      32.066  15.857   3.426  0.00  0.00     0.272 C 
HETATM   29  C   UNK N   1      31.554  17.081   4.171  0.00  0.00     0.043 C 
ENDBRANCH  21  23
ENDBRANCH   1  21
TORSDOF 4
ENDMDL
MODEL 3
REMARK VINA RESULT:      -7.8      2.762      4.187
REMARK  4 active torsions:
REMARK  status: ('A' for Active; 'I' for Inactive)
REMARK    1  A    between atoms: C_5  and  C_8 
REMARK    2  A    between atoms: C_8  and  C_10 
REMARK    3  A    between atoms: C_14  and  N_17 
REMARK       I    between atoms: N_17  and  C_18 
REMARK    4  A    between atoms: C_18  and  C_20 
ROOT
HETATM    1  C   UNK N   1      33.164  17.118   5.750  0.00  0.00     0.080 A 
HETATM    2  C   UNK N   1      33.790  16.299   4.802  0.00  0.00     0.033 A 
HETATM    3  C   UNK N   1      33.142  16.034   3.587  0.00  0.00     0.006 A 
HETATM    4  C   UNK N   1      31.867  16.564   3.340  0.00  0.00     0.049 A 
HETATM    5  C   UNK N   1      31.276  17.374   4.318  0.00  0.00     0.108 A 
HETATM    6  N   UNK N   1      31.943  17.628   5.467  0.00  0.00    -0.339 N 
ATOM      7  HN  UNK N   1      31.502  18.237   6.157  1.00  0.00     0.167 HD
ENDROOT
BRANCH   5   8
HETATM    8  N   UNK N   1      29.987  17.937   4.192  0.00  0.00    -0.309 N 
HETATM    9  C   UNK N   1      29.002  18.108   5.103  0.00  0.00     0.263 C 
HETATM   10  O   UNK N   1      29.150  17.752   6.263  0.00  0.00    -0.267 OA
HETATM   11  H   UNK N   1      29.769  18.259   3.288  0.00  0.00     0.170 HD
BRANCH   9  12
HETATM   12  C   UNK N   1      27.720  18.714   4.631  0.00  0.00     0.109 A 
HETATM   13  C   UNK N   1      27.364  20.041   4.957  0.00  0.00     0.138 A 
HETATM   14  C   UNK N   1      26.136  20.562   4.534  0.00  0.00     0.085 A 
HETATM   15  F   UNK N   1      28.187  20.825   5.695  0.00  0.00    -0.205 F 
HETATM   16  C   UNK N   1      25.256  19.782   3.781  0.00  0.00     0.122 A 
HETATM   17  C   UNK N   1      25.601  18.481   3.438  0.00  0.00     0.085 A 
HETATM   18  F   UNK N   1      24.062  20.284   3.389  0.00  0.00    -0.206 F 
HETATM   19  C   UNK N   1      26.816  17.942   3.850  0.00  0.00     0.138 A 
HETATM   20  F   UNK N   1      27.099  16.667   3.482  0.00  0.00    -0.205 F 
ENDBRANCH   9  12
ENDBRANCH   5   8
BRANCH   1  21
HETATM   21  C   UNK N   1      33.735  17.419   7.086  0.00  0.00     0.180 C 
HETATM   22  O   UNK N   1      34.563  18.312   7.173  0.00  0.00    -0.290 OA
BRANCH  21  23
HETATM   23  C   UNK N   1      33.286  16.768   8.363  0.00  0.00     0.065 C 
HETATM   24  C   UNK N   1      32.263  15.638   8.264  0.00  0.00     0.043 C 
HETATM   25  C   UNK N   1      32.973  14.285   8.311  0.00  0.00     0.272 C 
HETATM   26  N   UNK N   1      33.846  14.204   9.484  0.00  0.00     0.084 N 
HETATM   27  C   UNK N   1      34.475  12.898   9.452  0.00  0.00     0.309 C 
HETATM   28  C   UNK N   1      34.918  15.190   9.359  0.00  0.00     0.272 C 
HETATM   29  C   UNK N   1      34.341  16.596   9.444  0.00  0.00     0.043 C 
ENDBRANCH  21  23
ENDBRANCH   1  21
TORSDOF 4
ENDMDL
MODEL 4
REMARK VINA RESULT:      -7.8      2.774      4.340
REMARK  4 active torsions:
REMARK  status: ('A' for Active; 'I' for Inactive)
REMARK    1  A    between atoms: C_5  and  C_8 
REMARK    2  A    between atoms: C_8  and  C_10 
REMARK    3  A    between atoms: C_14  and  N_17 
REMARK       I    between atoms: N_17  and  C_18 
REMARK    4  A    between atoms: C_18  and  C_20 
ROOT
HETATM    1  C   UNK N   1      33.120  17.068   5.667  0.00  0.00     0.080 A 
HETATM    2  C   UNK N   1      33.700  16.214   4.721  0.00  0.00     0.033 A 
HETATM    3  C   UNK N   1      33.013  15.943   3.528  0.00  0.00     0.006 A 
HETATM    4  C   UNK N   1      31.747  16.501   3.304  0.00  0.00     0.049 A 
HETATM    5  C   UNK N   1      31.203  17.345   4.280  0.00  0.00     0.108 A 
HETATM    6  N   UNK N   1      31.905  17.605   5.406  0.00  0.00    -0.339 N 
ATOM      7  HN  UNK N   1      31.499  18.238   6.094  1.00  0.00     0.167 HD
ENDROOT
BRANCH   5   8
HETATM    8  N   UNK N   1      29.925  17.939   4.176  0.00  0.00    -0.309 N 
HETATM    9  C   UNK N   1      28.950  18.110   5.098  0.00  0.00     0.263 C 
HETATM   10  O   UNK N   1      29.098  17.724   6.249  0.00  0.00    -0.267 OA
HETATM   11  H   UNK N   1      29.708  18.286   3.281  0.00  0.00     0.170 HD
BRANCH   9  12
HETATM   12  C   UNK N   1      27.678  18.754   4.649  0.00  0.00     0.109 A 
HETATM   13  C   UNK N   1      26.755  18.074   3.824  0.00  0.00     0.138 A 
HETATM   14  C   UNK N   1      25.594  18.723   3.389  0.00  0.00     0.085 A 
HETATM   15  F   UNK N   1      26.980  16.798   3.425  0.00  0.00    -0.205 F 
HETATM   16  C   UNK N   1      25.332  20.041   3.769  0.00  0.00     0.122 A 
HETATM   17  C   UNK N   1      26.223  20.715   4.595  0.00  0.00     0.085 A 
HETATM   18  F   UNK N   1      24.217  20.670   3.330  0.00  0.00    -0.206 F 
HETATM   19  C   UNK N   1      27.384  20.090   5.038  0.00  0.00     0.138 A 
HETATM   20  F   UNK N   1      28.215  20.798   5.844  0.00  0.00    -0.205 F 
ENDBRANCH   9  12
ENDBRANCH   5   8
BRANCH   1  21
HETATM   21  C   UNK N   1      33.734  17.381   6.982  0.00  0.00     0.180 C 
HETATM   22  O   UNK N   1      34.601  18.240   7.025  0.00  0.00    -0.290 OA
BRANCH  21  23
HETATM   23  C   UNK N   1      33.286  16.786   8.287  0.00  0.00     0.065 C 
HETATM   24  C   UNK N   1      32.342  15.587   8.234  0.00  0.00     0.043 C 
HETATM   25  C   UNK N   1      33.134  14.290   8.390  0.00  0.00     0.272 C 
HETATM   26  N   UNK N   1      33.973  14.342   9.590  0.00  0.00     0.084 N 
HETATM   27  C   UNK N   1      34.684  13.081   9.662  0.00  0.00     0.309 C 
HETATM   28  C   UNK N   1      34.983  15.386   9.429  0.00  0.00     0.272 C 
HETATM   29  C   UNK N   1      34.315  16.753   9.405  0.00  0.00     0.043 C 
ENDBRANCH  21  23
ENDBRANCH   1  21
TORSDOF 4
ENDMDL
MODEL 5
REMARK VINA RESULT:      -7.5      1.709      2.399
REMARK  4 active torsions:
REMARK  status: ('A' for Active; 'I' for Inactive)
REMARK    1  A    between atoms: C_5  and  C_8 
REMARK    2  A    between atoms: C_8  and  C_10 
REMARK    3  A    between atoms: C_14  and  N_17 
REMARK       I    between atoms: N_17  and  C_18 
REMARK    4  A    between atoms: C_18  and  C_20 
ROOT
HETATM    1  C   UNK N   1      30.125  16.875   7.375  0.00  0.00     0.080 A 
HETATM    2  C   UNK N   1      30.310  17.365   8.674  0.00  0.00     0.033 A 
HETATM    3  C   UNK N   1      29.386  18.280   9.201  0.00  0.00     0.006 A 
HETATM    4  C   UNK N   1      28.306  18.717   8.420  0.00  0.00     0.049 A 
HETATM    5  C   UNK N   1      28.164  18.205   7.124  0.00  0.00     0.108 A 
HETATM    6  N   UNK N   1      29.060  17.304   6.660  0.00  0.00    -0.339 N 
ATOM      7  HN  UNK N   1      28.925  16.930   5.721  1.00  0.00     0.167 HD
ENDROOT
BRANCH   5   8
HETATM    8  N   UNK N   1      27.135  18.594   6.238  0.00  0.00    -0.309 N 
HETATM    9  C   UNK N   1      26.991  18.399   4.908  0.00  0.00     0.263 C 
HETATM   10  O   UNK N   1      27.835  17.791   4.267  0.00  0.00    -0.267 OA
HETATM   11  H   UNK N   1      26.399  19.093   6.661  0.00  0.00     0.170 HD
BRANCH   9  12
HETATM   12  C   UNK N   1      25.782  18.981   4.250  0.00  0.00     0.109 A 
HETATM   13  C   UNK N   1      25.879  20.066   3.350  0.00  0.00     0.138 A 
HETATM   14  C   UNK N   1      24.722  20.614   2.784  0.00  0.00     0.085 A 
HETATM   15  F   UNK N   1      27.081  20.607   3.034  0.00  0.00    -0.205 F 
HETATM   16  C   UNK N   1      23.465  20.092   3.095  0.00  0.00     0.122 A 
HETATM   17  C   UNK N   1      23.356  19.013   3.964  0.00  0.00     0.085 A 
HETATM   18  F   UNK N   1      22.347  20.636   2.560  0.00  0.00    -0.206 F 
HETATM   19  C   UNK N   1      24.493  18.454   4.539  0.00  0.00     0.138 A 
HETATM   20  F   UNK N   1      24.324  17.401   5.378  0.00  0.00    -0.205 F 
ENDBRANCH   9  12
ENDBRANCH   5   8
BRANCH   1  21
HETATM   21  C   UNK N   1      31.068  15.947   6.702  0.00  0.00     0.180 C 
HETATM   22  O   UNK N   1      30.609  14.965   6.139  0.00  0.00    -0.290 OA
BRANCH  21  23
HETATM   23  C   UNK N   1      32.545  16.188   6.573  0.00  0.00     0.065 C 
HETATM   24  C   UNK N   1      33.056  17.608   6.811  0.00  0.00     0.043 C 
HETATM   25  C   UNK N   1      33.579  17.743   8.240  0.00  0.00     0.272 C 
HETATM   26  N   UNK N   1      34.560  16.695   8.529  0.00  0.00     0.084 N 
HETATM   27  C   UNK N   1      35.003  16.897   9.895  0.00  0.00     0.309 C 
HETATM   28  C   UNK N   1      33.901  15.391   8.489  0.00  0.00     0.272 C 
HETATM   29  C   UNK N   1      33.459  15.079   7.067  0.00  0.00     0.043 C 
ENDBRANCH  21  23
ENDBRANCH   1  21
TORSDOF 4
ENDMDL
MODEL 6
REMARK VINA RESULT:      -7.4      9.321     12.878
REMARK  4 active torsions:
REMARK  status: ('A' for Active; 'I' for Inactive)
REMARK    1  A    between atoms: C_5  and  C_8 
REMARK    2  A    between atoms: C_8  and  C_10 
REMARK    3  A    between atoms: C_14  and  N_17 
REMARK       I    between atoms: N_17  and  C_18 
REMARK    4  A    between atoms: C_18  and  C_20 
ROOT
HETATM    1  C   UNK N   1      36.340  14.798  10.524  0.00  0.00     0.080 A 
HETATM    2  C   UNK N   1      37.461  14.406   9.781  0.00  0.00     0.033 A 
HETATM    3  C   UNK N   1      38.276  13.371  10.263  0.00  0.00     0.006 A 
HETATM    4  C   UNK N   1      37.983  12.758  11.489  0.00  0.00     0.049 A 
HETATM    5  C   UNK N   1      36.855  13.186  12.201  0.00  0.00     0.108 A 
HETATM    6  N   UNK N   1      36.078  14.169  11.693  0.00  0.00    -0.339 N 
ATOM      7  HN  UNK N   1      35.250  14.451  12.218  1.00  0.00     0.167 HD
ENDROOT
BRANCH   5   8
HETATM    8  N   UNK N   1      36.480  12.663  13.458  0.00  0.00    -0.309 N 
HETATM    9  C   UNK N   1      35.259  12.441  13.996  0.00  0.00     0.263 C 
HETATM   10  O   UNK N   1      34.240  12.698  13.371  0.00  0.00    -0.267 OA
HETATM   11  H   UNK N   1      37.234  12.421  14.041  0.00  0.00     0.170 HD
BRANCH   9  12
HETATM   12  C   UNK N   1      35.204  11.904  15.390  0.00  0.00     0.109 A 
HETATM   13  C   UNK N   1      35.552  12.699  16.504  0.00  0.00     0.138 A 
HETATM   14  C   UNK N   1      35.529  12.150  17.792  0.00  0.00     0.085 A 
HETATM   15  F   UNK N   1      35.931  13.991  16.351  0.00  0.00    -0.205 F 
HETATM   16  C   UNK N   1      35.156  10.820  17.990  0.00  0.00     0.122 A 
HETATM   17  C   UNK N   1      34.793  10.031  16.904  0.00  0.00     0.085 A 
HETATM   18  F   UNK N   1      35.153  10.288  19.234  0.00  0.00    -0.206 F 
HETATM   19  C   UNK N   1      34.811  10.556  15.616  0.00  0.00     0.138 A 
HETATM   20  F   UNK N   1      34.444   9.739  14.596  0.00  0.00    -0.205 F 
ENDBRANCH   9  12
ENDBRANCH   5   8
BRANCH   1  21
HETATM   21  C   UNK N   1      35.442  15.914  10.135  0.00  0.00     0.180 C 
HETATM   22  O   UNK N   1      35.317  16.851  10.908  0.00  0.00    -0.290 OA
BRANCH  21  23
HETATM   23  C   UNK N   1      34.755  16.022   8.804  0.00  0.00     0.065 C 
HETATM   24  C   UNK N   1      33.702  14.971   8.460  0.00  0.00     0.043 C 
HETATM   25  C   UNK N   1      32.305  15.513   8.759  0.00  0.00     0.272 C 
HETATM   26  N   UNK N   1      32.103  16.803   8.097  0.00  0.00     0.084 N 
HETATM   27  C   UNK N   1      30.762  17.243   8.429  0.00  0.00     0.309 C 
HETATM   28  C   UNK N   1      33.021  17.788   8.666  0.00  0.00     0.272 C 
HETATM   29  C   UNK N   1      34.455  17.427   8.307  0.00  0.00     0.043 C 
ENDBRANCH  21  23
ENDBRANCH   1  21
TORSDOF 4
ENDMDL
MODEL 7
REMARK VINA RESULT:      -7.4      3.317      7.761
REMARK  4 active torsions:
REMARK  status: ('A' for Active; 'I' for Inactive)
REMARK    1  A    between atoms: C_5  and  C_8 
REMARK    2  A    between atoms: C_8  and  C_10 
REMARK    3  A    between atoms: C_14  and  N_17 
REMARK       I    between atoms: N_17  and  C_18 
REMARK    4  A    between atoms: C_18  and  C_20 
ROOT
HETATM    1  C   UNK N   1      23.934  18.621   4.783  0.00  0.00     0.080 A 
HETATM    2  C   UNK N   1      23.809  19.512   3.710  0.00  0.00     0.033 A 
HETATM    3  C   UNK N   1      24.951  20.165   3.223  0.00  0.00     0.006 A 
HETATM    4  C   UNK N   1      26.198  19.946   3.828  0.00  0.00     0.049 A 
HETATM    5  C   UNK N   1      26.275  19.051   4.902  0.00  0.00     0.108 A 
HETATM    6  N   UNK N   1      25.157  18.419   5.327  0.00  0.00    -0.339 N 
ATOM      7  HN  UNK N   1      25.240  17.757   6.098  1.00  0.00     0.167 HD
ENDROOT
BRANCH   5   8
HETATM    8  N   UNK N   1      27.468  18.775   5.605  0.00  0.00    -0.309 N 
HETATM    9  C   UNK N   1      27.868  17.668   6.271  0.00  0.00     0.263 C 
HETATM   10  O   UNK N   1      27.152  16.679   6.333  0.00  0.00    -0.267 OA
HETATM   11  H   UNK N   1      28.118  19.514   5.613  0.00  0.00     0.170 HD
BRANCH   9  12
HETATM   12  C   UNK N   1      29.198  17.712   6.953  0.00  0.00     0.109 A 
HETATM   13  C   UNK N   1      30.352  17.152   6.362  0.00  0.00     0.138 A 
HETATM   14  C   UNK N   1      31.572  17.174   7.047  0.00  0.00     0.085 A 
HETATM   15  F   UNK N   1      30.300  16.570   5.139  0.00  0.00    -0.205 F 
HETATM   16  C   UNK N   1      31.664  17.754   8.314  0.00  0.00     0.122 A 
HETATM   17  C   UNK N   1      30.540  18.326   8.900  0.00  0.00     0.085 A 
HETATM   18  F   UNK N   1      32.841  17.757   8.981  0.00  0.00    -0.206 F 
HETATM   19  C   UNK N   1      29.317  18.313   8.236  0.00  0.00     0.138 A 
HETATM   20  F   UNK N   1      28.256  18.888   8.857  0.00  0.00    -0.205 F 
ENDBRANCH   9  12
ENDBRANCH   5   8
BRANCH   1  21
HETATM   21  C   UNK N   1      22.787  17.918   5.409  0.00  0.00     0.180 C 
HETATM   22  O   UNK N   1      21.944  18.588   5.987  0.00  0.00    -0.290 OA
BRANCH  21  23
HETATM   23  C   UNK N   1      22.532  16.443   5.291  0.00  0.00     0.065 C 
HETATM   24  C   UNK N   1      23.024  15.736   4.030  0.00  0.00     0.043 C 
HETATM   25  C   UNK N   1      24.369  15.062   4.299  0.00  0.00     0.272 C 
HETATM   26  N   UNK N   1      24.283  14.197   5.477  0.00  0.00     0.084 N 
HETATM   27  C   UNK N   1      25.592  13.600   5.658  0.00  0.00     0.309 C 
HETATM   28  C   UNK N   1      24.027  15.015   6.660  0.00  0.00     0.272 C 
HETATM   29  C   UNK N   1      22.638  15.631   6.572  0.00  0.00     0.043 C 
ENDBRANCH  21  23
ENDBRANCH   1  21
TORSDOF 4
ENDMDL
MODEL 8
REMARK VINA RESULT:      -7.4      8.284     10.878
REMARK  4 active torsions:
REMARK  status: ('A' for Active; 'I' for Inactive)
REMARK    1  A    between atoms: C_5  and  C_8 
REMARK    2  A    between atoms: C_8  and  C_10 
REMARK    3  A    between atoms: C_14  and  N_17 
REMARK       I    between atoms: N_17  and  C_18 
REMARK    4  A    between atoms: C_18  and  C_20 
ROOT
HETATM    1  C   UNK N   1      36.496  13.169  13.269  0.00  0.00     0.080 A 
HETATM    2  C   UNK N   1      37.431  12.212  12.856  0.00  0.00     0.033 A 
HETATM    3  C   UNK N   1      37.638  12.002  11.484  0.00  0.00     0.006 A 
HETATM    4  C   UNK N   1      36.892  12.725  10.542  0.00  0.00     0.049 A 
HETATM    5  C   UNK N   1      35.965  13.668  11.001  0.00  0.00     0.108 A 
HETATM    6  N   UNK N   1      35.811  13.862  12.331  0.00  0.00    -0.339 N 
ATOM      7  HN  UNK N   1      35.144  14.568  12.642  1.00  0.00     0.167 HD
ENDROOT
BRANCH   5   8
HETATM    8  N   UNK N   1      35.139  14.432  10.147  0.00  0.00    -0.309 N 
HETATM    9  C   UNK N   1      34.717  15.714  10.237  0.00  0.00     0.263 C 
HETATM   10  O   UNK N   1      35.052  16.422  11.176  0.00  0.00    -0.267 OA
HETATM   11  H   UNK N   1      34.815  13.949   9.353  0.00  0.00     0.170 HD
BRANCH   9  12
HETATM   12  C   UNK N   1      33.803  16.219   9.167  0.00  0.00     0.109 A 
HETATM   13  C   UNK N   1      34.055  17.432   8.489  0.00  0.00     0.138 A 
HETATM   14  C   UNK N   1      33.155  17.896   7.523  0.00  0.00     0.085 A 
HETATM   15  F   UNK N   1      35.153  18.176   8.771  0.00  0.00    -0.205 F 
HETATM   16  C   UNK N   1      32.007  17.164   7.213  0.00  0.00     0.122 A 
HETATM   17  C   UNK N   1      31.756  15.959   7.859  0.00  0.00     0.085 A 
HETATM   18  F   UNK N   1      31.130  17.625   6.291  0.00  0.00    -0.206 F 
HETATM   19  C   UNK N   1      32.636  15.481   8.825  0.00  0.00     0.138 A 
HETATM   20  F   UNK N   1      32.339  14.298   9.420  0.00  0.00    -0.205 F 
ENDBRANCH   9  12
ENDBRANCH   5   8
BRANCH   1  21
HETATM   21  C   UNK N   1      36.161  13.434  14.691  0.00  0.00     0.180 C 
HETATM   22  O   UNK N   1      36.825  14.261  15.297  0.00  0.00    -0.290 OA
BRANCH  21  23
HETATM   23  C   UNK N   1      34.990  12.829  15.410  0.00  0.00     0.065 C 
HETATM   24  C   UNK N   1      34.264  11.667  14.735  0.00  0.00     0.043 C 
HETATM   25  C   UNK N   1      34.766  10.339  15.300  0.00  0.00     0.272 C 
HETATM   26  N   UNK N   1      34.676  10.335  16.761  0.00  0.00     0.084 N 
HETATM   27  C   UNK N   1      35.167   9.047  17.211  0.00  0.00     0.309 C 
HETATM   28  C   UNK N   1      35.583  11.344  17.304  0.00  0.00     0.272 C 
HETATM   29  C   UNK N   1      35.098  12.735  16.924  0.00  0.00     0.043 C 
ENDBRANCH  21  23
ENDBRANCH   1  21
TORSDOF 4
ENDMDL
MODEL 9
REMARK VINA RESULT:      -7.3      7.335      9.907
REMARK  4 active torsions:
REMARK  status: ('A' for Active; 'I' for Inactive)
REMARK    1  A    between atoms: C_5  and  C_8 
REMARK    2  A    between atoms: C_8  and  C_10 
REMARK    3  A    between atoms: C_14  and  N_17 
REMARK       I    between atoms: N_17  and  C_18 
REMARK    4  A    between atoms: C_18  and  C_20 
ROOT
HETATM    1  C   UNK N   1      36.261  13.702  11.621  0.00  0.00     0.080 A 
HETATM    2  C   UNK N   1      37.520  13.322  11.139  0.00  0.00     0.033 A 
HETATM    3  C   UNK N   1      37.848  13.576   9.799  0.00  0.00     0.006 A 
HETATM    4  C   UNK N   1      36.910  14.179   8.948  0.00  0.00     0.049 A 
HETATM    5  C   UNK N   1      35.662  14.538   9.472  0.00  0.00     0.108 A 
HETATM    6  N   UNK N   1      35.391  14.301  10.775  0.00  0.00    -0.339 N 
ATOM      7  HN  UNK N   1      34.483  14.588  11.140  1.00  0.00     0.167 HD
ENDROOT
BRANCH   5   8
HETATM    8  N   UNK N   1      34.631  15.123   8.704  0.00  0.00    -0.309 N 
HETATM    9  C   UNK N   1      34.049  16.341   8.783  0.00  0.00     0.263 C 
HETATM   10  O   UNK N   1      34.403  17.153   9.626  0.00  0.00    -0.267 OA
HETATM   11  H   UNK N   1      34.276  14.546   7.990  0.00  0.00     0.170 HD
BRANCH   9  12
HETATM   12  C   UNK N   1      32.939  16.643   7.829  0.00  0.00     0.109 A 
HETATM   13  C   UNK N   1      31.585  16.455   8.184  0.00  0.00     0.138 A 
HETATM   14  C   UNK N   1      30.573  16.707   7.251  0.00  0.00     0.085 A 
HETATM   15  F   UNK N   1      31.240  16.012   9.418  0.00  0.00    -0.205 F 
HETATM   16  C   UNK N   1      30.889  17.153   5.966  0.00  0.00     0.122 A 
HETATM   17  C   UNK N   1      32.216  17.360   5.608  0.00  0.00     0.085 A 
HETATM   18  F   UNK N   1      29.908  17.379   5.061  0.00  0.00    -0.206 F 
HETATM   19  C   UNK N   1      33.237  17.113   6.520  0.00  0.00     0.138 A 
HETATM   20  F   UNK N   1      34.513  17.335   6.115  0.00  0.00    -0.205 F 
ENDBRANCH   9  12
ENDBRANCH   5   8
BRANCH   1  21
HETATM   21  C   UNK N   1      35.792  13.434  13.003  0.00  0.00     0.180 C 
HETATM   22  O   UNK N   1      34.591  13.476  13.224  0.00  0.00    -0.290 OA
BRANCH  21  23
HETATM   23  C   UNK N   1      36.686  13.008  14.132  0.00  0.00     0.065 C 
HETATM   24  C   UNK N   1      36.582  13.776  15.449  0.00  0.00     0.043 C 
HETATM   25  C   UNK N   1      35.683  13.018  16.426  0.00  0.00     0.272 C 
HETATM   26  N   UNK N   1      36.136  11.634  16.572  0.00  0.00     0.084 N 
HETATM   27  C   UNK N   1      35.236  10.992  17.510  0.00  0.00     0.309 C 
HETATM   28  C   UNK N   1      35.981  10.937  15.296  0.00  0.00     0.272 C 
HETATM   29  C   UNK N   1      36.943  11.516  14.269  0.00  0.00     0.043 C 
ENDBRANCH  21  23
ENDBRANCH   1  21
TORSDOF 4
ENDMDL
