MODEL 1
REMARK VINA RESULT:      -6.0      0.000      0.000
REMARK  7 active torsions:
REMARK  status: ('A' for Active; 'I' for Inactive)
REMARK    1  A    between atoms: N_2  and  C_4 
REMARK    2  A    between atoms: C_4  and  C_5 
REMARK    3  A    between atoms: C_7  and  S_20 
REMARK    4  A    between atoms: C_10  and  O_11 
REMARK    5  A    between atoms: O_11  and  C_12 
REMARK    6  A    between atoms: C_15  and  S_18 
REMARK    7  A    between atoms: S_20  and  N_23 
ROOT
HETATM    1  C   UNK N   1      28.329  17.710   5.013  0.00  0.00     0.005 A 
HETATM    2  C   UNK N   1      28.986  17.457   6.234  0.00  0.00     0.037 A 
HETATM    3  C   UNK N   1      28.828  18.347   7.315  0.00  0.00     0.080 A 
HETATM    4  C   UNK N   1      28.020  19.472   7.169  0.00  0.00     0.028 A 
HETATM    5  C   UNK N   1      27.373  19.721   5.976  0.00  0.00     0.039 A 
HETATM    6  C   UNK N   1      27.491  18.843   4.889  0.00  0.00     0.084 A 
ENDROOT
BRANCH   6   7
HETATM    7  O   UNK N   1      26.815  19.084   3.736  0.00  0.00    -0.310 OA
BRANCH   7   8
HETATM    8  C   UNK N   1      25.463  19.252   3.628  0.00  0.00     0.076 A 
HETATM    9  C   UNK N   1      24.910  20.401   3.029  0.00  0.00     0.038 A 
HETATM   10  C   UNK N   1      23.529  20.555   2.924  0.00  0.00     0.021 A 
HETATM   11  C   UNK N   1      22.680  19.566   3.421  0.00  0.00    -0.000 A 
HETATM   12  C   UNK N   1      23.218  18.425   4.029  0.00  0.00     0.021 A 
HETATM   13  C   UNK N   1      24.607  18.276   4.142  0.00  0.00     0.038 A 
BRANCH  11  14
HETATM   14  S   UNK N   1      20.909  19.744   3.228  0.00  0.00    -0.134 SA
HETATM   15  C   UNK N   1      21.036  20.340   1.519  0.00  0.00     0.095 C 
ENDBRANCH  11  14
ENDBRANCH   7   8
ENDBRANCH   6   7
BRANCH   1  16
HETATM   16  C   UNK N   1      28.475  16.733   3.879  0.00  0.00     0.312 C 
BRANCH  16  17
HETATM   17  N   UNK N   1      27.380  15.772   3.862  0.00  0.00     0.084 N 
HETATM   18  C   UNK N   1      26.942  15.634   2.484  0.00  0.00     0.309 C 
HETATM   19  C   UNK N   1      27.933  14.486   4.249  0.00  0.00     0.309 C 
ENDBRANCH  16  17
ENDBRANCH   1  16
BRANCH   3  20
HETATM   20  S   UNK N   1      29.523  18.060   8.946  0.00  0.00     0.256 S 
HETATM   21  O   UNK N   1      29.614  19.026  10.136  0.00  0.00    -0.201 OA
HETATM   22  O   UNK N   1      29.206  16.679   9.536  0.00  0.00    -0.201 OA
BRANCH  20  23
HETATM   23  N   UNK N   1      27.808  18.366   9.236  0.00  0.00    -0.324 N 
HETATM   24  H   UNK N   1      26.964  18.547   9.780  0.00  0.00     0.169 HD
HETATM   25  H   UNK N   1      27.437  18.352   8.286  0.00  0.00     0.169 HD
ENDBRANCH  20  23
ENDBRANCH   3  20
TORSDOF 7
ENDMDL
MODEL 2
REMARK VINA RESULT:      -5.8      5.908     10.439
REMARK  7 active torsions:
REMARK  status: ('A' for Active; 'I' for Inactive)
REMARK    1  A    between atoms: N_2  and  C_4 
REMARK    2  A    between atoms: C_4  and  C_5 
REMARK    3  A    between atoms: C_7  and  S_20 
REMARK    4  A    between atoms: C_10  and  O_11 
REMARK    5  A    between atoms: O_11  and  C_12 
REMARK    6  A    between atoms: C_15  and  S_18 
REMARK    7  A    between atoms: S_20  and  N_23 
ROOT
HETATM    1  C   UNK N   1      31.694  17.114   7.429  0.00  0.00     0.005 A 
HETATM    2  C   UNK N   1      31.375  17.018   6.059  0.00  0.00     0.037 A 
HETATM    3  C   UNK N   1      32.394  17.124   5.091  0.00  0.00     0.080 A 
HETATM    4  C   UNK N   1      33.712  17.321   5.497  0.00  0.00     0.028 A 
HETATM    5  C   UNK N   1      34.027  17.412   6.836  0.00  0.00     0.039 A 
HETATM    6  C   UNK N   1      33.041  17.288   7.825  0.00  0.00     0.084 A 
ENDROOT
BRANCH   6   7
HETATM    7  O   UNK N   1      33.377  17.341   9.140  0.00  0.00    -0.310 OA
BRANCH   7   8
HETATM    8  C   UNK N   1      34.139  16.421   9.802  0.00  0.00     0.076 A 
HETATM    9  C   UNK N   1      35.354  16.779  10.419  0.00  0.00     0.038 A 
HETATM   10  C   UNK N   1      36.118  15.828  11.094  0.00  0.00     0.021 A 
HETATM   11  C   UNK N   1      35.682  14.505  11.158  0.00  0.00    -0.000 A 
HETATM   12  C   UNK N   1      34.482  14.135  10.537  0.00  0.00     0.021 A 
HETATM   13  C   UNK N   1      33.720  15.090   9.852  0.00  0.00     0.038 A 
BRANCH  11  14
HETATM   14  S   UNK N   1      36.639  13.303  12.077  0.00  0.00    -0.134 SA
HETATM   15  C   UNK N   1      35.643  13.487  13.583  0.00  0.00     0.095 C 
ENDBRANCH  11  14
ENDBRANCH   7   8
ENDBRANCH   6   7
BRANCH   1  16
HETATM   16  C   UNK N   1      30.604  16.962   8.454  0.00  0.00     0.312 C 
BRANCH  16  17
HETATM   17  N   UNK N   1      29.688  18.094   8.429  0.00  0.00     0.084 N 
HETATM   18  C   UNK N   1      28.346  17.567   8.266  0.00  0.00     0.309 C 
HETATM   19  C   UNK N   1      29.733  18.710   9.744  0.00  0.00     0.309 C 
ENDBRANCH  16  17
ENDBRANCH   1  16
BRANCH   3  20
HETATM   20  S   UNK N   1      32.116  16.900   3.331  0.00  0.00     0.256 S 
HETATM   21  O   UNK N   1      33.021  16.220   2.294  0.00  0.00    -0.201 OA
HETATM   22  O   UNK N   1      30.675  16.523   2.959  0.00  0.00    -0.201 OA
BRANCH  20  23
HETATM   23  N   UNK N   1      32.172  15.262   3.988  0.00  0.00    -0.324 N 
HETATM   24  H   UNK N   1      31.961  14.266   4.050  0.00  0.00     0.169 HD
HETATM   25  H   UNK N   1      32.788  15.388   4.792  0.00  0.00     0.169 HD
ENDBRANCH  20  23
ENDBRANCH   3  20
TORSDOF 7
ENDMDL
MODEL 3
REMARK VINA RESULT:      -5.7      2.911      7.105
REMARK  7 active torsions:
REMARK  status: ('A' for Active; 'I' for Inactive)
REMARK    1  A    between atoms: N_2  and  C_4 
REMARK    2  A    between atoms: C_4  and  C_5 
REMARK    3  A    between atoms: C_7  and  S_20 
REMARK    4  A    between atoms: C_10  and  O_11 
REMARK    5  A    between atoms: O_11  and  C_12 
REMARK    6  A    between atoms: C_15  and  S_18 
REMARK    7  A    between atoms: S_20  and  N_23 
ROOT
HETATM    1  C   UNK N   1      24.201  18.048   4.119  0.00  0.00     0.005 A 
HETATM    2  C   UNK N   1      22.948  18.602   3.785  0.00  0.00     0.037 A 
HETATM    3  C   UNK N   1      22.880  19.880   3.194  0.00  0.00     0.080 A 
HETATM    4  C   UNK N   1      24.054  20.586   2.942  0.00  0.00     0.028 A 
HETATM    5  C   UNK N   1      25.281  20.045   3.264  0.00  0.00     0.039 A 
HETATM    6  C   UNK N   1      25.385  18.767   3.831  0.00  0.00     0.084 A 
ENDROOT
BRANCH   6   7
HETATM    7  O   UNK N   1      26.604  18.235   4.105  0.00  0.00    -0.310 OA
BRANCH   7   8
HETATM    8  C   UNK N   1      27.234  18.275   5.317  0.00  0.00     0.076 A 
HETATM    9  C   UNK N   1      27.344  19.472   6.051  0.00  0.00     0.038 A 
HETATM   10  C   UNK N   1      27.987  19.493   7.287  0.00  0.00     0.021 A 
HETATM   11  C   UNK N   1      28.535  18.321   7.805  0.00  0.00    -0.000 A 
HETATM   12  C   UNK N   1      28.443  17.126   7.079  0.00  0.00     0.021 A 
HETATM   13  C   UNK N   1      27.804  17.108   5.832  0.00  0.00     0.038 A 
BRANCH  11  14
HETATM   14  S   UNK N   1      29.306  18.345   9.421  0.00  0.00    -0.134 SA
HETATM   15  C   UNK N   1      30.970  18.047   8.761  0.00  0.00     0.095 C 
ENDBRANCH  11  14
ENDBRANCH   7   8
ENDBRANCH   6   7
BRANCH   1  16
HETATM   16  C   UNK N   1      24.264  16.669   4.714  0.00  0.00     0.312 C 
BRANCH  16  17
HETATM   17  N   UNK N   1      23.698  15.675   3.812  0.00  0.00     0.084 N 
HETATM   18  C   UNK N   1      24.784  15.148   3.005  0.00  0.00     0.309 C 
HETATM   19  C   UNK N   1      23.223  14.573   4.632  0.00  0.00     0.309 C 
ENDBRANCH  16  17
ENDBRANCH   1  16
BRANCH   3  20
HETATM   20  S   UNK N   1      21.350  20.628   2.625  0.00  0.00     0.256 S 
HETATM   21  O   UNK N   1      20.614  20.418   1.294  0.00  0.00    -0.201 OA
HETATM   22  O   UNK N   1      20.263  20.749   3.702  0.00  0.00    -0.201 OA
BRANCH  20  23
HETATM   23  N   UNK N   1      20.994  18.902   2.730  0.00  0.00    -0.324 N 
HETATM   24  H   UNK N   1      21.179  17.911   2.889  0.00  0.00     0.169 HD
HETATM   25  H   UNK N   1      20.005  18.884   2.480  0.00  0.00     0.169 HD
ENDBRANCH  20  23
ENDBRANCH   3  20
TORSDOF 7
ENDMDL
MODEL 4
REMARK VINA RESULT:      -5.7     11.240     13.576
REMARK  7 active torsions:
REMARK  status: ('A' for Active; 'I' for Inactive)
REMARK    1  A    between atoms: N_2  and  C_4 
REMARK    2  A    between atoms: C_4  and  C_5 
REMARK    3  A    between atoms: C_7  and  S_20 
REMARK    4  A    between atoms: C_10  and  O_11 
REMARK    5  A    between atoms: O_11  and  C_12 
REMARK    6  A    between atoms: C_15  and  S_18 
REMARK    7  A    between atoms: S_20  and  N_23 
ROOT
HETATM    1  C   UNK N   1      26.490  25.166  -4.077  0.00  0.00     0.005 A 
HETATM    2  C   UNK N   1      26.795  26.445  -3.570  0.00  0.00     0.037 A 
HETATM    3  C   UNK N   1      26.260  27.592  -4.189  0.00  0.00     0.080 A 
HETATM    4  C   UNK N   1      25.430  27.453  -5.299  0.00  0.00     0.028 A 
HETATM    5  C   UNK N   1      25.126  26.202  -5.795  0.00  0.00     0.039 A 
HETATM    6  C   UNK N   1      25.623  25.040  -5.189  0.00  0.00     0.084 A 
ENDROOT
BRANCH   6   7
HETATM    7  O   UNK N   1      25.281  23.816  -5.667  0.00  0.00    -0.310 OA
BRANCH   7   8
HETATM    8  C   UNK N   1      25.803  23.225  -6.783  0.00  0.00     0.076 A 
HETATM    9  C   UNK N   1      26.866  23.811  -7.498  0.00  0.00     0.038 A 
HETATM   10  C   UNK N   1      27.389  23.192  -8.632  0.00  0.00     0.021 A 
HETATM   11  C   UNK N   1      26.854  21.982  -9.071  0.00  0.00    -0.000 A 
HETATM   12  C   UNK N   1      25.788  21.396  -8.376  0.00  0.00     0.021 A 
HETATM   13  C   UNK N   1      25.258  22.023  -7.241  0.00  0.00     0.038 A 
BRANCH  11  14
HETATM   14  S   UNK N   1      27.571  21.164 -10.494  0.00  0.00    -0.134 SA
HETATM   15  C   UNK N   1      25.978  20.989 -11.344  0.00  0.00     0.095 C 
ENDBRANCH  11  14
ENDBRANCH   7   8
ENDBRANCH   6   7
BRANCH   1  16
HETATM   16  C   UNK N   1      27.035  23.947  -3.386  0.00  0.00     0.312 C 
BRANCH  16  17
HETATM   17  N   UNK N   1      28.486  24.007  -3.268  0.00  0.00     0.084 N 
HETATM   18  C   UNK N   1      28.875  23.116  -2.190  0.00  0.00     0.309 C 
HETATM   19  C   UNK N   1      29.038  23.443  -4.488  0.00  0.00     0.309 C 
ENDBRANCH  16  17
ENDBRANCH   1  16
BRANCH   3  20
HETATM   20  S   UNK N   1      26.490  29.257  -3.558  0.00  0.00     0.256 S 
HETATM   21  O   UNK N   1      27.187  29.708  -2.266  0.00  0.00    -0.201 OA
HETATM   22  O   UNK N   1      26.853  30.297  -4.627  0.00  0.00    -0.201 OA
BRANCH  20  23
HETATM   23  N   UNK N   1      28.125  28.661  -3.857  0.00  0.00    -0.324 N 
HETATM   24  H   UNK N   1      28.880  28.203  -4.367  0.00  0.00     0.169 HD
HETATM   25  H   UNK N   1      28.603  28.946  -3.002  0.00  0.00     0.169 HD
ENDBRANCH  20  23
ENDBRANCH   3  20
TORSDOF 7
ENDMDL
MODEL 5
REMARK VINA RESULT:      -5.6      3.054      3.867
REMARK  7 active torsions:
REMARK  status: ('A' for Active; 'I' for Inactive)
REMARK    1  A    between atoms: N_2  and  C_4 
REMARK    2  A    between atoms: C_4  and  C_5 
REMARK    3  A    between atoms: C_7  and  S_20 
REMARK    4  A    between atoms: C_10  and  O_11 
REMARK    5  A    between atoms: O_11  and  C_12 
REMARK    6  A    between atoms: C_15  and  S_18 
REMARK    7  A    between atoms: S_20  and  N_23 
ROOT
HETATM    1  C   UNK N   1      30.483  16.722   6.260  0.00  0.00     0.005 A 
HETATM    2  C   UNK N   1      31.824  17.003   6.591  0.00  0.00     0.037 A 
HETATM    3  C   UNK N   1      32.125  17.678   7.791  0.00  0.00     0.080 A 
HETATM    4  C   UNK N   1      31.093  18.062   8.643  0.00  0.00     0.028 A 
HETATM    5  C   UNK N   1      29.780  17.785   8.323  0.00  0.00     0.039 A 
HETATM    6  C   UNK N   1      29.448  17.095   7.150  0.00  0.00     0.084 A 
ENDROOT
BRANCH   6   7
HETATM    7  O   UNK N   1      28.152  16.797   6.871  0.00  0.00    -0.310 OA
BRANCH   7   8
HETATM    8  C   UNK N   1      27.317  17.541   6.087  0.00  0.00     0.076 A 
HETATM    9  C   UNK N   1      27.447  18.940   5.993  0.00  0.00     0.038 A 
HETATM   10  C   UNK N   1      26.589  19.683   5.184  0.00  0.00     0.021 A 
HETATM   11  C   UNK N   1      25.584  19.039   4.463  0.00  0.00    -0.000 A 
HETATM   12  C   UNK N   1      25.437  17.650   4.558  0.00  0.00     0.021 A 
HETATM   13  C   UNK N   1      26.295  16.905   5.378  0.00  0.00     0.038 A 
BRANCH  11  14
HETATM   14  S   UNK N   1      24.524  19.994   3.381  0.00  0.00    -0.134 SA
HETATM   15  C   UNK N   1      23.034  19.055   3.818  0.00  0.00     0.095 C 
ENDBRANCH  11  14
ENDBRANCH   7   8
ENDBRANCH   6   7
BRANCH   1  16
HETATM   16  C   UNK N   1      30.176  15.967   4.996  0.00  0.00     0.312 C 
BRANCH  16  17
HETATM   17  N   UNK N   1      30.199  16.845   3.834  0.00  0.00     0.084 N 
HETATM   18  C   UNK N   1      31.401  16.540   3.079  0.00  0.00     0.309 C 
HETATM   19  C   UNK N   1      29.077  16.469   2.991  0.00  0.00     0.309 C 
ENDBRANCH  16  17
ENDBRANCH   1  16
BRANCH   3  20
HETATM   20  S   UNK N   1      33.800  17.982   8.364  0.00  0.00     0.256 S 
HETATM   21  O   UNK N   1      34.530  17.369   9.567  0.00  0.00    -0.201 OA
HETATM   22  O   UNK N   1      34.842  18.101   7.243  0.00  0.00    -0.201 OA
BRANCH  20  23
HETATM   23  N   UNK N   1      33.784  16.276   7.907  0.00  0.00    -0.324 N 
HETATM   24  H   UNK N   1      33.482  15.439   7.409  0.00  0.00     0.169 HD
HETATM   25  H   UNK N   1      34.524  15.902   8.501  0.00  0.00     0.169 HD
ENDBRANCH  20  23
ENDBRANCH   3  20
TORSDOF 7
ENDMDL
MODEL 6
REMARK VINA RESULT:      -5.6     10.906     12.703
REMARK  7 active torsions:
REMARK  status: ('A' for Active; 'I' for Inactive)
REMARK    1  A    between atoms: N_2  and  C_4 
REMARK    2  A    between atoms: C_4  and  C_5 
REMARK    3  A    between atoms: C_7  and  S_20 
REMARK    4  A    between atoms: C_10  and  O_11 
REMARK    5  A    between atoms: O_11  and  C_12 
REMARK    6  A    between atoms: C_15  and  S_18 
REMARK    7  A    between atoms: S_20  and  N_23 
ROOT
HETATM    1  C   UNK N   1      28.334  23.467  -5.790  0.00  0.00     0.005 A 
HETATM    2  C   UNK N   1      29.359  22.577  -5.408  0.00  0.00     0.037 A 
HETATM    3  C   UNK N   1      29.859  22.605  -4.091  0.00  0.00     0.080 A 
HETATM    4  C   UNK N   1      29.335  23.512  -3.174  0.00  0.00     0.028 A 
HETATM    5  C   UNK N   1      28.330  24.382  -3.543  0.00  0.00     0.039 A 
HETATM    6  C   UNK N   1      27.794  24.364  -4.838  0.00  0.00     0.084 A 
ENDROOT
BRANCH   6   7
HETATM    7  O   UNK N   1      26.777  25.201  -5.172  0.00  0.00    -0.310 OA
BRANCH   7   8
HETATM    8  C   UNK N   1      26.737  26.542  -4.917  0.00  0.00     0.076 A 
HETATM    9  C   UNK N   1      26.001  27.065  -3.836  0.00  0.00     0.038 A 
HETATM   10  C   UNK N   1      25.974  28.436  -3.589  0.00  0.00     0.021 A 
HETATM   11  C   UNK N   1      26.677  29.306  -4.421  0.00  0.00    -0.000 A 
HETATM   12  C   UNK N   1      27.402  28.799  -5.507  0.00  0.00     0.021 A 
HETATM   13  C   UNK N   1      27.421  27.422  -5.760  0.00  0.00     0.038 A 
BRANCH  11  14
HETATM   14  S   UNK N   1      26.685  31.060  -4.061  0.00  0.00    -0.134 SA
HETATM   15  C   UNK N   1      27.451  30.842  -2.431  0.00  0.00     0.095 C 
ENDBRANCH  11  14
ENDBRANCH   7   8
ENDBRANCH   6   7
BRANCH   1  16
HETATM   16  C   UNK N   1      27.781  23.403  -7.187  0.00  0.00     0.312 C 
BRANCH  16  17
HETATM   17  N   UNK N   1      26.726  22.404  -7.295  0.00  0.00     0.084 N 
HETATM   18  C   UNK N   1      25.543  23.072  -7.805  0.00  0.00     0.309 C 
HETATM   19  C   UNK N   1      27.137  21.457  -8.318  0.00  0.00     0.309 C 
ENDBRANCH  16  17
ENDBRANCH   1  16
BRANCH   3  20
HETATM   20  S   UNK N   1      31.078  21.442  -3.470  0.00  0.00     0.256 S 
HETATM   21  O   UNK N   1      32.098  20.606  -4.256  0.00  0.00    -0.201 OA
HETATM   22  O   UNK N   1      31.789  21.892  -2.186  0.00  0.00    -0.201 OA
BRANCH  20  23
HETATM   23  N   UNK N   1      32.027  22.728  -4.220  0.00  0.00    -0.324 N 
HETATM   24  H   UNK N   1      32.773  23.142  -4.779  0.00  0.00     0.169 HD
HETATM   25  H   UNK N   1      31.529  23.558  -3.900  0.00  0.00     0.169 HD
ENDBRANCH  20  23
ENDBRANCH   3  20
TORSDOF 7
ENDMDL
MODEL 7
REMARK VINA RESULT:      -5.5      4.789      6.375
REMARK  7 active torsions:
REMARK  status: ('A' for Active; 'I' for Inactive)
REMARK    1  A    between atoms: N_2  and  C_4 
REMARK    2  A    between atoms: C_4  and  C_5 
REMARK    3  A    between atoms: C_7  and  S_20 
REMARK    4  A    between atoms: C_10  and  O_11 
REMARK    5  A    between atoms: O_11  and  C_12 
REMARK    6  A    between atoms: C_15  and  S_18 
REMARK    7  A    between atoms: S_20  and  N_23 
ROOT
HETATM    1  C   UNK N   1      30.732  17.122   6.509  0.00  0.00     0.005 A 
HETATM    2  C   UNK N   1      31.814  17.300   7.394  0.00  0.00     0.037 A 
HETATM    3  C   UNK N   1      33.116  17.481   6.886  0.00  0.00     0.080 A 
HETATM    4  C   UNK N   1      33.324  17.483   5.509  0.00  0.00     0.028 A 
HETATM    5  C   UNK N   1      32.267  17.313   4.639  0.00  0.00     0.039 A 
HETATM    6  C   UNK N   1      30.957  17.154   5.112  0.00  0.00     0.084 A 
ENDROOT
BRANCH   6   7
HETATM    7  O   UNK N   1      29.923  17.027   4.240  0.00  0.00    -0.310 OA
BRANCH   7   8
HETATM    8  C   UNK N   1      29.578  15.882   3.579  0.00  0.00     0.076 A 
HETATM    9  C   UNK N   1      28.518  15.859   2.651  0.00  0.00     0.038 A 
HETATM   10  C   UNK N   1      28.181  14.683   1.983  0.00  0.00     0.021 A 
HETATM   11  C   UNK N   1      28.894  13.512   2.236  0.00  0.00    -0.000 A 
HETATM   12  C   UNK N   1      29.942  13.520   3.166  0.00  0.00     0.021 A 
HETATM   13  C   UNK N   1      30.274  14.700   3.843  0.00  0.00     0.038 A 
BRANCH  11  14
HETATM   14  S   UNK N   1      28.494  12.021   1.330  0.00  0.00    -0.134 SA
HETATM   15  C   UNK N   1      30.098  11.963   0.484  0.00  0.00     0.095 C 
ENDBRANCH  11  14
ENDBRANCH   7   8
ENDBRANCH   6   7
BRANCH   1  16
HETATM   16  C   UNK N   1      29.342  16.969   7.061  0.00  0.00     0.312 C 
BRANCH  16  17
HETATM   17  N   UNK N   1      28.931  18.154   7.802  0.00  0.00     0.084 N 
HETATM   18  C   UNK N   1      28.009  18.896   6.962  0.00  0.00     0.309 C 
HETATM   19  C   UNK N   1      28.166  17.697   8.950  0.00  0.00     0.309 C 
ENDBRANCH  16  17
ENDBRANCH   1  16
BRANCH   3  20
HETATM   20  S   UNK N   1      34.543  17.831   7.918  0.00  0.00     0.256 S 
HETATM   21  O   UNK N   1      35.020  19.181   8.473  0.00  0.00    -0.201 OA
HETATM   22  O   UNK N   1      34.796  16.798   9.025  0.00  0.00    -0.201 OA
BRANCH  20  23
HETATM   23  N   UNK N   1      33.152  18.273   8.911  0.00  0.00    -0.324 N 
HETATM   24  H   UNK N   1      32.397  18.862   9.263  0.00  0.00     0.169 HD
HETATM   25  H   UNK N   1      33.029  17.430   9.472  0.00  0.00     0.169 HD
ENDBRANCH  20  23
ENDBRANCH   3  20
TORSDOF 7
ENDMDL
MODEL 8
REMARK VINA RESULT:      -5.5      8.422     11.014
REMARK  7 active torsions:
REMARK  status: ('A' for Active; 'I' for Inactive)
REMARK    1  A    between atoms: N_2  and  C_4 
REMARK    2  A    between atoms: C_4  and  C_5 
REMARK    3  A    between atoms: C_7  and  S_20 
REMARK    4  A    between atoms: C_10  and  O_11 
REMARK    5  A    between atoms: O_11  and  C_12 
REMARK    6  A    between atoms: C_15  and  S_18 
REMARK    7  A    between atoms: S_20  and  N_23 
ROOT
HETATM    1  C   UNK N   1      36.909  14.054  10.305  0.00  0.00     0.005 A 
HETATM    2  C   UNK N   1      37.178  13.010  11.213  0.00  0.00     0.037 A 
HETATM    3  C   UNK N   1      36.758  13.119  12.554  0.00  0.00     0.080 A 
HETATM    4  C   UNK N   1      36.077  14.260  12.972  0.00  0.00     0.028 A 
HETATM    5  C   UNK N   1      35.809  15.282  12.084  0.00  0.00     0.039 A 
HETATM    6  C   UNK N   1      36.192  15.194  10.739  0.00  0.00     0.084 A 
ENDROOT
BRANCH   6   7
HETATM    7  O   UNK N   1      35.884  16.193   9.871  0.00  0.00    -0.310 OA
BRANCH   7   8
HETATM    8  C   UNK N   1      34.642  16.449   9.363  0.00  0.00     0.076 A 
HETATM    9  C   UNK N   1      33.613  15.488   9.415  0.00  0.00     0.038 A 
HETATM   10  C   UNK N   1      32.350  15.767   8.895  0.00  0.00     0.021 A 
HETATM   11  C   UNK N   1      32.099  17.008   8.311  0.00  0.00    -0.000 A 
HETATM   12  C   UNK N   1      33.118  17.966   8.242  0.00  0.00     0.021 A 
HETATM   13  C   UNK N   1      34.389  17.681   8.757  0.00  0.00     0.038 A 
BRANCH  11  14
HETATM   14  S   UNK N   1      30.458  17.379   7.699  0.00  0.00    -0.134 SA
HETATM   15  C   UNK N   1      30.068  18.494   9.077  0.00  0.00     0.095 C 
ENDBRANCH  11  14
ENDBRANCH   7   8
ENDBRANCH   6   7
BRANCH   1  16
HETATM   16  C   UNK N   1      37.328  13.910   8.868  0.00  0.00     0.312 C 
BRANCH  16  17
HETATM   17  N   UNK N   1      36.267  13.321   8.062  0.00  0.00     0.084 N 
HETATM   18  C   UNK N   1      36.127  14.130   6.865  0.00  0.00     0.309 C 
HETATM   19  C   UNK N   1      36.736  12.017   7.624  0.00  0.00     0.309 C 
ENDBRANCH  16  17
ENDBRANCH   1  16
BRANCH   3  20
HETATM   20  S   UNK N   1      36.946  11.804  13.761  0.00  0.00     0.256 S 
HETATM   21  O   UNK N   1      38.219  11.328  14.474  0.00  0.00    -0.201 OA
HETATM   22  O   UNK N   1      35.818  11.730  14.800  0.00  0.00    -0.201 OA
BRANCH  20  23
HETATM   23  N   UNK N   1      37.390  13.276  14.629  0.00  0.00    -0.324 N 
HETATM   24  H   UNK N   1      37.684  14.245  14.746  0.00  0.00     0.169 HD
HETATM   25  H   UNK N   1      37.297  12.974  15.598  0.00  0.00     0.169 HD
ENDBRANCH  20  23
ENDBRANCH   3  20
TORSDOF 7
ENDMDL
MODEL 9
REMARK VINA RESULT:      -5.5      9.775     13.023
REMARK  7 active torsions:
REMARK  status: ('A' for Active; 'I' for Inactive)
REMARK    1  A    between atoms: N_2  and  C_4 
REMARK    2  A    between atoms: C_4  and  C_5 
REMARK    3  A    between atoms: C_7  and  S_20 
REMARK    4  A    between atoms: C_10  and  O_11 
REMARK    5  A    between atoms: O_11  and  C_12 
REMARK    6  A    between atoms: C_15  and  S_18 
REMARK    7  A    between atoms: S_20  and  N_23 
ROOT
HETATM    1  C   UNK N   1      35.309  14.147   9.785  0.00  0.00     0.005 A 
HETATM    2  C   UNK N   1      34.735  15.107   8.928  0.00  0.00     0.037 A 
HETATM    3  C   UNK N   1      34.716  16.465   9.306  0.00  0.00     0.080 A 
HETATM    4  C   UNK N   1      35.267  16.848  10.527  0.00  0.00     0.028 A 
HETATM    5  C   UNK N   1      35.832  15.911  11.366  0.00  0.00     0.039 A 
HETATM    6  C   UNK N   1      35.888  14.556  11.010  0.00  0.00     0.084 A 
ENDROOT
BRANCH   6   7
HETATM    7  O   UNK N   1      36.484  13.654  11.832  0.00  0.00    -0.310 OA
BRANCH   7   8
HETATM    8  C   UNK N   1      36.133  13.409  13.129  0.00  0.00     0.076 A 
HETATM    9  C   UNK N   1      35.080  12.532  13.454  0.00  0.00     0.038 A 
HETATM   10  C   UNK N   1      34.738  12.290  14.783  0.00  0.00     0.021 A 
HETATM   11  C   UNK N   1      35.439  12.925  15.807  0.00  0.00    -0.000 A 
HETATM   12  C   UNK N   1      36.480  13.809  15.496  0.00  0.00     0.021 A 
HETATM   13  C   UNK N   1      36.817  14.058  14.160  0.00  0.00     0.038 A 
BRANCH  11  14
HETATM   14  S   UNK N   1      35.032  12.563  17.513  0.00  0.00    -0.134 SA
HETATM   15  C   UNK N   1      35.406  14.245  18.083  0.00  0.00     0.095 C 
ENDBRANCH  11  14
ENDBRANCH   7   8
ENDBRANCH   6   7
BRANCH   1  16
HETATM   16  C   UNK N   1      35.358  12.707   9.355  0.00  0.00     0.312 C 
BRANCH  16  17
HETATM   17  N   UNK N   1      34.234  12.372   8.490  0.00  0.00     0.084 N 
HETATM   18  C   UNK N   1      34.773  11.740   7.299  0.00  0.00     0.309 C 
HETATM   19  C   UNK N   1      33.453  11.357   9.177  0.00  0.00     0.309 C 
ENDBRANCH  16  17
ENDBRANCH   1  16
BRANCH   3  20
HETATM   20  S   UNK N   1      34.117  17.781   8.242  0.00  0.00     0.256 S 
HETATM   21  O   UNK N   1      34.513  18.102   6.794  0.00  0.00    -0.201 OA
HETATM   22  O   UNK N   1      32.608  18.043   8.343  0.00  0.00    -0.201 OA
BRANCH  20  23
HETATM   23  N   UNK N   1      33.612  16.292   7.440  0.00  0.00    -0.324 N 
HETATM   24  H   UNK N   1      33.627  15.300   7.203  0.00  0.00     0.169 HD
HETATM   25  H   UNK N   1      32.838  16.625   6.865  0.00  0.00     0.169 HD
ENDBRANCH  20  23
ENDBRANCH   3  20
TORSDOF 7
ENDMDL
