MODEL 1
REMARK VINA RESULT:      -8.9      0.000      0.000
REMARK  6 active torsions:
REMARK  status: ('A' for Active; 'I' for Inactive)
REMARK    1  A    between atoms: C_2  and  C_3 
REMARK    2  A    between atoms: C_2  and  O_7 
REMARK    3  A    between atoms: O_7  and  C_8 
REMARK    4  A    between atoms: C_11  and  C_18 
REMARK    5  A    between atoms: C_13  and  C_14 
REMARK    6  A    between atoms: C_21  and  C_25 
ROOT
HETATM    1  C   UNK N   1      35.206  16.010  10.589  0.00  0.00     0.182 A 
HETATM    2  N   UNK N   1      34.343  15.738   9.612  0.00  0.00    -0.319 N 
ATOM      3  HN  UNK N   1      33.891  14.847   9.405  1.00  0.00     0.169 HD
HETATM    4  C   UNK N   1      34.205  16.891   8.968  0.00  0.00     0.138 A 
HETATM    5  N   UNK N   1      34.970  17.855   9.529  0.00  0.00    -0.242 N 
ATOM      6  HN  UNK N   1      35.065  18.825   9.226  1.00  0.00     0.196 HD
HETATM    7  O   UNK N   1      35.565  17.276  10.545  0.00  0.00    -0.217 OA
ENDROOT
BRANCH   1   8
HETATM    8  C   UNK N   1      35.542  14.955  11.549  0.00  0.00     0.018 A 
HETATM    9  C   UNK N   1      35.073  13.689  11.209  0.00  0.00     0.018 A 
HETATM   10  C   UNK N   1      35.151  12.640  12.084  0.00  0.00     0.038 A 
HETATM   11  C   UNK N   1      35.696  12.815  13.349  0.00  0.00     0.084 A 
HETATM   12  C   UNK N   1      36.242  14.073  13.708  0.00  0.00     0.082 A 
HETATM   13  C   UNK N   1      36.159  15.156  12.793  0.00  0.00     0.035 A 
BRANCH  11  14
HETATM   14  O   UNK N   1      35.645  11.795  14.240  0.00  0.00    -0.337 OA
BRANCH  14  15
HETATM   15  C   UNK N   1      34.562  11.617  15.098  0.00  0.00     0.232 C 
HETATM   16  C   UNK N   1      33.467  10.704  14.543  0.00  0.00     0.049 C 
BRANCH  15  17
HETATM   17  C   UNK N   1      35.016  11.097  16.449  0.00  0.00     0.413 C 
HETATM   18  F   UNK N   1      36.373  10.836  16.401  0.00  0.00    -0.168 F 
HETATM   19  F   UNK N   1      34.345   9.927  16.748  0.00  0.00    -0.168 F 
HETATM   20  F   UNK N   1      34.761  12.037  17.432  0.00  0.00    -0.168 F 
ENDBRANCH  15  17
ENDBRANCH  14  15
ENDBRANCH  11  14
BRANCH  12  21
HETATM   21  C   UNK N   1      36.817  14.276  15.084  0.00  0.00     0.420 C 
HETATM   22  F   UNK N   1      37.474  15.491  15.141  0.00  0.00    -0.166 F 
HETATM   23  F   UNK N   1      37.720  13.261  15.353  0.00  0.00    -0.166 F 
HETATM   24  F   UNK N   1      35.828  14.254  16.051  0.00  0.00    -0.166 F 
ENDBRANCH  12  21
ENDBRANCH   1   8
BRANCH   4  25
HETATM   25  C   UNK N   1      33.321  16.964   7.800  0.00  0.00     0.012 A 
HETATM   26  C   UNK N   1      33.945  17.232   6.549  0.00  0.00     0.017 A 
HETATM   27  C   UNK N   1      33.199  17.398   5.380  0.00  0.00     0.033 A 
HETATM   28  C   UNK N   1      31.826  17.309   5.500  0.00  0.00     0.060 A 
HETATM   29  C   UNK N   1      31.209  17.050   6.684  0.00  0.00     0.060 A 
HETATM   30  N   UNK N   1      30.911  17.471   4.538  0.00  0.00    -0.351 N 
HETATM   31  C   UNK N   1      31.918  16.855   7.875  0.00  0.00     0.047 A 
HETATM   32  N   UNK N   1      29.883  17.043   6.501  0.00  0.00    -0.350 N 
HETATM   33  C   UNK N   1      29.724  17.306   5.174  0.00  0.00     0.181 A 
ATOM     34  HN  UNK N   1      29.156  16.879   7.197  1.00  0.00     0.166 HD
HETATM   35  H   UNK N   1      31.065  17.666   3.585  0.00  0.00     0.166 HD
ENDBRANCH   4  25
TORSDOF 6
ENDMDL
MODEL 2
REMARK VINA RESULT:      -8.6      0.934      1.291
REMARK  6 active torsions:
REMARK  status: ('A' for Active; 'I' for Inactive)
REMARK    1  A    between atoms: C_2  and  C_3 
REMARK    2  A    between atoms: C_2  and  O_7 
REMARK    3  A    between atoms: O_7  and  C_8 
REMARK    4  A    between atoms: C_11  and  C_18 
REMARK    5  A    between atoms: C_13  and  C_14 
REMARK    6  A    between atoms: C_21  and  C_25 
ROOT
HETATM    1  C   UNK N   1      35.227  16.053  10.284  0.00  0.00     0.182 A 
HETATM    2  N   UNK N   1      34.386  15.785   9.286  0.00  0.00    -0.319 N 
ATOM      3  HN  UNK N   1      33.992  14.881   9.025  1.00  0.00     0.169 HD
HETATM    4  C   UNK N   1      34.178  16.963   8.710  0.00  0.00     0.138 A 
HETATM    5  N   UNK N   1      34.878  17.938   9.332  0.00  0.00    -0.242 N 
ATOM      6  HN  UNK N   1      34.912  18.928   9.087  1.00  0.00     0.196 HD
HETATM    7  O   UNK N   1      35.505  17.339  10.316  0.00  0.00    -0.217 OA
ENDROOT
BRANCH   1   8
HETATM    8  C   UNK N   1      35.626  14.967  11.182  0.00  0.00     0.018 A 
HETATM    9  C   UNK N   1      35.395  13.686  10.686  0.00  0.00     0.018 A 
HETATM   10  C   UNK N   1      35.547  12.577  11.472  0.00  0.00     0.038 A 
HETATM   11  C   UNK N   1      35.931  12.701  12.801  0.00  0.00     0.084 A 
HETATM   12  C   UNK N   1      36.237  13.983  13.324  0.00  0.00     0.082 A 
HETATM   13  C   UNK N   1      36.078  15.128  12.501  0.00  0.00     0.035 A 
BRANCH  11  14
HETATM   14  O   UNK N   1      35.952  11.599  13.591  0.00  0.00    -0.337 OA
BRANCH  14  15
HETATM   15  C   UNK N   1      34.923  10.659  13.573  0.00  0.00     0.232 C 
HETATM   16  C   UNK N   1      35.347   9.277  13.073  0.00  0.00     0.049 C 
BRANCH  15  17
HETATM   17  C   UNK N   1      34.283  10.526  14.942  0.00  0.00     0.413 C 
HETATM   18  F   UNK N   1      34.766  11.525  15.767  0.00  0.00    -0.168 F 
HETATM   19  F   UNK N   1      34.603   9.299  15.489  0.00  0.00    -0.168 F 
HETATM   20  F   UNK N   1      32.907  10.638  14.838  0.00  0.00    -0.168 F 
ENDBRANCH  15  17
ENDBRANCH  14  15
ENDBRANCH  11  14
BRANCH  12  21
HETATM   21  C   UNK N   1      36.636  14.127  14.768  0.00  0.00     0.420 C 
HETATM   22  F   UNK N   1      35.524  13.984  15.576  0.00  0.00    -0.166 F 
HETATM   23  F   UNK N   1      37.181  15.384  14.966  0.00  0.00    -0.166 F 
HETATM   24  F   UNK N   1      37.577  13.178  15.127  0.00  0.00    -0.166 F 
ENDBRANCH  12  21
ENDBRANCH   1   8
BRANCH   4  25
HETATM   25  C   UNK N   1      33.294  17.048   7.542  0.00  0.00     0.012 A 
HETATM   26  C   UNK N   1      33.923  17.299   6.290  0.00  0.00     0.017 A 
HETATM   27  C   UNK N   1      33.179  17.474   5.121  0.00  0.00     0.033 A 
HETATM   28  C   UNK N   1      31.805  17.414   5.241  0.00  0.00     0.060 A 
HETATM   29  C   UNK N   1      31.184  17.172   6.427  0.00  0.00     0.060 A 
HETATM   30  N   UNK N   1      30.893  17.590   4.279  0.00  0.00    -0.351 N 
HETATM   31  C   UNK N   1      31.889  16.968   7.618  0.00  0.00     0.047 A 
HETATM   32  N   UNK N   1      29.858  17.191   6.244  0.00  0.00    -0.350 N 
HETATM   33  C   UNK N   1      29.703  17.451   4.917  0.00  0.00     0.181 A 
ATOM     34  HN  UNK N   1      29.128  17.044   6.942  1.00  0.00     0.166 HD
HETATM   35  H   UNK N   1      31.050  17.777   3.325  0.00  0.00     0.166 HD
ENDBRANCH   4  25
TORSDOF 6
ENDMDL
MODEL 3
REMARK VINA RESULT:      -8.3      6.221     10.160
REMARK  6 active torsions:
REMARK  status: ('A' for Active; 'I' for Inactive)
REMARK    1  A    between atoms: C_2  and  C_3 
REMARK    2  A    between atoms: C_2  and  O_7 
REMARK    3  A    between atoms: O_7  and  C_8 
REMARK    4  A    between atoms: C_11  and  C_18 
REMARK    5  A    between atoms: C_13  and  C_14 
REMARK    6  A    between atoms: C_21  and  C_25 
ROOT
HETATM    1  C   UNK N   1      33.880  17.013   9.217  0.00  0.00     0.182 A 
HETATM    2  N   UNK N   1      33.928  15.880   9.914  0.00  0.00    -0.319 N 
ATOM      3  HN  UNK N   1      33.287  15.087   9.866  1.00  0.00     0.169 HD
HETATM    4  C   UNK N   1      35.000  16.016  10.685  0.00  0.00     0.138 A 
HETATM    5  N   UNK N   1      35.600  17.209  10.476  0.00  0.00    -0.242 N 
ATOM      6  HN  UNK N   1      36.429  17.576  10.944  1.00  0.00     0.196 HD
HETATM    7  O   UNK N   1      34.887  17.796   9.544  0.00  0.00    -0.217 OA
ENDROOT
BRANCH   1   8
HETATM    8  C   UNK N   1      32.834  17.176   8.203  0.00  0.00     0.018 A 
HETATM    9  C   UNK N   1      31.534  17.173   8.703  0.00  0.00     0.018 A 
HETATM   10  C   UNK N   1      30.449  17.138   7.871  0.00  0.00     0.038 A 
HETATM   11  C   UNK N   1      30.617  17.092   6.494  0.00  0.00     0.084 A 
HETATM   12  C   UNK N   1      31.923  17.158   5.946  0.00  0.00     0.082 A 
HETATM   13  C   UNK N   1      33.044  17.198   6.816  0.00  0.00     0.035 A 
BRANCH  11  14
HETATM   14  O   UNK N   1      29.532  16.929   5.698  0.00  0.00    -0.337 OA
BRANCH  14  15
HETATM   15  C   UNK N   1      28.755  18.007   5.278  0.00  0.00     0.232 C 
HETATM   16  C   UNK N   1      28.184  17.854   3.867  0.00  0.00     0.049 C 
BRANCH  15  17
HETATM   17  C   UNK N   1      27.626  18.279   6.253  0.00  0.00     0.413 C 
HETATM   18  F   UNK N   1      27.291  17.102   6.898  0.00  0.00    -0.168 F 
HETATM   19  F   UNK N   1      26.521  18.746   5.569  0.00  0.00    -0.168 F 
HETATM   20  F   UNK N   1      28.020  19.221   7.188  0.00  0.00    -0.168 F 
ENDBRANCH  15  17
ENDBRANCH  14  15
ENDBRANCH  11  14
BRANCH  12  21
HETATM   21  C   UNK N   1      32.114  17.092   4.454  0.00  0.00     0.420 C 
HETATM   22  F   UNK N   1      31.384  16.038   3.936  0.00  0.00    -0.166 F 
HETATM   23  F   UNK N   1      33.456  16.892   4.176  0.00  0.00    -0.166 F 
HETATM   24  F   UNK N   1      31.707  18.264   3.842  0.00  0.00    -0.166 F 
ENDBRANCH  12  21
ENDBRANCH   1   8
BRANCH   4  25
HETATM   25  C   UNK N   1      35.360  14.941  11.616  0.00  0.00     0.012 A 
HETATM   26  C   UNK N   1      34.801  13.660  11.350  0.00  0.00     0.017 A 
HETATM   27  C   UNK N   1      35.013  12.577  12.208  0.00  0.00     0.033 A 
HETATM   28  C   UNK N   1      35.770  12.816  13.337  0.00  0.00     0.060 A 
HETATM   29  C   UNK N   1      36.316  14.032  13.609  0.00  0.00     0.060 A 
HETATM   30  N   UNK N   1      36.070  11.955  14.316  0.00  0.00    -0.351 N 
HETATM   31  C   UNK N   1      36.149  15.137  12.767  0.00  0.00     0.047 A 
HETATM   32  N   UNK N   1      36.975  13.971  14.773  0.00  0.00    -0.350 N 
HETATM   33  C   UNK N   1      36.810  12.685  15.189  0.00  0.00     0.181 A 
ATOM     34  HN  UNK N   1      37.487  14.718  15.242  1.00  0.00     0.166 HD
HETATM   35  H   UNK N   1      35.813  11.007  14.385  0.00  0.00     0.166 HD
ENDBRANCH   4  25
TORSDOF 6
ENDMDL
MODEL 4
REMARK VINA RESULT:      -8.2      1.654      2.564
REMARK  6 active torsions:
REMARK  status: ('A' for Active; 'I' for Inactive)
REMARK    1  A    between atoms: C_2  and  C_3 
REMARK    2  A    between atoms: C_2  and  O_7 
REMARK    3  A    between atoms: O_7  and  C_8 
REMARK    4  A    between atoms: C_11  and  C_18 
REMARK    5  A    between atoms: C_13  and  C_14 
REMARK    6  A    between atoms: C_21  and  C_25 
ROOT
HETATM    1  C   UNK N   1      35.035  16.011  10.733  0.00  0.00     0.182 A 
HETATM    2  N   UNK N   1      34.119  15.842   9.781  0.00  0.00    -0.319 N 
ATOM      3  HN  UNK N   1      33.513  15.036   9.631  1.00  0.00     0.169 HD
HETATM    4  C   UNK N   1      34.176  16.963   9.072  0.00  0.00     0.138 A 
HETATM    5  N   UNK N   1      35.109  17.806   9.568  0.00  0.00    -0.242 N 
ATOM      6  HN  UNK N   1      35.368  18.725   9.208  1.00  0.00     0.196 HD
HETATM    7  O   UNK N   1      35.611  17.189  10.612  0.00  0.00    -0.217 OA
ENDROOT
BRANCH   1   8
HETATM    8  C   UNK N   1      35.198  14.969  11.750  0.00  0.00     0.018 A 
HETATM    9  C   UNK N   1      36.027  15.319  12.813  0.00  0.00     0.018 A 
HETATM   10  C   UNK N   1      36.419  14.399  13.747  0.00  0.00     0.038 A 
HETATM   11  C   UNK N   1      36.004  13.077  13.652  0.00  0.00     0.084 A 
HETATM   12  C   UNK N   1      35.109  12.697  12.621  0.00  0.00     0.082 A 
HETATM   13  C   UNK N   1      34.705  13.659  11.657  0.00  0.00     0.035 A 
BRANCH  11  14
HETATM   14  O   UNK N   1      36.508  12.161  14.514  0.00  0.00    -0.337 OA
BRANCH  14  15
HETATM   15  C   UNK N   1      36.161  12.148  15.864  0.00  0.00     0.232 C 
HETATM   16  C   UNK N   1      34.775  12.726  16.159  0.00  0.00     0.049 C 
BRANCH  15  17
HETATM   17  C   UNK N   1      36.257  10.747  16.439  0.00  0.00     0.413 C 
HETATM   18  F   UNK N   1      37.400  10.137  15.955  0.00  0.00    -0.168 F 
HETATM   19  F   UNK N   1      35.156  10.008  16.052  0.00  0.00    -0.168 F 
HETATM   20  F   UNK N   1      36.312  10.802  17.820  0.00  0.00    -0.168 F 
ENDBRANCH  15  17
ENDBRANCH  14  15
ENDBRANCH  11  14
BRANCH  12  21
HETATM   21  C   UNK N   1      34.669  11.262  12.501  0.00  0.00     0.420 C 
HETATM   22  F   UNK N   1      33.795  10.954  13.526  0.00  0.00    -0.166 F 
HETATM   23  F   UNK N   1      35.778  10.438  12.589  0.00  0.00    -0.166 F 
HETATM   24  F   UNK N   1      34.042  11.028  11.290  0.00  0.00    -0.166 F 
ENDBRANCH  12  21
ENDBRANCH   1   8
BRANCH   4  25
HETATM   25  C   UNK N   1      33.296  17.125   7.909  0.00  0.00     0.012 A 
HETATM   26  C   UNK N   1      31.902  16.963   8.142  0.00  0.00     0.017 A 
HETATM   27  C   UNK N   1      30.975  17.020   7.098  0.00  0.00     0.033 A 
HETATM   28  C   UNK N   1      31.478  17.221   5.828  0.00  0.00     0.060 A 
HETATM   29  C   UNK N   1      32.806  17.382   5.584  0.00  0.00     0.060 A 
HETATM   30  N   UNK N   1      30.795  17.270   4.679  0.00  0.00    -0.351 N 
HETATM   31  C   UNK N   1      33.767  17.354   6.600  0.00  0.00     0.047 A 
HETATM   32  N   UNK N   1      32.998  17.536   4.268  0.00  0.00    -0.350 N 
HETATM   33  C   UNK N   1      31.748  17.463   3.732  0.00  0.00     0.181 A 
ATOM     34  HN  UNK N   1      33.881  17.677   3.777  1.00  0.00     0.166 HD
HETATM   35  H   UNK N   1      29.822  17.187   4.550  0.00  0.00     0.166 HD
ENDBRANCH   4  25
TORSDOF 6
ENDMDL
MODEL 5
REMARK VINA RESULT:      -8.1      6.749     10.159
REMARK  6 active torsions:
REMARK  status: ('A' for Active; 'I' for Inactive)
REMARK    1  A    between atoms: C_2  and  C_3 
REMARK    2  A    between atoms: C_2  and  O_7 
REMARK    3  A    between atoms: O_7  and  C_8 
REMARK    4  A    between atoms: C_11  and  C_18 
REMARK    5  A    between atoms: C_13  and  C_14 
REMARK    6  A    between atoms: C_21  and  C_25 
ROOT
HETATM    1  C   UNK N   1      27.896  19.089   4.997  0.00  0.00     0.182 A 
HETATM    2  N   UNK N   1      26.725  18.570   4.633  0.00  0.00    -0.319 N 
ATOM      3  HN  UNK N   1      26.483  17.584   4.526  1.00  0.00     0.169 HD
HETATM    4  C   UNK N   1      25.945  19.626   4.440  0.00  0.00     0.138 A 
HETATM    5  N   UNK N   1      26.617  20.775   4.674  0.00  0.00    -0.242 N 
ATOM      6  HN  UNK N   1      26.264  21.729   4.586  1.00  0.00     0.196 HD
HETATM    7  O   UNK N   1      27.823  20.403   5.035  0.00  0.00    -0.217 OA
ENDROOT
BRANCH   1   8
HETATM    8  C   UNK N   1      28.991  18.184   5.355  0.00  0.00     0.018 A 
HETATM    9  C   UNK N   1      28.869  17.591   6.609  0.00  0.00     0.018 A 
HETATM   10  C   UNK N   1      29.890  16.864   7.158  0.00  0.00     0.038 A 
HETATM   11  C   UNK N   1      31.090  16.706   6.476  0.00  0.00     0.084 A 
HETATM   12  C   UNK N   1      31.228  17.241   5.171  0.00  0.00     0.082 A 
HETATM   13  C   UNK N   1      30.163  17.991   4.608  0.00  0.00     0.035 A 
BRANCH  11  14
HETATM   14  O   UNK N   1      32.128  16.091   7.095  0.00  0.00    -0.337 OA
BRANCH  14  15
HETATM   15  C   UNK N   1      32.510  16.416   8.395  0.00  0.00     0.232 C 
HETATM   16  C   UNK N   1      32.846  15.206   9.270  0.00  0.00     0.049 C 
BRANCH  15  17
HETATM   17  C   UNK N   1      33.681  17.381   8.395  0.00  0.00     0.413 C 
HETATM   18  F   UNK N   1      33.216  18.658   8.137  0.00  0.00    -0.168 F 
HETATM   19  F   UNK N   1      34.579  17.023   7.409  0.00  0.00    -0.168 F 
HETATM   20  F   UNK N   1      34.315  17.360   9.624  0.00  0.00    -0.168 F 
ENDBRANCH  15  17
ENDBRANCH  14  15
ENDBRANCH  11  14
BRANCH  12  21
HETATM   21  C   UNK N   1      32.532  17.089   4.434  0.00  0.00     0.420 C 
HETATM   22  F   UNK N   1      33.476  17.943   4.973  0.00  0.00    -0.166 F 
HETATM   23  F   UNK N   1      32.340  17.411   3.101  0.00  0.00    -0.166 F 
HETATM   24  F   UNK N   1      33.005  15.791   4.510  0.00  0.00    -0.166 F 
ENDBRANCH  12  21
ENDBRANCH   1   8
BRANCH   4  25
HETATM   25  C   UNK N   1      24.557  19.428   4.008  0.00  0.00     0.012 A 
HETATM   26  C   UNK N   1      24.008  20.433   3.163  0.00  0.00     0.017 A 
HETATM   27  C   UNK N   1      22.674  20.391   2.749  0.00  0.00     0.033 A 
HETATM   28  C   UNK N   1      21.910  19.340   3.215  0.00  0.00     0.060 A 
HETATM   29  C   UNK N   1      22.416  18.368   4.020  0.00  0.00     0.060 A 
HETATM   30  N   UNK N   1      20.611  19.113   2.990  0.00  0.00    -0.351 N 
HETATM   31  C   UNK N   1      23.750  18.357   4.441  0.00  0.00     0.047 A 
HETATM   32  N   UNK N   1      21.445  17.498   4.327  0.00  0.00    -0.350 N 
HETATM   33  C   UNK N   1      20.345  17.977   3.683  0.00  0.00     0.181 A 
ATOM     34  HN  UNK N   1      21.513  16.665   4.911  1.00  0.00     0.166 HD
HETATM   35  H   UNK N   1      19.990  19.648   2.444  0.00  0.00     0.166 HD
ENDBRANCH   4  25
TORSDOF 6
ENDMDL
MODEL 6
REMARK VINA RESULT:      -8.1      6.664     10.104
REMARK  6 active torsions:
REMARK  status: ('A' for Active; 'I' for Inactive)
REMARK    1  A    between atoms: C_2  and  C_3 
REMARK    2  A    between atoms: C_2  and  O_7 
REMARK    3  A    between atoms: O_7  and  C_8 
REMARK    4  A    between atoms: C_11  and  C_18 
REMARK    5  A    between atoms: C_13  and  C_14 
REMARK    6  A    between atoms: C_21  and  C_25 
ROOT
HETATM    1  C   UNK N   1      27.407  19.114   4.738  0.00  0.00     0.182 A 
HETATM    2  N   UNK N   1      26.146  18.717   4.902  0.00  0.00    -0.319 N 
ATOM      3  HN  UNK N   1      25.785  18.044   5.579  1.00  0.00     0.169 HD
HETATM    4  C   UNK N   1      25.468  19.395   3.984  0.00  0.00     0.138 A 
HETATM    5  N   UNK N   1      26.289  20.190   3.262  0.00  0.00    -0.242 N 
ATOM      6  HN  UNK N   1      26.034  20.803   2.488  1.00  0.00     0.196 HD
HETATM    7  O   UNK N   1      27.485  20.003   3.770  0.00  0.00    -0.217 OA
ENDROOT
BRANCH   1   8
HETATM    8  C   UNK N   1      28.435  18.600   5.647  0.00  0.00     0.018 A 
HETATM    9  C   UNK N   1      29.441  17.861   5.028  0.00  0.00     0.018 A 
HETATM   10  C   UNK N   1      30.369  17.169   5.756  0.00  0.00     0.038 A 
HETATM   11  C   UNK N   1      30.326  17.177   7.144  0.00  0.00     0.084 A 
HETATM   12  C   UNK N   1      29.356  17.968   7.810  0.00  0.00     0.082 A 
HETATM   13  C   UNK N   1      28.398  18.685   7.046  0.00  0.00     0.035 A 
BRANCH  11  14
HETATM   14  O   UNK N   1      31.177  16.382   7.839  0.00  0.00    -0.337 OA
BRANCH  14  15
HETATM   15  C   UNK N   1      32.547  16.633   7.887  0.00  0.00     0.232 C 
HETATM   16  C   UNK N   1      32.907  18.096   8.151  0.00  0.00     0.049 C 
BRANCH  15  17
HETATM   17  C   UNK N   1      33.226  15.752   8.919  0.00  0.00     0.413 C 
HETATM   18  F   UNK N   1      32.261  15.143   9.701  0.00  0.00    -0.168 F 
HETATM   19  F   UNK N   1      34.039  16.522   9.728  0.00  0.00    -0.168 F 
HETATM   20  F   UNK N   1      33.989  14.783   8.291  0.00  0.00    -0.168 F 
ENDBRANCH  15  17
ENDBRANCH  14  15
ENDBRANCH  11  14
BRANCH  12  21
HETATM   21  C   UNK N   1      29.292  17.967   9.314  0.00  0.00     0.420 C 
HETATM   22  F   UNK N   1      27.994  18.204   9.726  0.00  0.00    -0.166 F 
HETATM   23  F   UNK N   1      30.112  18.968   9.805  0.00  0.00    -0.166 F 
HETATM   24  F   UNK N   1      29.714  16.756   9.834  0.00  0.00    -0.166 F 
ENDBRANCH  12  21
ENDBRANCH   1   8
BRANCH   4  25
HETATM   25  C   UNK N   1      24.020  19.193   3.863  0.00  0.00     0.012 A 
HETATM   26  C   UNK N   1      23.500  17.990   4.415  0.00  0.00     0.017 A 
HETATM   27  C   UNK N   1      22.149  17.654   4.294  0.00  0.00     0.033 A 
HETATM   28  C   UNK N   1      21.348  18.535   3.596  0.00  0.00     0.060 A 
HETATM   29  C   UNK N   1      21.824  19.693   3.063  0.00  0.00     0.060 A 
HETATM   30  N   UNK N   1      20.046  18.409   3.317  0.00  0.00    -0.351 N 
HETATM   31  C   UNK N   1      23.164  20.080   3.179  0.00  0.00     0.047 A 
HETATM   32  N   UNK N   1      20.831  20.330   2.430  0.00  0.00    -0.350 N 
HETATM   33  C   UNK N   1      19.748  19.522   2.599  0.00  0.00     0.181 A 
ATOM     34  HN  UNK N   1      20.875  21.220   1.933  1.00  0.00     0.166 HD
HETATM   35  H   UNK N   1      19.441  17.676   3.576  0.00  0.00     0.166 HD
ENDBRANCH   4  25
TORSDOF 6
ENDMDL
MODEL 7
REMARK VINA RESULT:      -8.0      5.540      9.709
REMARK  6 active torsions:
REMARK  status: ('A' for Active; 'I' for Inactive)
REMARK    1  A    between atoms: C_2  and  C_3 
REMARK    2  A    between atoms: C_2  and  O_7 
REMARK    3  A    between atoms: O_7  and  C_8 
REMARK    4  A    between atoms: C_11  and  C_18 
REMARK    5  A    between atoms: C_13  and  C_14 
REMARK    6  A    between atoms: C_21  and  C_25 
ROOT
HETATM    1  C   UNK N   1      35.628  14.524  11.191  0.00  0.00     0.182 A 
HETATM    2  N   UNK N   1      35.189  14.098  12.374  0.00  0.00    -0.319 N 
ATOM      3  HN  UNK N   1      34.251  14.189  12.764  1.00  0.00     0.169 HD
HETATM    4  C   UNK N   1      36.251  13.526  12.929  0.00  0.00     0.138 A 
HETATM    5  N   UNK N   1      37.326  13.602  12.113  0.00  0.00    -0.242 N 
ATOM      6  HN  UNK N   1      38.269  13.258  12.297  1.00  0.00     0.196 HD
HETATM    7  O   UNK N   1      36.898  14.213  11.034  0.00  0.00    -0.217 OA
ENDROOT
BRANCH   1   8
HETATM    8  C   UNK N   1      34.681  15.160  10.273  0.00  0.00     0.018 A 
HETATM    9  C   UNK N   1      33.639  14.338   9.850  0.00  0.00     0.018 A 
HETATM   10  C   UNK N   1      32.779  14.726   8.860  0.00  0.00     0.038 A 
HETATM   11  C   UNK N   1      32.929  15.958   8.237  0.00  0.00     0.084 A 
HETATM   12  C   UNK N   1      33.938  16.849   8.683  0.00  0.00     0.082 A 
HETATM   13  C   UNK N   1      34.825  16.439   9.713  0.00  0.00     0.035 A 
BRANCH  11  14
HETATM   14  O   UNK N   1      32.144  16.264   7.175  0.00  0.00    -0.337 OA
BRANCH  14  15
HETATM   15  C   UNK N   1      30.766  16.428   7.298  0.00  0.00     0.232 C 
HETATM   16  C   UNK N   1      30.341  17.279   8.497  0.00  0.00     0.049 C 
BRANCH  15  17
HETATM   17  C   UNK N   1      30.170  17.009   6.030  0.00  0.00     0.413 C 
HETATM   18  F   UNK N   1      31.172  17.623   5.299  0.00  0.00    -0.168 F 
HETATM   19  F   UNK N   1      29.211  17.949   6.353  0.00  0.00    -0.168 F 
HETATM   20  F   UNK N   1      29.594  16.006   5.271  0.00  0.00    -0.168 F 
ENDBRANCH  15  17
ENDBRANCH  14  15
ENDBRANCH  11  14
BRANCH  12  21
HETATM   21  C   UNK N   1      34.118  18.178   8.001  0.00  0.00     0.420 C 
HETATM   22  F   UNK N   1      34.314  17.985   6.647  0.00  0.00    -0.166 F 
HETATM   23  F   UNK N   1      35.228  18.815   8.532  0.00  0.00    -0.166 F 
HETATM   24  F   UNK N   1      33.014  18.992   8.184  0.00  0.00    -0.166 F 
ENDBRANCH  12  21
ENDBRANCH   1   8
BRANCH   4  25
HETATM   25  C   UNK N   1      36.138  12.946  14.272  0.00  0.00     0.012 A 
HETATM   26  C   UNK N   1      36.363  11.545  14.377  0.00  0.00     0.017 A 
HETATM   27  C   UNK N   1      36.210  10.869  15.590  0.00  0.00     0.033 A 
HETATM   28  C   UNK N   1      35.809  11.621  16.676  0.00  0.00     0.060 A 
HETATM   29  C   UNK N   1      35.592  12.961  16.599  0.00  0.00     0.060 A 
HETATM   30  N   UNK N   1      35.560  11.192  17.918  0.00  0.00    -0.351 N 
HETATM   31  C   UNK N   1      35.755  13.683  15.411  0.00  0.00     0.047 A 
HETATM   32  N   UNK N   1      35.196  13.415  17.794  0.00  0.00    -0.350 N 
HETATM   33  C   UNK N   1      35.183  12.310  18.589  0.00  0.00     0.181 A 
ATOM     34  HN  UNK N   1      34.958  14.373  18.052  1.00  0.00     0.166 HD
HETATM   35  H   UNK N   1      35.634  10.273  18.266  0.00  0.00     0.166 HD
ENDBRANCH   4  25
TORSDOF 6
ENDMDL
MODEL 8
REMARK VINA RESULT:      -8.0     11.406     15.195
REMARK  6 active torsions:
REMARK  status: ('A' for Active; 'I' for Inactive)
REMARK    1  A    between atoms: C_2  and  C_3 
REMARK    2  A    between atoms: C_2  and  O_7 
REMARK    3  A    between atoms: O_7  and  C_8 
REMARK    4  A    between atoms: C_11  and  C_18 
REMARK    5  A    between atoms: C_13  and  C_14 
REMARK    6  A    between atoms: C_21  and  C_25 
ROOT
HETATM    1  C   UNK N   1      25.260  19.097   4.774  0.00  0.00     0.182 A 
HETATM    2  N   UNK N   1      25.971  18.373   5.636  0.00  0.00    -0.319 N 
ATOM      3  HN  UNK N   1      25.686  17.524   6.125  1.00  0.00     0.169 HD
HETATM    4  C   UNK N   1      27.134  19.009   5.716  0.00  0.00     0.138 A 
HETATM    5  N   UNK N   1      27.143  20.105   4.925  0.00  0.00    -0.242 N 
ATOM      6  HN  UNK N   1      27.901  20.778   4.808  1.00  0.00     0.196 HD
HETATM    7  O   UNK N   1      25.968  20.120   4.341  0.00  0.00    -0.217 OA
ENDROOT
BRANCH   1   8
HETATM    8  C   UNK N   1      23.921  18.637   4.400  0.00  0.00     0.018 A 
HETATM    9  C   UNK N   1      23.691  17.280   4.613  0.00  0.00     0.018 A 
HETATM   10  C   UNK N   1      22.559  16.666   4.153  0.00  0.00     0.038 A 
HETATM   11  C   UNK N   1      21.604  17.385   3.445  0.00  0.00     0.084 A 
HETATM   12  C   UNK N   1      21.772  18.780   3.263  0.00  0.00     0.082 A 
HETATM   13  C   UNK N   1      22.949  19.410   3.746  0.00  0.00     0.035 A 
BRANCH  11  14
HETATM   14  O   UNK N   1      20.556  16.728   2.891  0.00  0.00    -0.337 OA
BRANCH  14  15
HETATM   15  C   UNK N   1      20.633  15.383   2.532  0.00  0.00     0.232 C 
HETATM   16  C   UNK N   1      19.425  14.550   2.965  0.00  0.00     0.049 C 
BRANCH  15  17
HETATM   17  C   UNK N   1      20.844  15.229   1.038  0.00  0.00     0.413 C 
HETATM   18  F   UNK N   1      20.043  14.202   0.571  0.00  0.00    -0.168 F 
HETATM   19  F   UNK N   1      22.165  14.917   0.784  0.00  0.00    -0.168 F 
HETATM   20  F   UNK N   1      20.515  16.404   0.386  0.00  0.00    -0.168 F 
ENDBRANCH  15  17
ENDBRANCH  14  15
ENDBRANCH  11  14
BRANCH  12  21
HETATM   21  C   UNK N   1      20.751  19.563   2.481  0.00  0.00     0.420 C 
HETATM   22  F   UNK N   1      21.045  20.912   2.547  0.00  0.00    -0.166 F 
HETATM   23  F   UNK N   1      19.497  19.346   3.027  0.00  0.00    -0.166 F 
HETATM   24  F   UNK N   1      20.727  19.173   1.154  0.00  0.00    -0.166 F 
ENDBRANCH  12  21
ENDBRANCH   1   8
BRANCH   4  25
HETATM   25  C   UNK N   1      28.180  18.490   6.604  0.00  0.00     0.012 A 
HETATM   26  C   UNK N   1      28.167  18.968   7.944  0.00  0.00     0.017 A 
HETATM   27  C   UNK N   1      29.157  18.603   8.860  0.00  0.00     0.033 A 
HETATM   28  C   UNK N   1      30.159  17.773   8.397  0.00  0.00     0.060 A 
HETATM   29  C   UNK N   1      30.188  17.302   7.122  0.00  0.00     0.060 A 
HETATM   30  N   UNK N   1      31.225  17.327   9.071  0.00  0.00    -0.351 N 
HETATM   31  C   UNK N   1      29.207  17.624   6.178  0.00  0.00     0.047 A 
HETATM   32  N   UNK N   1      31.279  16.544   6.955  0.00  0.00    -0.350 N 
HETATM   33  C   UNK N   1      31.901  16.575   8.166  0.00  0.00     0.181 A 
ATOM     34  HN  UNK N   1      31.577  16.054   6.112  1.00  0.00     0.166 HD
HETATM   35  H   UNK N   1      31.463  17.504  10.010  0.00  0.00     0.166 HD
ENDBRANCH   4  25
TORSDOF 6
ENDMDL
MODEL 9
REMARK VINA RESULT:      -7.8      7.386     12.725
REMARK  6 active torsions:
REMARK  status: ('A' for Active; 'I' for Inactive)
REMARK    1  A    between atoms: C_2  and  C_3 
REMARK    2  A    between atoms: C_2  and  O_7 
REMARK    3  A    between atoms: O_7  and  C_8 
REMARK    4  A    between atoms: C_11  and  C_18 
REMARK    5  A    between atoms: C_13  and  C_14 
REMARK    6  A    between atoms: C_21  and  C_25 
ROOT
HETATM    1  C   UNK N   1      35.408  10.618  20.401  0.00  0.00     0.182 A 
HETATM    2  N   UNK N   1      34.253  10.477  21.047  0.00  0.00    -0.319 N 
ATOM      3  HN  UNK N   1      33.316  10.708  20.715  1.00  0.00     0.169 HD
HETATM    4  C   UNK N   1      34.597   9.967  22.224  0.00  0.00     0.138 A 
HETATM    5  N   UNK N   1      35.937   9.801  22.308  0.00  0.00    -0.242 N 
ATOM      6  HN  UNK N   1      36.468   9.443  23.102  1.00  0.00     0.196 HD
HETATM    7  O   UNK N   1      36.407  10.200  21.149  0.00  0.00    -0.217 OA
ENDROOT
BRANCH   1   8
HETATM    8  C   UNK N   1      35.390  11.108  19.020  0.00  0.00     0.018 A 
HETATM    9  C   UNK N   1      35.297  12.492  18.896  0.00  0.00     0.018 A 
HETATM   10  C   UNK N   1      35.091  13.088  17.681  0.00  0.00     0.038 A 
HETATM   11  C   UNK N   1      34.959  12.320  16.532  0.00  0.00     0.084 A 
HETATM   12  C   UNK N   1      35.112  10.913  16.609  0.00  0.00     0.082 A 
HETATM   13  C   UNK N   1      35.328  10.303  17.873  0.00  0.00     0.035 A 
BRANCH  11  14
HETATM   14  O   UNK N   1      34.630  12.925  15.364  0.00  0.00    -0.337 OA
BRANCH  14  15
HETATM   15  C   UNK N   1      35.556  13.661  14.627  0.00  0.00     0.232 C 
HETATM   16  C   UNK N   1      37.010  13.436  15.046  0.00  0.00     0.049 C 
BRANCH  15  17
HETATM   17  C   UNK N   1      35.410  13.388  13.142  0.00  0.00     0.413 C 
HETATM   18  F   UNK N   1      34.429  12.433  12.950  0.00  0.00    -0.168 F 
HETATM   19  F   UNK N   1      36.604  12.913  12.636  0.00  0.00    -0.168 F 
HETATM   20  F   UNK N   1      35.059  14.550  12.476  0.00  0.00    -0.168 F 
ENDBRANCH  15  17
ENDBRANCH  14  15
ENDBRANCH  11  14
BRANCH  12  21
HETATM   21  C   UNK N   1      34.952  10.072  15.371  0.00  0.00     0.420 C 
HETATM   22  F   UNK N   1      35.062   8.734  15.697  0.00  0.00    -0.166 F 
HETATM   23  F   UNK N   1      35.948  10.400  14.467  0.00  0.00    -0.166 F 
HETATM   24  F   UNK N   1      33.724  10.289  14.771  0.00  0.00    -0.166 F 
ENDBRANCH  12  21
ENDBRANCH   1   8
BRANCH   4  25
HETATM   25  C   UNK N   1      33.558   9.687  23.221  0.00  0.00     0.012 A 
HETATM   26  C   UNK N   1      33.078   8.349  23.277  0.00  0.00     0.017 A 
HETATM   27  C   UNK N   1      32.038   7.981  24.134  0.00  0.00     0.033 A 
HETATM   28  C   UNK N   1      31.484   8.982  24.908  0.00  0.00     0.060 A 
HETATM   29  C   UNK N   1      31.930  10.266  24.872  0.00  0.00     0.060 A 
HETATM   30  N   UNK N   1      30.462   8.880  25.764  0.00  0.00    -0.351 N 
HETATM   31  C   UNK N   1      32.983  10.675  24.046  0.00  0.00     0.047 A 
HETATM   32  N   UNK N   1      31.196  11.013  25.706  0.00  0.00    -0.350 N 
HETATM   33  C   UNK N   1      30.300  10.140  26.243  0.00  0.00     0.181 A 
ATOM     34  HN  UNK N   1      31.288  12.011  25.898  1.00  0.00     0.166 HD
HETATM   35  H   UNK N   1      29.945   8.074  25.994  0.00  0.00     0.166 HD
ENDBRANCH   4  25
TORSDOF 6
ENDMDL
