MODEL 1
REMARK VINA RESULT:      -6.4      0.000      0.000
REMARK  17 active torsions:
REMARK  status: ('A' for Active; 'I' for Inactive)
REMARK    1  A    between atoms: C_7  and  C_2 
REMARK    2  A    between atoms: N_21  and  C_2 
REMARK    3  A    between atoms: C_8  and  C_3 
REMARK    4  A    between atoms: N_23  and  C_3 
REMARK    5  A    between atoms: C_7  and  C_4 
REMARK    6  A    between atoms: O_26  and  C_4 
REMARK    7  A    between atoms: C_8  and  C_5 
REMARK    8  A    between atoms: O_27  and  C_5 
REMARK    9  A    between atoms: C_9  and  C_6 
REMARK   10  A    between atoms: O_28  and  C_6 
REMARK   11  A    between atoms: O_29  and  C_7 
REMARK   12  A    between atoms: O_30  and  C_8 
REMARK       I    between atoms: N_25  and  C_9 
REMARK   13  A    between atoms: C_16  and  C_10 
REMARK   14  A    between atoms: C_17  and  C_11 
REMARK   15  A    between atoms: N_25  and  C_15 
REMARK   16  A    between atoms: O_32  and  C_16 
REMARK   17  A    between atoms: O_33  and  C_17 
ROOT
HETATM    1  C   UNK N   1      30.836  16.384   7.388  0.00  0.00     0.051 A 
HETATM    2  C   UNK N   1      28.983  16.604   5.750  0.00  0.00     0.051 A 
HETATM    3  C   UNK N   1      29.580  16.960   7.001  0.00  0.00     0.038 A 
HETATM    4  C   UNK N   1      31.458  15.456   6.508  0.00  0.00     0.050 A 
HETATM    5  C   UNK N   1      29.710  15.791   4.841  0.00  0.00     0.050 A 
HETATM    6  C   UNK N   1      30.940  15.220   5.218  0.00  0.00     0.072 A 
HETATM    7  I   UNK N   1      28.569  18.315   8.352  0.00  0.00    -0.042 I 
HETATM    8  I   UNK N   1      32.981  14.094   7.187  0.00  0.00    -0.041 I 
HETATM    9  I   UNK N   1      29.010  15.486   2.809  0.00  0.00    -0.041 I 
ENDROOT
BRANCH   1  10
HETATM   10  C   UNK N   1      31.402  16.663   8.769  0.00  0.00     0.149 C 
HETATM   11  N   UNK N   1      32.394  17.466   9.013  0.00  0.00    -0.368 N 
ATOM     12  HN  UNK N   1      32.693  17.532   9.986  1.00  0.00     0.161 HD
BRANCH  11  13
HETATM   13  C   UNK N   1      33.121  18.275   8.062  0.00  0.00     0.155 C 
BRANCH  13  14
HETATM   14  C   UNK N   1      34.625  18.026   8.230  0.00  0.00     0.159 C 
BRANCH  14  15
HETATM   15  C   UNK N   1      34.955  16.917   9.217  0.00  0.00     0.197 C 
BRANCH  15  16
HETATM   16  O   UNK N   1      34.994  17.417  10.519  0.00  0.00    -0.398 OA
HETATM   17  H   UNK N   1      35.219  17.506  11.458  0.00  0.00     0.209 HD
ENDBRANCH  15  16
ENDBRANCH  14  15
BRANCH  14  18
HETATM   18  O   UNK N   1      35.288  19.205   8.572  0.00  0.00    -0.392 OA
HETATM   19  H   UNK N   1      35.339  20.011   8.036  0.00  0.00     0.210 HD
ENDBRANCH  14  18
ENDBRANCH  13  14
ENDBRANCH  11  13
BRANCH  10  20
HETATM   20  O   UNK N   1      30.819  16.073   9.828  0.00  0.00    -0.346 OA
HETATM   21  H   UNK N   1      31.206  15.674  10.582  0.00  0.00     0.219 HD
ENDBRANCH  10  20
ENDBRANCH   1  10
BRANCH   2  22
HETATM   22  C   UNK N   1      27.563  16.960   5.389  0.00  0.00     0.149 C 
HETATM   23  N   UNK N   1      27.242  18.067   4.797  0.00  0.00    -0.368 N 
ATOM     24  HN  UNK N   1      28.010  18.674   4.510  1.00  0.00     0.161 HD
BRANCH  23  25
HETATM   25  C   UNK N   1      25.883  18.534   4.497  0.00  0.00     0.155 C 
BRANCH  25  26
HETATM   26  C   UNK N   1      25.754  19.982   4.006  0.00  0.00     0.159 C 
BRANCH  26  27
HETATM   27  C   UNK N   1      24.394  20.275   3.408  0.00  0.00     0.197 C 
BRANCH  27  28
HETATM   28  O   UNK N   1      24.561  20.909   2.175  0.00  0.00    -0.398 OA
HETATM   29  H   UNK N   1      24.804  21.837   2.027  0.00  0.00     0.209 HD
ENDBRANCH  27  28
ENDBRANCH  26  27
BRANCH  26  30
HETATM   30  O   UNK N   1      26.029  20.872   5.046  0.00  0.00    -0.392 OA
HETATM   31  H   UNK N   1      26.512  21.700   5.193  0.00  0.00     0.210 HD
ENDBRANCH  26  30
ENDBRANCH  25  26
ENDBRANCH  23  25
BRANCH  22  32
HETATM   32  O   UNK N   1      26.597  16.131   5.824  0.00  0.00    -0.346 OA
HETATM   33  H   UNK N   1      26.310  16.025   6.709  0.00  0.00     0.219 HD
ENDBRANCH  22  32
ENDBRANCH   2  22
BRANCH   6  34
HETATM   34  N   UNK N   1      31.631  14.338   4.315  0.00  0.00    -0.318 N 
HETATM   35  C   UNK N   1      31.282  12.936   4.290  0.00  0.00     0.159 C 
HETATM   36  C   UNK N   1      32.622  14.802   3.489  0.00  0.00     0.247 C 
HETATM   37  O   UNK N   1      32.911  15.988   3.466  0.00  0.00    -0.271 OA
BRANCH  36  38
HETATM   38  C   UNK N   1      33.358  13.866   2.575  0.00  0.00     0.267 C 
BRANCH  38  39
HETATM   39  O   UNK N   1      34.226  14.592   1.759  0.00  0.00    -0.392 OA
HETATM   40  H   UNK N   1      34.859  15.256   2.072  0.00  0.00     0.210 HD
ENDBRANCH  38  39
ENDBRANCH  36  38
ENDBRANCH   6  34
TORSDOF 17
ENDMDL
MODEL 2
REMARK VINA RESULT:      -6.3      6.717     10.388
REMARK  17 active torsions:
REMARK  status: ('A' for Active; 'I' for Inactive)
REMARK    1  A    between atoms: C_7  and  C_2 
REMARK    2  A    between atoms: N_21  and  C_2 
REMARK    3  A    between atoms: C_8  and  C_3 
REMARK    4  A    between atoms: N_23  and  C_3 
REMARK    5  A    between atoms: C_7  and  C_4 
REMARK    6  A    between atoms: O_26  and  C_4 
REMARK    7  A    between atoms: C_8  and  C_5 
REMARK    8  A    between atoms: O_27  and  C_5 
REMARK    9  A    between atoms: C_9  and  C_6 
REMARK   10  A    between atoms: O_28  and  C_6 
REMARK   11  A    between atoms: O_29  and  C_7 
REMARK   12  A    between atoms: O_30  and  C_8 
REMARK       I    between atoms: N_25  and  C_9 
REMARK   13  A    between atoms: C_16  and  C_10 
REMARK   14  A    between atoms: C_17  and  C_11 
REMARK   15  A    between atoms: N_25  and  C_15 
REMARK   16  A    between atoms: O_32  and  C_16 
REMARK   17  A    between atoms: O_33  and  C_17 
ROOT
HETATM    1  C   UNK N   1      22.215  16.357   6.096  0.00  0.00     0.051 A 
HETATM    2  C   UNK N   1      22.214  14.265   7.433  0.00  0.00     0.051 A 
HETATM    3  C   UNK N   1      21.648  15.545   7.134  0.00  0.00     0.038 A 
HETATM    4  C   UNK N   1      23.345  15.862   5.388  0.00  0.00     0.050 A 
HETATM    5  C   UNK N   1      23.244  13.751   6.603  0.00  0.00     0.050 A 
HETATM    6  C   UNK N   1      23.806  14.544   5.586  0.00  0.00     0.072 A 
HETATM    7  I   UNK N   1      19.979  16.302   8.283  0.00  0.00    -0.042 I 
HETATM    8  I   UNK N   1      24.638  17.164   4.260  0.00  0.00    -0.041 I 
HETATM    9  I   UNK N   1      23.914  11.695   6.798  0.00  0.00    -0.041 I 
ENDROOT
BRANCH   1  10
HETATM   10  C   UNK N   1      21.696  17.765   5.868  0.00  0.00     0.149 C 
HETATM   11  N   UNK N   1      20.886  18.109   4.912  0.00  0.00    -0.368 N 
ATOM     12  HN  UNK N   1      20.646  19.099   4.858  1.00  0.00     0.161 HD
BRANCH  11  13
HETATM   13  C   UNK N   1      20.286  17.248   3.919  0.00  0.00     0.155 C 
BRANCH  13  14
HETATM   14  C   UNK N   1      19.968  18.068   2.663  0.00  0.00     0.159 C 
BRANCH  14  15
HETATM   15  C   UNK N   1      20.836  19.307   2.505  0.00  0.00     0.197 C 
BRANCH  15  16
HETATM   16  O   UNK N   1      20.332  20.358   3.273  0.00  0.00    -0.398 OA
HETATM   17  H   UNK N   1      19.998  20.855   4.036  0.00  0.00     0.209 HD
ENDBRANCH  15  16
ENDBRANCH  14  15
BRANCH  14  18
HETATM   18  O   UNK N   1      18.615  18.404   2.620  0.00  0.00    -0.392 OA
HETATM   19  H   UNK N   1      17.937  17.990   2.063  0.00  0.00     0.210 HD
ENDBRANCH  14  18
ENDBRANCH  13  14
ENDBRANCH  11  13
BRANCH  10  20
HETATM   20  O   UNK N   1      22.064  18.728   6.733  0.00  0.00    -0.346 OA
HETATM   21  H   UNK N   1      21.951  19.656   6.683  0.00  0.00     0.219 HD
ENDBRANCH  10  20
ENDBRANCH   1  10
BRANCH   2  22
HETATM   22  C   UNK N   1      21.845  13.474   8.663  0.00  0.00     0.149 C 
HETATM   23  N   UNK N   1      22.561  13.474   9.743  0.00  0.00    -0.368 N 
ATOM     24  HN  UNK N   1      23.367  14.099   9.760  1.00  0.00     0.161 HD
BRANCH  23  25
HETATM   25  C   UNK N   1      22.328  12.662  10.944  0.00  0.00     0.155 C 
BRANCH  25  26
HETATM   26  C   UNK N   1      23.549  11.931  11.517  0.00  0.00     0.159 C 
BRANCH  26  27
HETATM   27  C   UNK N   1      24.787  12.108  10.664  0.00  0.00     0.197 C 
BRANCH  27  28
HETATM   28  O   UNK N   1      25.545  13.168  11.167  0.00  0.00    -0.398 OA
HETATM   29  H   UNK N   1      25.770  13.991  10.705  0.00  0.00     0.209 HD
ENDBRANCH  27  28
ENDBRANCH  26  27
BRANCH  26  30
HETATM   30  O   UNK N   1      23.796  12.352  12.825  0.00  0.00    -0.392 OA
HETATM   31  H   UNK N   1      24.535  12.677  13.363  0.00  0.00     0.210 HD
ENDBRANCH  26  30
ENDBRANCH  25  26
ENDBRANCH  23  25
BRANCH  22  32
HETATM   32  O   UNK N   1      20.789  12.646   8.561  0.00  0.00    -0.346 OA
HETATM   33  H   UNK N   1      20.538  11.985   9.176  0.00  0.00     0.219 HD
ENDBRANCH  22  32
ENDBRANCH   2  22
BRANCH   6  34
HETATM   34  N   UNK N   1      24.901  14.038   4.800  0.00  0.00    -0.318 N 
HETATM   35  C   UNK N   1      26.245  14.118   5.326  0.00  0.00     0.159 C 
HETATM   36  C   UNK N   1      24.691  13.496   3.559  0.00  0.00     0.247 C 
HETATM   37  O   UNK N   1      23.562  13.385   3.108  0.00  0.00    -0.271 OA
BRANCH  36  38
HETATM   38  C   UNK N   1      25.845  13.001   2.735  0.00  0.00     0.267 C 
BRANCH  38  39
HETATM   39  O   UNK N   1      26.225  13.984   1.821  0.00  0.00    -0.392 OA
HETATM   40  H   UNK N   1      26.190  13.891   0.856  0.00  0.00     0.210 HD
ENDBRANCH  38  39
ENDBRANCH  36  38
ENDBRANCH   6  34
TORSDOF 17
ENDMDL
MODEL 3
REMARK VINA RESULT:      -6.1      5.256      9.958
REMARK  17 active torsions:
REMARK  status: ('A' for Active; 'I' for Inactive)
REMARK    1  A    between atoms: C_7  and  C_2 
REMARK    2  A    between atoms: N_21  and  C_2 
REMARK    3  A    between atoms: C_8  and  C_3 
REMARK    4  A    between atoms: N_23  and  C_3 
REMARK    5  A    between atoms: C_7  and  C_4 
REMARK    6  A    between atoms: O_26  and  C_4 
REMARK    7  A    between atoms: C_8  and  C_5 
REMARK    8  A    between atoms: O_27  and  C_5 
REMARK    9  A    between atoms: C_9  and  C_6 
REMARK   10  A    between atoms: O_28  and  C_6 
REMARK   11  A    between atoms: O_29  and  C_7 
REMARK   12  A    between atoms: O_30  and  C_8 
REMARK       I    between atoms: N_25  and  C_9 
REMARK   13  A    between atoms: C_16  and  C_10 
REMARK   14  A    between atoms: C_17  and  C_11 
REMARK   15  A    between atoms: N_25  and  C_15 
REMARK   16  A    between atoms: O_32  and  C_16 
REMARK   17  A    between atoms: O_33  and  C_17 
ROOT
HETATM    1  C   UNK N   1      22.671  16.800   5.417  0.00  0.00     0.051 A 
HETATM    2  C   UNK N   1      23.549  14.607   6.185  0.00  0.00     0.051 A 
HETATM    3  C   UNK N   1      22.485  15.563   6.121  0.00  0.00     0.038 A 
HETATM    4  C   UNK N   1      23.929  17.048   4.801  0.00  0.00     0.050 A 
HETATM    5  C   UNK N   1      24.731  14.834   5.432  0.00  0.00     0.050 A 
HETATM    6  C   UNK N   1      24.919  16.046   4.743  0.00  0.00     0.072 A 
HETATM    7  I   UNK N   1      20.612  15.188   7.136  0.00  0.00    -0.042 I 
HETATM    8  I   UNK N   1      24.550  19.035   4.249  0.00  0.00    -0.041 I 
HETATM    9  I   UNK N   1      26.236  13.282   5.224  0.00  0.00    -0.041 I 
ENDROOT
BRANCH   1  10
HETATM   10  C   UNK N   1      21.589  17.864   5.460  0.00  0.00     0.149 C 
HETATM   11  N   UNK N   1      20.725  18.078   4.514  0.00  0.00    -0.368 N 
ATOM     12  HN  UNK N   1      20.075  18.851   4.662  1.00  0.00     0.161 HD
BRANCH  11  13
HETATM   13  C   UNK N   1      20.579  17.345   3.278  0.00  0.00     0.155 C 
BRANCH  13  14
HETATM   14  C   UNK N   1      19.918  18.248   2.228  0.00  0.00     0.159 C 
BRANCH  14  15
HETATM   15  C   UNK N   1      20.713  19.506   1.915  0.00  0.00     0.197 C 
BRANCH  15  16
HETATM   16  O   UNK N   1      20.653  19.795   0.551  0.00  0.00    -0.398 OA
HETATM   17  H   UNK N   1      20.908  20.117  -0.327  0.00  0.00     0.209 HD
ENDBRANCH  15  16
ENDBRANCH  14  15
BRANCH  14  18
HETATM   18  O   UNK N   1      18.613  18.569   2.604  0.00  0.00    -0.392 OA
HETATM   19  H   UNK N   1      17.809  18.085   2.359  0.00  0.00     0.210 HD
ENDBRANCH  14  18
ENDBRANCH  13  14
ENDBRANCH  11  13
BRANCH  10  20
HETATM   20  O   UNK N   1      21.484  18.622   6.567  0.00  0.00    -0.346 OA
HETATM   21  H   UNK N   1      21.928  19.413   6.797  0.00  0.00     0.219 HD
ENDBRANCH  10  20
ENDBRANCH   1  10
BRANCH   2  22
HETATM   22  C   UNK N   1      23.524  13.415   7.108  0.00  0.00     0.149 C 
HETATM   23  N   UNK N   1      24.039  13.433   8.297  0.00  0.00    -0.368 N 
ATOM     24  HN  UNK N   1      24.410  14.325   8.625  1.00  0.00     0.161 HD
BRANCH  23  25
HETATM   25  C   UNK N   1      24.144  12.296   9.220  0.00  0.00     0.155 C 
BRANCH  25  26
HETATM   26  C   UNK N   1      23.080  12.215  10.322  0.00  0.00     0.159 C 
BRANCH  26  27
HETATM   27  C   UNK N   1      23.677  11.955  11.689  0.00  0.00     0.197 C 
BRANCH  27  28
HETATM   28  O   UNK N   1      25.008  12.377  11.699  0.00  0.00    -0.398 OA
HETATM   29  H   UNK N   1      25.578  12.520  10.927  0.00  0.00     0.209 HD
ENDBRANCH  27  28
ENDBRANCH  26  27
BRANCH  26  30
HETATM   30  O   UNK N   1      22.312  13.380  10.342  0.00  0.00    -0.392 OA
HETATM   31  H   UNK N   1      21.434  13.675  10.630  0.00  0.00     0.210 HD
ENDBRANCH  26  30
ENDBRANCH  25  26
ENDBRANCH  23  25
BRANCH  22  32
HETATM   32  O   UNK N   1      23.050  12.262   6.603  0.00  0.00    -0.346 OA
HETATM   33  H   UNK N   1      22.494  11.648   7.040  0.00  0.00     0.219 HD
ENDBRANCH  22  32
ENDBRANCH   2  22
BRANCH   6  34
HETATM   34  N   UNK N   1      26.153  16.292   4.045  0.00  0.00    -0.318 N 
HETATM   35  C   UNK N   1      26.219  16.058   2.620  0.00  0.00     0.159 C 
HETATM   36  C   UNK N   1      27.269  16.731   4.710  0.00  0.00     0.247 C 
HETATM   37  O   UNK N   1      27.229  16.971   5.906  0.00  0.00    -0.271 OA
BRANCH  36  38
HETATM   38  C   UNK N   1      28.560  16.953   3.975  0.00  0.00     0.267 C 
BRANCH  38  39
HETATM   39  O   UNK N   1      28.751  18.319   3.763  0.00  0.00    -0.392 OA
HETATM   40  H   UNK N   1      28.040  18.967   3.635  0.00  0.00     0.210 HD
ENDBRANCH  38  39
ENDBRANCH  36  38
ENDBRANCH   6  34
TORSDOF 17
ENDMDL
MODEL 4
REMARK VINA RESULT:      -6.0      4.787      7.413
REMARK  17 active torsions:
REMARK  status: ('A' for Active; 'I' for Inactive)
REMARK    1  A    between atoms: C_7  and  C_2 
REMARK    2  A    between atoms: N_21  and  C_2 
REMARK    3  A    between atoms: C_8  and  C_3 
REMARK    4  A    between atoms: N_23  and  C_3 
REMARK    5  A    between atoms: C_7  and  C_4 
REMARK    6  A    between atoms: O_26  and  C_4 
REMARK    7  A    between atoms: C_8  and  C_5 
REMARK    8  A    between atoms: O_27  and  C_5 
REMARK    9  A    between atoms: C_9  and  C_6 
REMARK   10  A    between atoms: O_28  and  C_6 
REMARK   11  A    between atoms: O_29  and  C_7 
REMARK   12  A    between atoms: O_30  and  C_8 
REMARK       I    between atoms: N_25  and  C_9 
REMARK   13  A    between atoms: C_16  and  C_10 
REMARK   14  A    between atoms: C_17  and  C_11 
REMARK   15  A    between atoms: N_25  and  C_15 
REMARK   16  A    between atoms: O_32  and  C_16 
REMARK   17  A    between atoms: O_33  and  C_17 
ROOT
HETATM    1  C   UNK N   1      24.084  14.333   6.230  0.00  0.00     0.051 A 
HETATM    2  C   UNK N   1      23.441  16.654   5.623  0.00  0.00     0.051 A 
HETATM    3  C   UNK N   1      23.135  15.409   6.260  0.00  0.00     0.038 A 
HETATM    4  C   UNK N   1      25.317  14.534   5.550  0.00  0.00     0.050 A 
HETATM    5  C   UNK N   1      24.741  16.857   5.088  0.00  0.00     0.050 A 
HETATM    6  C   UNK N   1      25.673  15.804   5.052  0.00  0.00     0.072 A 
HETATM    7  I   UNK N   1      21.218  15.110   7.217  0.00  0.00    -0.042 I 
HETATM    8  I   UNK N   1      26.544  12.883   4.914  0.00  0.00    -0.041 I 
HETATM    9  I   UNK N   1      25.373  18.820   4.407  0.00  0.00    -0.041 I 
ENDROOT
BRANCH   1  10
HETATM   10  C   UNK N   1      23.705  12.975   6.793  0.00  0.00     0.149 C 
HETATM   11  N   UNK N   1      24.023  12.551   7.979  0.00  0.00    -0.368 N 
ATOM     12  HN  UNK N   1      23.732  11.602   8.214  1.00  0.00     0.161 HD
BRANCH  11  13
HETATM   13  C   UNK N   1      24.743  13.273   9.003  0.00  0.00     0.155 C 
BRANCH  13  14
HETATM   14  C   UNK N   1      24.672  12.489  10.320  0.00  0.00     0.159 C 
BRANCH  14  15
HETATM   15  C   UNK N   1      23.263  12.359  10.879  0.00  0.00     0.197 C 
BRANCH  15  16
HETATM   16  O   UNK N   1      22.719  11.117  10.549  0.00  0.00    -0.398 OA
HETATM   17  H   UNK N   1      22.429  10.357  10.021  0.00  0.00     0.209 HD
ENDBRANCH  15  16
ENDBRANCH  14  15
BRANCH  14  18
HETATM   18  O   UNK N   1      25.531  13.040  11.271  0.00  0.00    -0.392 OA
HETATM   19  H   UNK N   1      25.433  13.904  11.702  0.00  0.00     0.210 HD
ENDBRANCH  14  18
ENDBRANCH  13  14
ENDBRANCH  11  13
BRANCH  10  20
HETATM   20  O   UNK N   1      22.954  12.157   6.033  0.00  0.00    -0.346 OA
HETATM   21  H   UNK N   1      23.153  11.312   5.682  0.00  0.00     0.219 HD
ENDBRANCH  10  20
ENDBRANCH   1  10
BRANCH   2  22
HETATM   22  C   UNK N   1      22.411  17.730   5.390  0.00  0.00     0.149 C 
HETATM   23  N   UNK N   1      21.848  17.930   4.241  0.00  0.00    -0.368 N 
ATOM     24  HN  UNK N   1      22.077  17.272   3.496  1.00  0.00     0.161 HD
BRANCH  23  25
HETATM   25  C   UNK N   1      20.912  19.010   3.904  0.00  0.00     0.155 C 
BRANCH  25  26
HETATM   26  C   UNK N   1      21.377  20.002   2.831  0.00  0.00     0.159 C 
BRANCH  26  27
HETATM   27  C   UNK N   1      20.782  19.710   1.469  0.00  0.00     0.197 C 
BRANCH  27  28
HETATM   28  O   UNK N   1      21.334  20.581   0.528  0.00  0.00    -0.398 OA
HETATM   29  H   UNK N   1      21.592  21.505   0.673  0.00  0.00     0.209 HD
ENDBRANCH  27  28
ENDBRANCH  26  27
BRANCH  26  30
HETATM   30  O   UNK N   1      21.081  21.310   3.219  0.00  0.00    -0.392 OA
HETATM   31  H   UNK N   1      21.502  22.050   3.683  0.00  0.00     0.210 HD
ENDBRANCH  26  30
ENDBRANCH  25  26
ENDBRANCH  23  25
BRANCH  22  32
HETATM   32  O   UNK N   1      22.179  18.582   6.405  0.00  0.00    -0.346 OA
HETATM   33  H   UNK N   1      22.233  19.517   6.372  0.00  0.00     0.219 HD
ENDBRANCH  22  32
ENDBRANCH   2  22
BRANCH   6  34
HETATM   34  N   UNK N   1      26.960  16.003   4.439  0.00  0.00    -0.318 N 
HETATM   35  C   UNK N   1      27.095  15.843   3.009  0.00  0.00     0.159 C 
HETATM   36  C   UNK N   1      28.060  16.327   5.190  0.00  0.00     0.247 C 
HETATM   37  O   UNK N   1      27.965  16.502   6.395  0.00  0.00    -0.271 OA
BRANCH  36  38
HETATM   38  C   UNK N   1      29.404  16.499   4.544  0.00  0.00     0.267 C 
BRANCH  38  39
HETATM   39  O   UNK N   1      30.375  16.702   5.525  0.00  0.00    -0.392 OA
HETATM   40  H   UNK N   1      30.560  17.549   5.959  0.00  0.00     0.210 HD
ENDBRANCH  38  39
ENDBRANCH  36  38
ENDBRANCH   6  34
TORSDOF 17
ENDMDL
MODEL 5
REMARK VINA RESULT:      -6.0      3.810      5.536
REMARK  17 active torsions:
REMARK  status: ('A' for Active; 'I' for Inactive)
REMARK    1  A    between atoms: C_7  and  C_2 
REMARK    2  A    between atoms: N_21  and  C_2 
REMARK    3  A    between atoms: C_8  and  C_3 
REMARK    4  A    between atoms: N_23  and  C_3 
REMARK    5  A    between atoms: C_7  and  C_4 
REMARK    6  A    between atoms: O_26  and  C_4 
REMARK    7  A    between atoms: C_8  and  C_5 
REMARK    8  A    between atoms: O_27  and  C_5 
REMARK    9  A    between atoms: C_9  and  C_6 
REMARK   10  A    between atoms: O_28  and  C_6 
REMARK   11  A    between atoms: O_29  and  C_7 
REMARK   12  A    between atoms: O_30  and  C_8 
REMARK       I    between atoms: N_25  and  C_9 
REMARK   13  A    between atoms: C_16  and  C_10 
REMARK   14  A    between atoms: C_17  and  C_11 
REMARK   15  A    between atoms: N_25  and  C_15 
REMARK   16  A    between atoms: O_32  and  C_16 
REMARK   17  A    between atoms: O_33  and  C_17 
ROOT
HETATM    1  C   UNK N   1      27.594  16.990   4.503  0.00  0.00     0.051 A 
HETATM    2  C   UNK N   1      25.150  17.245   4.148  0.00  0.00     0.051 A 
HETATM    3  C   UNK N   1      26.423  17.818   4.467  0.00  0.00     0.038 A 
HETATM    4  C   UNK N   1      27.455  15.603   4.225  0.00  0.00     0.050 A 
HETATM    5  C   UNK N   1      25.084  15.889   3.733  0.00  0.00     0.050 A 
HETATM    6  C   UNK N   1      26.229  15.073   3.771  0.00  0.00     0.072 A 
HETATM    7  I   UNK N   1      26.588  19.917   4.963  0.00  0.00    -0.042 I 
HETATM    8  I   UNK N   1      28.952  14.171   4.812  0.00  0.00    -0.041 I 
HETATM    9  I   UNK N   1      23.248  15.057   2.926  0.00  0.00    -0.041 I 
ENDROOT
BRANCH   1  10
HETATM   10  C   UNK N   1      28.918  17.573   4.967  0.00  0.00     0.149 C 
HETATM   11  N   UNK N   1      29.280  17.689   6.209  0.00  0.00    -0.368 N 
ATOM     12  HN  UNK N   1      30.183  18.132   6.377  1.00  0.00     0.161 HD
BRANCH  11  13
HETATM   13  C   UNK N   1      28.547  17.261   7.379  0.00  0.00     0.155 C 
BRANCH  13  14
HETATM   14  C   UNK N   1      28.602  18.365   8.443  0.00  0.00     0.159 C 
BRANCH  14  15
HETATM   15  C   UNK N   1      29.941  18.461   9.157  0.00  0.00     0.197 C 
BRANCH  15  16
HETATM   16  O   UNK N   1      29.763  18.867  10.479  0.00  0.00    -0.398 OA
HETATM   17  H   UNK N   1      29.423  18.904  11.387  0.00  0.00     0.209 HD
ENDBRANCH  15  16
ENDBRANCH  14  15
BRANCH  14  18
HETATM   18  O   UNK N   1      27.562  18.220   9.362  0.00  0.00    -0.392 OA
HETATM   19  H   UNK N   1      27.585  17.695  10.177  0.00  0.00     0.210 HD
ENDBRANCH  14  18
ENDBRANCH  13  14
ENDBRANCH  11  13
BRANCH  10  20
HETATM   20  O   UNK N   1      29.803  17.967   4.033  0.00  0.00    -0.346 OA
HETATM   21  H   UNK N   1      30.388  17.458   3.508  0.00  0.00     0.219 HD
ENDBRANCH  10  20
ENDBRANCH   1  10
BRANCH   2  22
HETATM   22  C   UNK N   1      23.850  17.984   4.339  0.00  0.00     0.149 C 
HETATM   23  N   UNK N   1      23.306  18.706   3.410  0.00  0.00    -0.368 N 
ATOM     24  HN  UNK N   1      23.762  18.701   2.498  1.00  0.00     0.161 HD
BRANCH  23  25
HETATM   25  C   UNK N   1      22.098  19.531   3.541  0.00  0.00     0.155 C 
BRANCH  25  26
HETATM   26  C   UNK N   1      21.748  20.419   2.340  0.00  0.00     0.159 C 
BRANCH  26  27
HETATM   27  C   UNK N   1      20.591  19.873   1.530  0.00  0.00     0.197 C 
BRANCH  27  28
HETATM   28  O   UNK N   1      20.769  20.210   0.187  0.00  0.00    -0.398 OA
HETATM   29  H   UNK N   1      20.966  19.602  -0.543  0.00  0.00     0.209 HD
ENDBRANCH  27  28
ENDBRANCH  26  27
BRANCH  26  30
HETATM   30  O   UNK N   1      21.473  21.720   2.763  0.00  0.00    -0.392 OA
HETATM   31  H   UNK N   1      21.152  22.182   3.554  0.00  0.00     0.210 HD
ENDBRANCH  26  30
ENDBRANCH  25  26
ENDBRANCH  23  25
BRANCH  22  32
HETATM   32  O   UNK N   1      23.318  17.974   5.575  0.00  0.00    -0.346 OA
HETATM   33  H   UNK N   1      23.775  18.117   6.380  0.00  0.00     0.219 HD
ENDBRANCH  22  32
ENDBRANCH   2  22
BRANCH   6  34
HETATM   34  N   UNK N   1      26.132  13.681   3.418  0.00  0.00    -0.318 N 
HETATM   35  C   UNK N   1      26.517  13.259   2.090  0.00  0.00     0.159 C 
HETATM   36  C   UNK N   1      25.669  12.753   4.314  0.00  0.00     0.247 C 
HETATM   37  O   UNK N   1      25.371  13.079   5.453  0.00  0.00    -0.271 OA
BRANCH  36  38
HETATM   38  C   UNK N   1      25.542  11.309   3.924  0.00  0.00     0.267 C 
BRANCH  38  39
HETATM   39  O   UNK N   1      25.587  10.508   5.066  0.00  0.00    -0.392 OA
HETATM   40  H   UNK N   1      26.394  10.135   5.453  0.00  0.00     0.210 HD
ENDBRANCH  38  39
ENDBRANCH  36  38
ENDBRANCH   6  34
TORSDOF 17
ENDMDL
MODEL 6
REMARK VINA RESULT:      -5.8      1.967      7.218
REMARK  17 active torsions:
REMARK  status: ('A' for Active; 'I' for Inactive)
REMARK    1  A    between atoms: C_7  and  C_2 
REMARK    2  A    between atoms: N_21  and  C_2 
REMARK    3  A    between atoms: C_8  and  C_3 
REMARK    4  A    between atoms: N_23  and  C_3 
REMARK    5  A    between atoms: C_7  and  C_4 
REMARK    6  A    between atoms: O_26  and  C_4 
REMARK    7  A    between atoms: C_8  and  C_5 
REMARK    8  A    between atoms: O_27  and  C_5 
REMARK    9  A    between atoms: C_9  and  C_6 
REMARK   10  A    between atoms: O_28  and  C_6 
REMARK   11  A    between atoms: O_29  and  C_7 
REMARK   12  A    between atoms: O_30  and  C_8 
REMARK       I    between atoms: N_25  and  C_9 
REMARK   13  A    between atoms: C_16  and  C_10 
REMARK   14  A    between atoms: C_17  and  C_11 
REMARK   15  A    between atoms: N_25  and  C_15 
REMARK   16  A    between atoms: O_32  and  C_16 
REMARK   17  A    between atoms: O_33  and  C_17 
ROOT
HETATM    1  C   UNK N   1      29.398  16.658   6.645  0.00  0.00     0.051 A 
HETATM    2  C   UNK N   1      31.803  16.592   7.261  0.00  0.00     0.051 A 
HETATM    3  C   UNK N   1      30.466  17.028   7.529  0.00  0.00     0.038 A 
HETATM    4  C   UNK N   1      29.704  15.863   5.506  0.00  0.00     0.050 A 
HETATM    5  C   UNK N   1      32.034  15.679   6.198  0.00  0.00     0.050 A 
HETATM    6  C   UNK N   1      30.991  15.316   5.326  0.00  0.00     0.072 A 
HETATM    7  I   UNK N   1      30.048  18.302   9.227  0.00  0.00    -0.042 I 
HETATM    8  I   UNK N   1      28.372  15.738   3.818  0.00  0.00    -0.041 I 
HETATM    9  I   UNK N   1      33.970  14.728   5.945  0.00  0.00    -0.041 I 
ENDROOT
BRANCH   1  10
HETATM   10  C   UNK N   1      28.007  17.229   6.859  0.00  0.00     0.149 C 
HETATM   11  N   UNK N   1      27.610  18.389   6.430  0.00  0.00    -0.368 N 
ATOM     12  HN  UNK N   1      26.658  18.660   6.677  1.00  0.00     0.161 HD
BRANCH  11  13
HETATM   13  C   UNK N   1      28.364  19.338   5.644  0.00  0.00     0.155 C 
BRANCH  13  14
HETATM   14  C   UNK N   1      27.393  20.223   4.850  0.00  0.00     0.159 C 
BRANCH  14  15
HETATM   15  C   UNK N   1      25.962  20.170   5.361  0.00  0.00     0.197 C 
BRANCH  15  16
HETATM   16  O   UNK N   1      25.898  20.601   6.686  0.00  0.00    -0.398 OA
HETATM   17  H   UNK N   1      26.133  20.729   7.618  0.00  0.00     0.209 HD
ENDBRANCH  15  16
ENDBRANCH  14  15
BRANCH  14  18
HETATM   18  O   UNK N   1      27.444  19.917   3.490  0.00  0.00    -0.392 OA
HETATM   19  H   UNK N   1      27.849  19.131   3.093  0.00  0.00     0.210 HD
ENDBRANCH  14  18
ENDBRANCH  13  14
ENDBRANCH  11  13
BRANCH  10  20
HETATM   20  O   UNK N   1      27.101  16.473   7.505  0.00  0.00    -0.346 OA
HETATM   21  H   UNK N   1      26.197  16.639   7.681  0.00  0.00     0.219 HD
ENDBRANCH  10  20
ENDBRANCH   1  10
BRANCH   2  22
HETATM   22  C   UNK N   1      33.004  17.142   7.986  0.00  0.00     0.149 C 
HETATM   23  N   UNK N   1      33.509  16.584   9.041  0.00  0.00    -0.368 N 
ATOM     24  HN  UNK N   1      33.099  15.696   9.332  1.00  0.00     0.161 HD
BRANCH  23  25
HETATM   25  C   UNK N   1      34.612  17.102   9.860  0.00  0.00     0.155 C 
BRANCH  25  26
HETATM   26  C   UNK N   1      35.224  16.125  10.872  0.00  0.00     0.159 C 
BRANCH  26  27
HETATM   27  C   UNK N   1      34.777  14.696  10.646  0.00  0.00     0.197 C 
BRANCH  27  28
HETATM   28  O   UNK N   1      34.096  14.241  11.777  0.00  0.00    -0.398 OA
HETATM   29  H   UNK N   1      33.575  14.776  12.396  0.00  0.00     0.209 HD
ENDBRANCH  27  28
ENDBRANCH  26  27
BRANCH  26  30
HETATM   30  O   UNK N   1      36.617  16.207  10.845  0.00  0.00    -0.392 OA
HETATM   31  H   UNK N   1      37.366  16.166  11.459  0.00  0.00     0.210 HD
ENDBRANCH  26  30
ENDBRANCH  25  26
ENDBRANCH  23  25
BRANCH  22  32
HETATM   32  O   UNK N   1      33.476  18.332   7.570  0.00  0.00    -0.346 OA
HETATM   33  H   UNK N   1      32.970  19.046   7.237  0.00  0.00     0.219 HD
ENDBRANCH  22  32
ENDBRANCH   2  22
BRANCH   6  34
HETATM   34  N   UNK N   1      31.256  14.449   4.209  0.00  0.00    -0.318 N 
HETATM   35  C   UNK N   1      31.805  15.007   2.994  0.00  0.00     0.159 C 
HETATM   36  C   UNK N   1      30.984  13.107   4.273  0.00  0.00     0.247 C 
HETATM   37  O   UNK N   1      30.553  12.605   5.300  0.00  0.00    -0.271 OA
BRANCH  36  38
HETATM   38  C   UNK N   1      31.234  12.217   3.090  0.00  0.00     0.267 C 
BRANCH  38  39
HETATM   39  O   UNK N   1      32.452  11.556   3.248  0.00  0.00    -0.392 OA
HETATM   40  H   UNK N   1      33.297  11.847   2.871  0.00  0.00     0.210 HD
ENDBRANCH  38  39
ENDBRANCH  36  38
ENDBRANCH   6  34
TORSDOF 17
ENDMDL
MODEL 7
REMARK VINA RESULT:      -5.6      5.493      8.621
REMARK  17 active torsions:
REMARK  status: ('A' for Active; 'I' for Inactive)
REMARK    1  A    between atoms: C_7  and  C_2 
REMARK    2  A    between atoms: N_21  and  C_2 
REMARK    3  A    between atoms: C_8  and  C_3 
REMARK    4  A    between atoms: N_23  and  C_3 
REMARK    5  A    between atoms: C_7  and  C_4 
REMARK    6  A    between atoms: O_26  and  C_4 
REMARK    7  A    between atoms: C_8  and  C_5 
REMARK    8  A    between atoms: O_27  and  C_5 
REMARK    9  A    between atoms: C_9  and  C_6 
REMARK   10  A    between atoms: O_28  and  C_6 
REMARK   11  A    between atoms: O_29  and  C_7 
REMARK   12  A    between atoms: O_30  and  C_8 
REMARK       I    between atoms: N_25  and  C_9 
REMARK   13  A    between atoms: C_16  and  C_10 
REMARK   14  A    between atoms: C_17  and  C_11 
REMARK   15  A    between atoms: N_25  and  C_15 
REMARK   16  A    between atoms: O_32  and  C_16 
REMARK   17  A    between atoms: O_33  and  C_17 
ROOT
HETATM    1  C   UNK N   1      22.531  14.570   5.839  0.00  0.00     0.051 A 
HETATM    2  C   UNK N   1      22.447  16.726   4.609  0.00  0.00     0.051 A 
HETATM    3  C   UNK N   1      21.774  15.647   5.267  0.00  0.00     0.038 A 
HETATM    4  C   UNK N   1      23.949  14.602   5.728  0.00  0.00     0.050 A 
HETATM    5  C   UNK N   1      23.864  16.789   4.654  0.00  0.00     0.050 A 
HETATM    6  C   UNK N   1      24.611  15.735   5.210  0.00  0.00     0.072 A 
HETATM    7  I   UNK N   1      19.613  15.589   5.349  0.00  0.00    -0.042 I 
HETATM    8  I   UNK N   1      25.148  12.833   5.986  0.00  0.00    -0.041 I 
HETATM    9  I   UNK N   1      24.925  18.556   3.967  0.00  0.00    -0.041 I 
ENDROOT
BRANCH   1  10
HETATM   10  C   UNK N   1      21.812  13.366   6.420  0.00  0.00     0.149 C 
HETATM   11  N   UNK N   1      21.669  13.133   7.690  0.00  0.00    -0.368 N 
ATOM     12  HN  UNK N   1      21.193  12.265   7.939  1.00  0.00     0.161 HD
BRANCH  11  13
HETATM   13  C   UNK N   1      22.107  13.963   8.789  0.00  0.00     0.155 C 
BRANCH  13  14
HETATM   14  C   UNK N   1      21.359  13.552  10.064  0.00  0.00     0.159 C 
BRANCH  14  15
HETATM   15  C   UNK N   1      22.024  12.415  10.823  0.00  0.00     0.197 C 
BRANCH  15  16
HETATM   16  O   UNK N   1      22.585  11.495   9.937  0.00  0.00    -0.398 OA
HETATM   17  H   UNK N   1      23.096  11.134   9.195  0.00  0.00     0.209 HD
ENDBRANCH  15  16
ENDBRANCH  14  15
BRANCH  14  18
HETATM   18  O   UNK N   1      20.028  13.243   9.779  0.00  0.00    -0.392 OA
HETATM   19  H   UNK N   1      19.583  13.352   8.924  0.00  0.00     0.210 HD
ENDBRANCH  14  18
ENDBRANCH  13  14
ENDBRANCH  11  13
BRANCH  10  20
HETATM   20  O   UNK N   1      21.246  12.490   5.570  0.00  0.00    -0.346 OA
HETATM   21  H   UNK N   1      21.317  12.425   4.639  0.00  0.00     0.219 HD
ENDBRANCH  10  20
ENDBRANCH   1  10
BRANCH   2  22
HETATM   22  C   UNK N   1      21.726  17.749   3.769  0.00  0.00     0.149 C 
HETATM   23  N   UNK N   1      21.436  18.937   4.199  0.00  0.00    -0.368 N 
ATOM     24  HN  UNK N   1      21.785  19.189   5.124  1.00  0.00     0.161 HD
BRANCH  23  25
HETATM   25  C   UNK N   1      20.657  19.957   3.486  0.00  0.00     0.155 C 
BRANCH  25  26
HETATM   26  C   UNK N   1      21.361  20.656   2.316  0.00  0.00     0.159 C 
BRANCH  26  27
HETATM   27  C   UNK N   1      20.392  21.126   1.251  0.00  0.00     0.197 C 
BRANCH  27  28
HETATM   28  O   UNK N   1      20.751  20.568   0.022  0.00  0.00    -0.398 OA
HETATM   29  H   UNK N   1      21.459  20.870  -0.568  0.00  0.00     0.209 HD
ENDBRANCH  27  28
ENDBRANCH  26  27
BRANCH  26  30
HETATM   30  O   UNK N   1      22.127  21.727   2.781  0.00  0.00    -0.392 OA
HETATM   31  H   UNK N   1      22.243  22.674   2.610  0.00  0.00     0.210 HD
ENDBRANCH  26  30
ENDBRANCH  25  26
ENDBRANCH  23  25
BRANCH  22  32
HETATM   32  O   UNK N   1      21.266  17.342   2.572  0.00  0.00    -0.346 OA
HETATM   33  H   UNK N   1      21.769  16.948   1.887  0.00  0.00     0.219 HD
ENDBRANCH  22  32
ENDBRANCH   2  22
BRANCH   6  34
HETATM   34  N   UNK N   1      26.049  15.778   5.181  0.00  0.00    -0.318 N 
HETATM   35  C   UNK N   1      26.768  16.204   6.360  0.00  0.00     0.159 C 
HETATM   36  C   UNK N   1      26.747  15.435   4.052  0.00  0.00     0.247 C 
HETATM   37  O   UNK N   1      26.164  15.037   3.055  0.00  0.00    -0.271 OA
BRANCH  36  38
HETATM   38  C   UNK N   1      28.246  15.515   4.024  0.00  0.00     0.267 C 
BRANCH  38  39
HETATM   39  O   UNK N   1      28.685  15.641   2.706  0.00  0.00    -0.392 OA
HETATM   40  H   UNK N   1      28.112  15.614   1.923  0.00  0.00     0.210 HD
ENDBRANCH  38  39
ENDBRANCH  36  38
ENDBRANCH   6  34
TORSDOF 17
ENDMDL
MODEL 8
REMARK VINA RESULT:      -5.5      1.643      2.176
REMARK  17 active torsions:
REMARK  status: ('A' for Active; 'I' for Inactive)
REMARK    1  A    between atoms: C_7  and  C_2 
REMARK    2  A    between atoms: N_21  and  C_2 
REMARK    3  A    between atoms: C_8  and  C_3 
REMARK    4  A    between atoms: N_23  and  C_3 
REMARK    5  A    between atoms: C_7  and  C_4 
REMARK    6  A    between atoms: O_26  and  C_4 
REMARK    7  A    between atoms: C_8  and  C_5 
REMARK    8  A    between atoms: O_27  and  C_5 
REMARK    9  A    between atoms: C_9  and  C_6 
REMARK   10  A    between atoms: O_28  and  C_6 
REMARK   11  A    between atoms: O_29  and  C_7 
REMARK   12  A    between atoms: O_30  and  C_8 
REMARK       I    between atoms: N_25  and  C_9 
REMARK   13  A    between atoms: C_16  and  C_10 
REMARK   14  A    between atoms: C_17  and  C_11 
REMARK   15  A    between atoms: N_25  and  C_15 
REMARK   16  A    between atoms: O_32  and  C_16 
REMARK   17  A    between atoms: O_33  and  C_17 
ROOT
HETATM    1  C   UNK N   1      32.127  14.719   7.240  0.00  0.00     0.051 A 
HETATM    2  C   UNK N   1      30.439  15.962   5.908  0.00  0.00     0.051 A 
HETATM    3  C   UNK N   1      31.115  15.733   7.149  0.00  0.00     0.038 A 
HETATM    4  C   UNK N   1      32.428  13.954   6.079  0.00  0.00     0.050 A 
HETATM    5  C   UNK N   1      30.876  15.278   4.744  0.00  0.00     0.050 A 
HETATM    6  C   UNK N   1      31.865  14.281   4.828  0.00  0.00     0.072 A 
HETATM    7  I   UNK N   1      30.577  16.860   8.915  0.00  0.00    -0.042 I 
HETATM    8  I   UNK N   1      33.447  12.061   6.200  0.00  0.00    -0.041 I 
HETATM    9  I   UNK N   1      30.119  15.817   2.781  0.00  0.00    -0.041 I 
ENDROOT
BRANCH   1  10
HETATM   10  C   UNK N   1      32.750  14.391   8.585  0.00  0.00     0.149 C 
HETATM   11  N   UNK N   1      33.863  14.894   9.027  0.00  0.00    -0.368 N 
ATOM     12  HN  UNK N   1      34.182  14.557   9.936  1.00  0.00     0.161 HD
BRANCH  11  13
HETATM   13  C   UNK N   1      34.699  15.877   8.377  0.00  0.00     0.155 C 
BRANCH  13  14
HETATM   14  C   UNK N   1      34.537  17.228   9.085  0.00  0.00     0.159 C 
BRANCH  14  15
HETATM   15  C   UNK N   1      34.530  18.419   8.138  0.00  0.00     0.197 C 
BRANCH  15  16
HETATM   16  O   UNK N   1      35.402  19.409   8.591  0.00  0.00    -0.398 OA
HETATM   17  H   UNK N   1      35.770  20.286   8.782  0.00  0.00     0.209 HD
ENDBRANCH  15  16
ENDBRANCH  14  15
BRANCH  14  18
HETATM   18  O   UNK N   1      35.508  17.390  10.073  0.00  0.00    -0.392 OA
HETATM   19  H   UNK N   1      36.250  18.015  10.054  0.00  0.00     0.210 HD
ENDBRANCH  14  18
ENDBRANCH  13  14
ENDBRANCH  11  13
BRANCH  10  20
HETATM   20  O   UNK N   1      32.093  13.549   9.403  0.00  0.00    -0.346 OA
HETATM   21  H   UNK N   1      32.214  13.382  10.316  0.00  0.00     0.219 HD
ENDBRANCH  10  20
ENDBRANCH   1  10
BRANCH   2  22
HETATM   22  C   UNK N   1      29.202  16.817   5.796  0.00  0.00     0.149 C 
HETATM   23  N   UNK N   1      29.240  18.073   5.481  0.00  0.00    -0.368 N 
ATOM     24  HN  UNK N   1      30.152  18.459   5.235  1.00  0.00     0.161 HD
BRANCH  23  25
HETATM   25  C   UNK N   1      28.100  18.998   5.442  0.00  0.00     0.155 C 
BRANCH  25  26
HETATM   26  C   UNK N   1      27.246  18.972   4.168  0.00  0.00     0.159 C 
BRANCH  26  27
HETATM   27  C   UNK N   1      25.779  18.731   4.456  0.00  0.00     0.197 C 
BRANCH  27  28
HETATM   28  O   UNK N   1      25.658  17.908   5.579  0.00  0.00    -0.398 OA
HETATM   29  H   UNK N   1      25.068  18.044   6.337  0.00  0.00     0.209 HD
ENDBRANCH  27  28
ENDBRANCH  26  27
BRANCH  26  30
HETATM   30  O   UNK N   1      27.411  20.157   3.449  0.00  0.00    -0.392 OA
HETATM   31  H   UNK N   1      27.285  21.111   3.569  0.00  0.00     0.210 HD
ENDBRANCH  26  30
ENDBRANCH  25  26
ENDBRANCH  23  25
BRANCH  22  32
HETATM   32  O   UNK N   1      28.036  16.255   6.164  0.00  0.00    -0.346 OA
HETATM   33  H   UNK N   1      27.433  15.805   5.606  0.00  0.00     0.219 HD
ENDBRANCH  22  32
ENDBRANCH   2  22
BRANCH   6  34
HETATM   34  N   UNK N   1      32.246  13.543   3.652  0.00  0.00    -0.318 N 
HETATM   35  C   UNK N   1      31.464  12.396   3.251  0.00  0.00     0.159 C 
HETATM   36  C   UNK N   1      33.345  13.902   2.916  0.00  0.00     0.247 C 
HETATM   37  O   UNK N   1      34.002  14.888   3.213  0.00  0.00    -0.271 OA
BRANCH  36  38
HETATM   38  C   UNK N   1      33.752  13.106   1.710  0.00  0.00     0.267 C 
BRANCH  38  39
HETATM   39  O   UNK N   1      34.843  12.296   2.027  0.00  0.00    -0.392 OA
HETATM   40  H   UNK N   1      34.964  11.830   2.870  0.00  0.00     0.210 HD
ENDBRANCH  38  39
ENDBRANCH  36  38
ENDBRANCH   6  34
TORSDOF 17
ENDMDL
MODEL 9
REMARK VINA RESULT:      -5.5      3.835      8.331
REMARK  17 active torsions:
REMARK  status: ('A' for Active; 'I' for Inactive)
REMARK    1  A    between atoms: C_7  and  C_2 
REMARK    2  A    between atoms: N_21  and  C_2 
REMARK    3  A    between atoms: C_8  and  C_3 
REMARK    4  A    between atoms: N_23  and  C_3 
REMARK    5  A    between atoms: C_7  and  C_4 
REMARK    6  A    between atoms: O_26  and  C_4 
REMARK    7  A    between atoms: C_8  and  C_5 
REMARK    8  A    between atoms: O_27  and  C_5 
REMARK    9  A    between atoms: C_9  and  C_6 
REMARK   10  A    between atoms: O_28  and  C_6 
REMARK   11  A    between atoms: O_29  and  C_7 
REMARK   12  A    between atoms: O_30  and  C_8 
REMARK       I    between atoms: N_25  and  C_9 
REMARK   13  A    between atoms: C_16  and  C_10 
REMARK   14  A    between atoms: C_17  and  C_11 
REMARK   15  A    between atoms: N_25  and  C_15 
REMARK   16  A    between atoms: O_32  and  C_16 
REMARK   17  A    between atoms: O_33  and  C_17 
ROOT
HETATM    1  C   UNK N   1      33.759  16.226   7.601  0.00  0.00     0.051 A 
HETATM    2  C   UNK N   1      35.078  14.199   8.165  0.00  0.00     0.051 A 
HETATM    3  C   UNK N   1      34.561  15.483   8.531  0.00  0.00     0.038 A 
HETATM    4  C   UNK N   1      33.504  15.661   6.321  0.00  0.00     0.050 A 
HETATM    5  C   UNK N   1      34.675  13.613   6.937  0.00  0.00     0.050 A 
HETATM    6  C   UNK N   1      33.892  14.339   6.021  0.00  0.00     0.072 A 
HETATM    7  I   UNK N   1      35.034  16.348  10.456  0.00  0.00    -0.042 I 
HETATM    8  I   UNK N   1      32.855  16.865   4.658  0.00  0.00    -0.041 I 
HETATM    9  I   UNK N   1      35.155  11.547   6.475  0.00  0.00    -0.041 I 
ENDROOT
BRANCH   1  10
HETATM   10  C   UNK N   1      33.321  17.639   7.942  0.00  0.00     0.149 C 
HETATM   11  N   UNK N   1      32.138  17.963   8.371  0.00  0.00    -0.368 N 
ATOM     12  HN  UNK N   1      31.970  18.957   8.527  1.00  0.00     0.161 HD
BRANCH  11  13
HETATM   13  C   UNK N   1      31.033  17.074   8.651  0.00  0.00     0.155 C 
BRANCH  13  14
HETATM   14  C   UNK N   1      29.892  17.872   9.295  0.00  0.00     0.159 C 
BRANCH  14  15
HETATM   15  C   UNK N   1      28.526  17.581   8.693  0.00  0.00     0.197 C 
BRANCH  15  16
HETATM   16  O   UNK N   1      27.531  18.284   9.372  0.00  0.00    -0.398 OA
HETATM   17  H   UNK N   1      27.018  19.024   9.733  0.00  0.00     0.209 HD
ENDBRANCH  15  16
ENDBRANCH  14  15
BRANCH  14  18
HETATM   18  O   UNK N   1      30.164  19.240   9.262  0.00  0.00    -0.392 OA
HETATM   19  H   UNK N   1      29.959  19.849   8.535  0.00  0.00     0.210 HD
ENDBRANCH  14  18
ENDBRANCH  13  14
ENDBRANCH  11  13
BRANCH  10  20
HETATM   20  O   UNK N   1      34.223  18.630   7.832  0.00  0.00    -0.346 OA
HETATM   21  H   UNK N   1      35.142  18.629   8.013  0.00  0.00     0.219 HD
ENDBRANCH  10  20
ENDBRANCH   1  10
BRANCH   2  22
HETATM   22  C   UNK N   1      36.127  13.479   8.974  0.00  0.00     0.149 C 
HETATM   23  N   UNK N   1      35.840  12.719   9.984  0.00  0.00    -0.368 N 
ATOM     24  HN  UNK N   1      34.851  12.563  10.175  1.00  0.00     0.161 HD
BRANCH  23  25
HETATM   25  C   UNK N   1      36.799  12.060  10.880  0.00  0.00     0.155 C 
BRANCH  25  26
HETATM   26  C   UNK N   1      36.849  12.580  12.322  0.00  0.00     0.159 C 
BRANCH  26  27
HETATM   27  C   UNK N   1      35.589  12.261  13.101  0.00  0.00     0.197 C 
BRANCH  27  28
HETATM   28  O   UNK N   1      34.555  13.092  12.664  0.00  0.00    -0.398 OA
HETATM   29  H   UNK N   1      33.872  13.507  13.215  0.00  0.00     0.209 HD
ENDBRANCH  27  28
ENDBRANCH  26  27
BRANCH  26  30
HETATM   30  O   UNK N   1      37.969  12.072  12.983  0.00  0.00    -0.392 OA
HETATM   31  H   UNK N   1      38.362  12.077  13.869  0.00  0.00     0.210 HD
ENDBRANCH  26  30
ENDBRANCH  25  26
ENDBRANCH  23  25
BRANCH  22  32
HETATM   32  O   UNK N   1      37.413  13.754   8.689  0.00  0.00    -0.346 OA
HETATM   33  H   UNK N   1      38.149  13.196   8.841  0.00  0.00     0.219 HD
ENDBRANCH  22  32
ENDBRANCH   2  22
BRANCH   6  34
HETATM   34  N   UNK N   1      33.552  13.761   4.747  0.00  0.00    -0.318 N 
HETATM   35  C   UNK N   1      34.489  13.861   3.652  0.00  0.00     0.159 C 
HETATM   36  C   UNK N   1      32.351  13.129   4.554  0.00  0.00     0.247 C 
HETATM   37  O   UNK N   1      31.557  13.000   5.473  0.00  0.00    -0.271 OA
BRANCH  36  38
HETATM   38  C   UNK N   1      31.994  12.558   3.212  0.00  0.00     0.267 C 
BRANCH  38  39
HETATM   39  O   UNK N   1      32.156  11.172   3.232  0.00  0.00    -0.392 OA
HETATM   40  H   UNK N   1      31.701  10.550   2.643  0.00  0.00     0.210 HD
ENDBRANCH  38  39
ENDBRANCH  36  38
ENDBRANCH   6  34
TORSDOF 17
ENDMDL
