MODEL 1
REMARK VINA RESULT:      -5.4      0.000      0.000
REMARK  6 active torsions:
REMARK  status: ('A' for Active; 'I' for Inactive)
REMARK    1  A    between atoms: C_2  and  C_3 
REMARK    2  A    between atoms: C_9  and  C_10 
REMARK    3  A    between atoms: C_9  and  C_14 
REMARK    4  A    between atoms: C_10  and  C_11 
REMARK    5  A    between atoms: C_11  and  O_13 
REMARK    6  A    between atoms: C_14  and  N_15 
ROOT
HETATM    1  C   UNK N   1      35.193  12.274  18.142  0.00  0.00    -0.083 A 
HETATM    2  C   UNK N   1      34.949  13.305  17.361  0.00  0.00    -0.018 A 
HETATM    3  C   UNK N   1      34.731  12.899  15.933  0.00  0.00     0.023 A 
HETATM    4  C   UNK N   1      35.015  11.385  15.962  0.00  0.00    -0.001 A 
HETATM    5  C   UNK N   1      35.235  10.981  17.422  0.00  0.00     0.039 A 
HETATM    6  C   UNK N   1      36.348  11.628  15.263  0.00  0.00     0.018 C 
HETATM    7  C   UNK N   1      35.944  13.073  15.010  0.00  0.00    -0.008 C 
ENDROOT
BRANCH   7   8
HETATM    8  C   UNK N   1      35.449  13.277  13.568  0.00  0.00     0.121 C 
BRANCH   8   9
HETATM    9  C   UNK N   1      36.356  12.705  12.520  0.00  0.00     0.140 C 
HETATM   10  O   UNK N   1      36.066  11.656  11.969  0.00  0.00    -0.650 OA
BRANCH   9  11
HETATM   11  O   UNK N   1      37.523  13.312  12.231  0.00  0.00    -0.776 OA
HETATM   12  H   UNK N   1      37.984  13.880  12.816  0.00  0.00     0.167 HD
ENDBRANCH   9  11
ENDBRANCH   8   9
ENDBRANCH   7   8
BRANCH   7  13
HETATM   13  C   UNK N   1      37.004  14.093  15.438  0.00  0.00     0.121 C 
BRANCH  13  14
HETATM   14  N   UNK N   1      37.008  15.241  14.544  0.00  0.00    -0.429 N 
HETATM   15  H   UNK N   1      37.715  15.963  14.407  0.00  0.00     0.149 HD
HETATM   16  H   UNK N   1      36.175  15.337  13.963  0.00  0.00     0.149 HD
ENDBRANCH  13  14
ENDBRANCH   7  13
BRANCH   1  17
HETATM   17  C   UNK N   1      35.406  12.405  19.613  0.00  0.00     0.029 C 
HETATM   18  C   UNK N   1      36.020  11.132  20.166  0.00  0.00     0.010 C 
ENDBRANCH   1  17
TORSDOF 6
ENDMDL
MODEL 2
REMARK VINA RESULT:      -5.2      8.040     10.144
REMARK  6 active torsions:
REMARK  status: ('A' for Active; 'I' for Inactive)
REMARK    1  A    between atoms: C_2  and  C_3 
REMARK    2  A    between atoms: C_9  and  C_10 
REMARK    3  A    between atoms: C_9  and  C_14 
REMARK    4  A    between atoms: C_10  and  C_11 
REMARK    5  A    between atoms: C_11  and  O_13 
REMARK    6  A    between atoms: C_14  and  N_15 
ROOT
HETATM    1  C   UNK N   1      29.888  17.529   7.540  0.00  0.00    -0.083 A 
HETATM    2  C   UNK N   1      30.780  17.683   8.496  0.00  0.00    -0.018 A 
HETATM    3  C   UNK N   1      32.183  17.488   8.004  0.00  0.00     0.023 A 
HETATM    4  C   UNK N   1      31.973  17.052   6.541  0.00  0.00    -0.001 A 
HETATM    5  C   UNK N   1      30.478  17.163   6.233  0.00  0.00     0.039 A 
HETATM    6  C   UNK N   1      32.341  15.622   6.920  0.00  0.00     0.018 C 
HETATM    7  C   UNK N   1      32.793  16.109   8.290  0.00  0.00    -0.008 C 
ENDROOT
BRANCH   7   8
HETATM    8  C   UNK N   1      34.323  16.245   8.365  0.00  0.00     0.121 C 
BRANCH   8   9
HETATM    9  C   UNK N   1      34.802  17.235   9.384  0.00  0.00     0.140 C 
HETATM   10  O   UNK N   1      35.261  18.307   9.024  0.00  0.00    -0.650 OA
BRANCH   9  11
HETATM   11  O   UNK N   1      34.786  16.921  10.693  0.00  0.00    -0.776 OA
HETATM   12  H   UNK N   1      34.246  16.255  11.071  0.00  0.00     0.167 HD
ENDBRANCH   9  11
ENDBRANCH   8   9
ENDBRANCH   7   8
BRANCH   7  13
HETATM   13  C   UNK N   1      32.195  15.311   9.454  0.00  0.00     0.121 C 
BRANCH  13  14
HETATM   14  N   UNK N   1      33.129  14.296   9.917  0.00  0.00    -0.429 N 
HETATM   15  H   UNK N   1      32.985  13.518  10.561  0.00  0.00     0.149 HD
HETATM   16  H   UNK N   1      34.073  14.375   9.539  0.00  0.00     0.149 HD
ENDBRANCH  13  14
ENDBRANCH   7  13
BRANCH   1  17
HETATM   17  C   UNK N   1      28.424  17.709   7.763  0.00  0.00     0.029 C 
HETATM   18  C   UNK N   1      28.133  17.825   9.248  0.00  0.00     0.010 C 
ENDBRANCH   1  17
TORSDOF 6
ENDMDL
MODEL 3
REMARK VINA RESULT:      -5.2      6.763      9.764
REMARK  6 active torsions:
REMARK  status: ('A' for Active; 'I' for Inactive)
REMARK    1  A    between atoms: C_2  and  C_3 
REMARK    2  A    between atoms: C_9  and  C_10 
REMARK    3  A    between atoms: C_9  and  C_14 
REMARK    4  A    between atoms: C_10  and  C_11 
REMARK    5  A    between atoms: C_11  and  O_13 
REMARK    6  A    between atoms: C_14  and  N_15 
ROOT
HETATM    1  C   UNK N   1      32.125  17.056   6.536  0.00  0.00    -0.083 A 
HETATM    2  C   UNK N   1      31.985  17.066   7.845  0.00  0.00    -0.018 A 
HETATM    3  C   UNK N   1      33.234  17.506   8.548  0.00  0.00     0.023 A 
HETATM    4  C   UNK N   1      34.242  17.655   7.392  0.00  0.00    -0.001 A 
HETATM    5  C   UNK N   1      33.481  17.436   6.082  0.00  0.00     0.039 A 
HETATM    6  C   UNK N   1      34.931  16.370   7.836  0.00  0.00     0.018 C 
HETATM    7  C   UNK N   1      34.102  16.373   9.113  0.00  0.00    -0.008 C 
ENDROOT
BRANCH   7   8
HETATM    8  C   UNK N   1      34.908  16.909  10.308  0.00  0.00     0.121 C 
BRANCH   8   9
HETATM    9  C   UNK N   1      35.818  15.898  10.938  0.00  0.00     0.140 C 
HETATM   10  O   UNK N   1      35.395  15.152  11.806  0.00  0.00    -0.650 OA
BRANCH   9  11
HETATM   11  O   UNK N   1      37.120  15.852  10.594  0.00  0.00    -0.776 OA
HETATM   12  H   UNK N   1      37.457  16.127   9.764  0.00  0.00     0.167 HD
ENDBRANCH   9  11
ENDBRANCH   8   9
ENDBRANCH   7   8
BRANCH   7  13
HETATM   13  C   UNK N   1      33.406  15.039   9.398  0.00  0.00     0.121 C 
BRANCH  13  14
HETATM   14  N   UNK N   1      32.640  15.110  10.634  0.00  0.00    -0.429 N 
HETATM   15  H   UNK N   1      31.669  15.380  10.788  0.00  0.00     0.149 HD
HETATM   16  H   UNK N   1      33.155  14.850  11.475  0.00  0.00     0.149 HD
ENDBRANCH  13  14
ENDBRANCH   7  13
BRANCH   1  17
HETATM   17  C   UNK N   1      31.016  16.693   5.606  0.00  0.00     0.029 C 
HETATM   18  C   UNK N   1      29.734  17.389   6.027  0.00  0.00     0.010 C 
ENDBRANCH   1  17
TORSDOF 6
ENDMDL
MODEL 4
REMARK VINA RESULT:      -5.0     25.600     27.127
REMARK  6 active torsions:
REMARK  status: ('A' for Active; 'I' for Inactive)
REMARK    1  A    between atoms: C_2  and  C_3 
REMARK    2  A    between atoms: C_9  and  C_10 
REMARK    3  A    between atoms: C_9  and  C_14 
REMARK    4  A    between atoms: C_10  and  C_11 
REMARK    5  A    between atoms: C_11  and  O_13 
REMARK    6  A    between atoms: C_14  and  N_15 
ROOT
HETATM    1  C   UNK N   1      27.066  29.251  -5.013  0.00  0.00    -0.083 A 
HETATM    2  C   UNK N   1      26.975  28.267  -5.882  0.00  0.00    -0.018 A 
HETATM    3  C   UNK N   1      25.986  27.222  -5.459  0.00  0.00     0.023 A 
HETATM    4  C   UNK N   1      25.557  27.705  -4.061  0.00  0.00    -0.001 A 
HETATM    5  C   UNK N   1      26.209  29.069  -3.820  0.00  0.00     0.039 A 
HETATM    6  C   UNK N   1      26.387  26.592  -3.429  0.00  0.00     0.018 C 
HETATM    7  C   UNK N   1      26.591  25.973  -4.804  0.00  0.00    -0.008 C 
ENDROOT
BRANCH   7   8
HETATM    8  C   UNK N   1      25.646  24.781  -5.033  0.00  0.00     0.121 C 
BRANCH   8   9
HETATM    9  C   UNK N   1      25.888  24.043  -6.316  0.00  0.00     0.140 C 
HETATM   10  O   UNK N   1      25.374  24.434  -7.351  0.00  0.00    -0.650 OA
BRANCH   9  11
HETATM   11  O   UNK N   1      26.621  22.913  -6.319  0.00  0.00    -0.776 OA
HETATM   12  H   UNK N   1      26.262  22.050  -6.385  0.00  0.00     0.167 HD
ENDBRANCH   9  11
ENDBRANCH   8   9
ENDBRANCH   7   8
BRANCH   7  13
HETATM   13  C   UNK N   1      28.056  25.658  -5.126  0.00  0.00     0.121 C 
BRANCH  13  14
HETATM   14  N   UNK N   1      28.512  24.498  -4.375  0.00  0.00    -0.429 N 
HETATM   15  H   UNK N   1      28.034  23.620  -4.172  0.00  0.00     0.149 HD
HETATM   16  H   UNK N   1      29.454  24.575  -3.994  0.00  0.00     0.149 HD
ENDBRANCH  13  14
ENDBRANCH   7  13
BRANCH   1  17
HETATM   17  C   UNK N   1      27.951  30.434  -5.219  0.00  0.00     0.029 C 
HETATM   18  C   UNK N   1      28.853  30.208  -6.419  0.00  0.00     0.010 C 
ENDBRANCH   1  17
TORSDOF 6
ENDMDL
MODEL 5
REMARK VINA RESULT:      -5.0      1.846      2.234
REMARK  6 active torsions:
REMARK  status: ('A' for Active; 'I' for Inactive)
REMARK    1  A    between atoms: C_2  and  C_3 
REMARK    2  A    between atoms: C_9  and  C_10 
REMARK    3  A    between atoms: C_9  and  C_14 
REMARK    4  A    between atoms: C_10  and  C_11 
REMARK    5  A    between atoms: C_11  and  O_13 
REMARK    6  A    between atoms: C_14  and  N_15 
ROOT
HETATM    1  C   UNK N   1      34.946  11.513  16.812  0.00  0.00    -0.083 A 
HETATM    2  C   UNK N   1      34.801  12.441  15.891  0.00  0.00    -0.018 A 
HETATM    3  C   UNK N   1      34.382  11.871  14.568  0.00  0.00     0.023 A 
HETATM    4  C   UNK N   1      34.414  10.352  14.826  0.00  0.00    -0.001 A 
HETATM    5  C   UNK N   1      34.705  10.140  16.314  0.00  0.00     0.039 A 
HETATM    6  C   UNK N   1      35.696  10.247  14.006  0.00  0.00     0.018 C 
HETATM    7  C   UNK N   1      35.513  11.686  13.547  0.00  0.00    -0.008 C 
ENDROOT
BRANCH   7   8
HETATM    8  C   UNK N   1      34.922  11.756  12.128  0.00  0.00     0.121 C 
BRANCH   8   9
HETATM    9  C   UNK N   1      34.983  13.117  11.504  0.00  0.00     0.140 C 
HETATM   10  O   UNK N   1      35.792  13.348  10.620  0.00  0.00    -0.650 OA
BRANCH   9  11
HETATM   11  O   UNK N   1      34.190  14.107  11.958  0.00  0.00    -0.776 OA
HETATM   12  H   UNK N   1      34.491  14.838  12.459  0.00  0.00     0.167 HD
ENDBRANCH   9  11
ENDBRANCH   8   9
ENDBRANCH   7   8
BRANCH   7  13
HETATM   13  C   UNK N   1      36.763  12.553  13.727  0.00  0.00     0.121 C 
BRANCH  13  14
HETATM   14  N   UNK N   1      37.786  12.192  12.757  0.00  0.00    -0.429 N 
HETATM   15  H   UNK N   1      38.802  12.189  12.847  0.00  0.00     0.149 HD
HETATM   16  H   UNK N   1      37.432  11.897  11.847  0.00  0.00     0.149 HD
ENDBRANCH  13  14
ENDBRANCH   7  13
BRANCH   1  17
HETATM   17  C   UNK N   1      35.319  11.824  18.223  0.00  0.00     0.029 C 
HETATM   18  C   UNK N   1      35.181  13.313  18.482  0.00  0.00     0.010 C 
ENDBRANCH   1  17
TORSDOF 6
ENDMDL
MODEL 6
REMARK VINA RESULT:      -4.9     25.395     26.744
REMARK  6 active torsions:
REMARK  status: ('A' for Active; 'I' for Inactive)
REMARK    1  A    between atoms: C_2  and  C_3 
REMARK    2  A    between atoms: C_9  and  C_10 
REMARK    3  A    between atoms: C_9  and  C_14 
REMARK    4  A    between atoms: C_10  and  C_11 
REMARK    5  A    between atoms: C_11  and  O_13 
REMARK    6  A    between atoms: C_14  and  N_15 
ROOT
HETATM    1  C   UNK N   1      27.806  23.554  -5.725  0.00  0.00    -0.083 A 
HETATM    2  C   UNK N   1      27.753  24.513  -4.825  0.00  0.00    -0.018 A 
HETATM    3  C   UNK N   1      26.419  25.200  -4.801  0.00  0.00     0.023 A 
HETATM    4  C   UNK N   1      25.675  24.540  -5.978  0.00  0.00    -0.001 A 
HETATM    5  C   UNK N   1      26.563  23.415  -6.517  0.00  0.00     0.039 A 
HETATM    6  C   UNK N   1      25.859  25.812  -6.799  0.00  0.00     0.018 C 
HETATM    7  C   UNK N   1      26.356  26.535  -5.555  0.00  0.00    -0.008 C 
ENDROOT
BRANCH   7   8
HETATM    8  C   UNK N   1      25.255  27.409  -4.932  0.00  0.00     0.121 C 
BRANCH   8   9
HETATM    9  C   UNK N   1      25.699  28.197  -3.736  0.00  0.00     0.140 C 
HETATM   10  O   UNK N   1      25.803  27.651  -2.650  0.00  0.00    -0.650 OA
BRANCH   9  11
HETATM   11  O   UNK N   1      25.924  29.521  -3.844  0.00  0.00    -0.776 OA
HETATM   12  H   UNK N   1      25.334  30.126  -4.249  0.00  0.00     0.167 HD
ENDBRANCH   9  11
ENDBRANCH   8   9
ENDBRANCH   7   8
BRANCH   7  13
HETATM   13  C   UNK N   1      27.678  27.280  -5.764  0.00  0.00     0.121 C 
BRANCH  13  14
HETATM   14  N   UNK N   1      27.454  28.552  -6.434  0.00  0.00    -0.429 N 
HETATM   15  H   UNK N   1      28.064  29.365  -6.518  0.00  0.00     0.149 HD
HETATM   16  H   UNK N   1      26.546  28.644  -6.891  0.00  0.00     0.149 HD
ENDBRANCH  13  14
ENDBRANCH   7  13
BRANCH   1  17
HETATM   17  C   UNK N   1      29.009  22.693  -5.922  0.00  0.00     0.029 C 
HETATM   18  C   UNK N   1      28.780  21.734  -7.076  0.00  0.00     0.010 C 
ENDBRANCH   1  17
TORSDOF 6
ENDMDL
MODEL 7
REMARK VINA RESULT:      -4.9     25.569     26.896
REMARK  6 active torsions:
REMARK  status: ('A' for Active; 'I' for Inactive)
REMARK    1  A    between atoms: C_2  and  C_3 
REMARK    2  A    between atoms: C_9  and  C_10 
REMARK    3  A    between atoms: C_9  and  C_14 
REMARK    4  A    between atoms: C_10  and  C_11 
REMARK    5  A    between atoms: C_11  and  O_13 
REMARK    6  A    between atoms: C_14  and  N_15 
ROOT
HETATM    1  C   UNK N   1      25.860  26.507  -4.485  0.00  0.00    -0.083 A 
HETATM    2  C   UNK N   1      25.276  25.917  -5.507  0.00  0.00    -0.018 A 
HETATM    3  C   UNK N   1      25.526  24.438  -5.530  0.00  0.00     0.023 A 
HETATM    4  C   UNK N   1      26.506  24.240  -4.358  0.00  0.00    -0.001 A 
HETATM    5  C   UNK N   1      26.649  25.584  -3.639  0.00  0.00     0.039 A 
HETATM    6  C   UNK N   1      27.644  24.037  -5.352  0.00  0.00     0.018 C 
HETATM    7  C   UNK N   1      26.633  23.976  -6.488  0.00  0.00    -0.008 C 
ENDROOT
BRANCH   7   8
HETATM    8  C   UNK N   1      26.350  22.526  -6.915  0.00  0.00     0.121 C 
BRANCH   8   9
HETATM    9  C   UNK N   1      24.963  22.299  -7.435  0.00  0.00     0.140 C 
HETATM   10  O   UNK N   1      24.585  22.878  -8.441  0.00  0.00    -0.650 OA
BRANCH   9  11
HETATM   11  O   UNK N   1      24.109  21.505  -6.761  0.00  0.00    -0.776 OA
HETATM   12  H   UNK N   1      24.317  21.062  -5.962  0.00  0.00     0.167 HD
ENDBRANCH   9  11
ENDBRANCH   8   9
ENDBRANCH   7   8
BRANCH   7  13
HETATM   13  C   UNK N   1      26.969  24.901  -7.662  0.00  0.00     0.121 C 
BRANCH  13  14
HETATM   14  N   UNK N   1      27.490  24.139  -8.787  0.00  0.00    -0.429 N 
HETATM   15  H   UNK N   1      28.444  23.849  -8.996  0.00  0.00     0.149 HD
HETATM   16  H   UNK N   1      26.791  23.851  -9.472  0.00  0.00     0.149 HD
ENDBRANCH  13  14
ENDBRANCH   7  13
BRANCH   1  17
HETATM   17  C   UNK N   1      25.732  27.969  -4.213  0.00  0.00     0.029 C 
HETATM   18  C   UNK N   1      26.726  28.744  -5.059  0.00  0.00     0.010 C 
ENDBRANCH   1  17
TORSDOF 6
ENDMDL
MODEL 8
REMARK VINA RESULT:      -4.8      7.476     10.591
REMARK  6 active torsions:
REMARK  status: ('A' for Active; 'I' for Inactive)
REMARK    1  A    between atoms: C_2  and  C_3 
REMARK    2  A    between atoms: C_9  and  C_10 
REMARK    3  A    between atoms: C_9  and  C_14 
REMARK    4  A    between atoms: C_10  and  C_11 
REMARK    5  A    between atoms: C_11  and  O_13 
REMARK    6  A    between atoms: C_14  and  N_15 
ROOT
HETATM    1  C   UNK N   1      31.999  16.452   5.341  0.00  0.00    -0.083 A 
HETATM    2  C   UNK N   1      33.211  16.803   5.719  0.00  0.00    -0.018 A 
HETATM    3  C   UNK N   1      33.761  15.899   6.782  0.00  0.00     0.023 A 
HETATM    4  C   UNK N   1      32.572  14.966   7.084  0.00  0.00    -0.001 A 
HETATM    5  C   UNK N   1      31.462  15.288   6.081  0.00  0.00     0.039 A 
HETATM    6  C   UNK N   1      32.339  15.700   8.400  0.00  0.00     0.018 C 
HETATM    7  C   UNK N   1      33.658  16.436   8.216  0.00  0.00    -0.008 C 
ENDROOT
BRANCH   7   8
HETATM    8  C   UNK N   1      34.778  15.811   9.065  0.00  0.00     0.121 C 
BRANCH   8   9
HETATM    9  C   UNK N   1      34.655  16.075  10.535  0.00  0.00     0.140 C 
HETATM   10  O   UNK N   1      35.264  17.003  11.042  0.00  0.00    -0.650 OA
BRANCH   9  11
HETATM   11  O   UNK N   1      33.923  15.253  11.312  0.00  0.00    -0.776 OA
HETATM   12  H   UNK N   1      33.709  14.368  11.090  0.00  0.00     0.167 HD
ENDBRANCH   9  11
ENDBRANCH   8   9
ENDBRANCH   7   8
BRANCH   7  13
HETATM   13  C   UNK N   1      33.544  17.955   8.384  0.00  0.00     0.121 C 
BRANCH  13  14
HETATM   14  N   UNK N   1      34.862  18.565   8.472  0.00  0.00    -0.429 N 
HETATM   15  H   UNK N   1      35.253  19.181   9.184  0.00  0.00     0.149 HD
HETATM   16  H   UNK N   1      35.492  18.341   7.701  0.00  0.00     0.149 HD
ENDBRANCH  13  14
ENDBRANCH   7  13
BRANCH   1  17
HETATM   17  C   UNK N   1      31.246  17.167   4.269  0.00  0.00     0.029 C 
HETATM   18  C   UNK N   1      32.036  17.141   2.973  0.00  0.00     0.010 C 
ENDBRANCH   1  17
TORSDOF 6
ENDMDL
MODEL 9
REMARK VINA RESULT:      -4.7     23.014     25.356
REMARK  6 active torsions:
REMARK  status: ('A' for Active; 'I' for Inactive)
REMARK    1  A    between atoms: C_2  and  C_3 
REMARK    2  A    between atoms: C_9  and  C_10 
REMARK    3  A    between atoms: C_9  and  C_14 
REMARK    4  A    between atoms: C_10  and  C_11 
REMARK    5  A    between atoms: C_11  and  O_13 
REMARK    6  A    between atoms: C_14  and  N_15 
ROOT
HETATM    1  C   UNK N   1      29.586  24.134  -3.339  0.00  0.00    -0.083 A 
HETATM    2  C   UNK N   1      28.396  24.097  -3.901  0.00  0.00    -0.018 A 
HETATM    3  C   UNK N   1      28.218  25.173  -4.931  0.00  0.00     0.023 A 
HETATM    4  C   UNK N   1      29.524  25.981  -4.808  0.00  0.00    -0.001 A 
HETATM    5  C   UNK N   1      30.436  25.243  -3.825  0.00  0.00     0.039 A 
HETATM    6  C   UNK N   1      28.761  27.096  -4.103  0.00  0.00     0.018 C 
HETATM    7  C   UNK N   1      27.448  26.413  -4.458  0.00  0.00    -0.008 C 
ENDROOT
BRANCH   7   8
HETATM    8  C   UNK N   1      26.776  27.077  -5.671  0.00  0.00     0.121 C 
BRANCH   8   9
HETATM    9  C   UNK N   1      25.396  26.567  -5.964  0.00  0.00     0.140 C 
HETATM   10  O   UNK N   1      24.424  27.267  -5.731  0.00  0.00    -0.650 OA
BRANCH   9  11
HETATM   11  O   UNK N   1      25.222  25.314  -6.426  0.00  0.00    -0.776 OA
HETATM   12  H   UNK N   1      24.657  25.086  -7.138  0.00  0.00     0.167 HD
ENDBRANCH   9  11
ENDBRANCH   8   9
ENDBRANCH   7   8
BRANCH   7  13
HETATM   13  C   UNK N   1      26.505  26.233  -3.263  0.00  0.00     0.121 C 
BRANCH  13  14
HETATM   14  N   UNK N   1      25.896  27.501  -2.891  0.00  0.00    -0.429 N 
HETATM   15  H   UNK N   1      25.999  28.425  -3.309  0.00  0.00     0.149 HD
HETATM   16  H   UNK N   1      25.269  27.458  -2.088  0.00  0.00     0.149 HD
ENDBRANCH  13  14
ENDBRANCH   7  13
BRANCH   1  17
HETATM   17  C   UNK N   1      30.026  23.147  -2.311  0.00  0.00     0.029 C 
HETATM   18  C   UNK N   1      30.743  21.985  -2.976  0.00  0.00     0.010 C 
ENDBRANCH   1  17
TORSDOF 6
ENDMDL
