MODEL 1
REMARK VINA RESULT:      -8.6      0.000      0.000
REMARK  17 active torsions:
REMARK  status: ('A' for Active; 'I' for Inactive)
REMARK    1  A    between atoms: C_2  and  C_3 
REMARK    2  A    between atoms: C_3  and  C_4 
REMARK    3  A    between atoms: C_3  and  N_52 
REMARK       I    between atoms: C_4  and  N_6 
REMARK    4  A    between atoms: C_8  and  O_51 
REMARK    5  A    between atoms: C_10  and  C_11 
REMARK    6  A    between atoms: C_11  and  C_12 
REMARK    7  A    between atoms: C_20  and  C_21 
REMARK    8  A    between atoms: C_22  and  C_31 
REMARK    9  A    between atoms: C_32  and  C_31 
REMARK   10  A    between atoms: C_34  and  O_49 
REMARK       I    between atoms: N_36  and  C_37 
REMARK   11  A    between atoms: C_37  and  C_39 
REMARK   12  A    between atoms: C_39  and  C_40 
REMARK   13  A    between atoms: C_39  and  N_42 
REMARK       I    between atoms: N_42  and  C_43 
REMARK   14  A    between atoms: C_43  and  C_45 
REMARK   15  A    between atoms: C_45  and  N_47 
REMARK       I    between atoms: N_52  and  C_53 
REMARK   16  A    between atoms: C_53  and  C_55 
REMARK   17  A    between atoms: C_55  and  N_57 
ROOT
HETATM    1  C   UNK N   1      26.751  16.994   5.198  0.00  0.00    -0.015 A 
HETATM    2  C   UNK N   1      26.981  18.289   5.621  0.00  0.00    -0.001 A 
HETATM    3  C   UNK N   1      27.982  18.845   6.417  0.00  0.00     0.017 A 
HETATM    4  C   UNK N   1      28.006  20.239   6.579  0.00  0.00     0.043 A 
HETATM    5  C   UNK N   1      27.034  21.044   5.949  0.00  0.00     0.118 A 
HETATM    6  C   UNK N   1      26.009  20.453   5.190  0.00  0.00     0.072 A 
HETATM    7  C   UNK N   1      26.012  19.069   5.059  0.00  0.00     0.046 A 
HETATM    8  N   UNK N   1      25.142  18.332   4.353  0.00  0.00    -0.353 N 
HETATM    9  C   UNK N   1      25.585  17.054   4.422  0.00  0.00     0.067 A 
HETATM   10  F   UNK N   1      27.087  22.390   6.076  0.00  0.00    -0.206 F 
HETATM   11  H   UNK N   1      24.343  18.656   3.877  0.00  0.00     0.166 HD
ENDROOT
BRANCH   9  12
HETATM   12  C   UNK N   1      24.910  15.985   3.656  0.00  0.00     0.067 A 
HETATM   13  C   UNK N   1      23.781  15.294   4.094  0.00  0.00    -0.015 A 
HETATM   14  C   UNK N   1      23.386  14.510   3.050  0.00  0.00    -0.001 A 
HETATM   15  C   UNK N   1      22.305  13.639   2.932  0.00  0.00     0.017 A 
HETATM   16  C   UNK N   1      24.267  14.728   2.029  0.00  0.00     0.046 A 
HETATM   17  C   UNK N   1      22.119  12.993   1.700  0.00  0.00     0.043 A 
HETATM   18  C   UNK N   1      23.011  13.229   0.632  0.00  0.00     0.118 A 
HETATM   19  C   UNK N   1      24.108  14.102   0.796  0.00  0.00     0.072 A 
HETATM   20  F   UNK N   1      22.798  12.620  -0.559  0.00  0.00    -0.206 F 
HETATM   21  N   UNK N   1      25.223  15.619   2.385  0.00  0.00    -0.353 N 
HETATM   22  H   UNK N   1      25.980  15.934   1.841  0.00  0.00     0.166 HD
BRANCH  13  23
HETATM   23  C   UNK N   1      23.121  15.353   5.434  0.00  0.00     0.067 C 
BRANCH  23  24
HETATM   24  C   UNK N   1      21.709  15.930   5.281  0.00  0.00     0.094 C 
HETATM   25  C   UNK N   1      21.719  17.242   4.504  0.00  0.00     0.059 C 
HETATM   26  C   UNK N   1      21.719  18.322   5.574  0.00  0.00     0.138 C 
HETATM   27  C   UNK N   1      20.989  17.708   6.753  0.00  0.00     0.158 C 
HETATM   28  N   UNK N   1      21.161  16.291   6.560  0.00  0.00    -0.343 N 
HETATM   29  C   UNK N   1      20.774  15.382   7.501  0.00  0.00     0.243 C 
HETATM   30  O   UNK N   1      20.269  15.757   8.546  0.00  0.00    -0.271 OA
BRANCH  26  31
HETATM   31  O   UNK N   1      21.063  19.466   5.124  0.00  0.00    -0.394 OA
HETATM   32  H   UNK N   1      21.183  20.093   4.394  0.00  0.00     0.210 HD
ENDBRANCH  26  31
BRANCH  29  33
HETATM   33  C   UNK N   1      20.957  13.905   7.263  0.00  0.00     0.176 C 
BRANCH  33  34
HETATM   34  C   UNK N   1      20.188  13.347   6.076  0.00  0.00     0.030 C 
HETATM   35  C   UNK N   1      20.583  11.909   5.801  0.00  0.00     0.007 C 
ENDBRANCH  33  34
BRANCH  33  36
HETATM   36  N   UNK N   1      20.909  13.155   8.512  0.00  0.00    -0.346 N 
HETATM   37  C   UNK N   1      21.924  12.702   9.309  0.00  0.00     0.240 C 
HETATM   38  O   UNK N   1      21.631  12.033  10.286  0.00  0.00    -0.271 OA
HETATM   39  H   UNK N   1      20.003  12.942   8.832  0.00  0.00     0.163 HD
BRANCH  37  40
HETATM   40  C   UNK N   1      23.393  12.942   9.057  0.00  0.00     0.165 C 
HETATM   41  C   UNK N   1      24.022  11.949   8.092  0.00  0.00     0.042 C 
BRANCH  40  42
HETATM   42  N   UNK N   1      24.151  13.063  10.294  0.00  0.00    -0.414 N 
HETATM   43  C   UNK N   1      25.489  13.512   9.945  0.00  0.00     0.140 C 
HETATM   44  H   UNK N   1      23.806  12.869  11.234  0.00  0.00     0.153 HD
ENDBRANCH  40  42
ENDBRANCH  37  40
ENDBRANCH  33  36
ENDBRANCH  29  33
ENDBRANCH  23  24
ENDBRANCH  13  23
ENDBRANCH   9  12
BRANCH   1  45
HETATM   45  C   UNK N   1      27.608  15.789   5.489  0.00  0.00     0.067 C 
BRANCH  45  46
HETATM   46  C   UNK N   1      28.848  15.668   4.573  0.00  0.00     0.094 C 
HETATM   47  C   UNK N   1      28.562  14.976   3.245  0.00  0.00     0.059 C 
HETATM   48  C   UNK N   1      29.295  13.619   3.299  0.00  0.00     0.138 C 
HETATM   49  C   UNK N   1      29.743  13.461   4.748  0.00  0.00     0.158 C 
HETATM   50  N   UNK N   1      29.836  14.823   5.175  0.00  0.00    -0.343 N 
HETATM   51  C   UNK N   1      30.992  15.319   5.684  0.00  0.00     0.243 C 
HETATM   52  O   UNK N   1      31.875  14.558   6.051  0.00  0.00    -0.271 OA
BRANCH  48  53
HETATM   53  O   UNK N   1      30.421  13.688   2.479  0.00  0.00    -0.394 OA
HETATM   54  H   UNK N   1      30.613  13.011   1.811  0.00  0.00     0.210 HD
ENDBRANCH  48  53
BRANCH  51  55
HETATM   55  C   UNK N   1      31.242  16.807   5.622  0.00  0.00     0.176 C 
BRANCH  55  56
HETATM   56  C   UNK N   1      31.529  17.254   4.192  0.00  0.00     0.030 C 
HETATM   57  C   UNK N   1      33.015  17.170   3.887  0.00  0.00     0.007 C 
ENDBRANCH  55  56
BRANCH  55  58
HETATM   58  N   UNK N   1      32.247  17.335   6.521  0.00  0.00    -0.346 N 
HETATM   59  C   UNK N   1      32.044  17.599   7.839  0.00  0.00     0.240 C 
HETATM   60  O   UNK N   1      30.922  17.577   8.320  0.00  0.00    -0.271 OA
HETATM   61  H   UNK N   1      33.142  17.516   6.152  0.00  0.00     0.163 HD
BRANCH  59  62
HETATM   62  C   UNK N   1      33.219  17.786   8.744  0.00  0.00     0.165 C 
HETATM   63  C   UNK N   1      34.455  18.209   7.983  0.00  0.00     0.042 C 
BRANCH  62  64
HETATM   64  N   UNK N   1      33.480  16.532   9.434  0.00  0.00    -0.414 N 
HETATM   65  C   UNK N   1      34.802  16.085   9.036  0.00  0.00     0.140 C 
HETATM   66  H   UNK N   1      32.850  16.056  10.078  0.00  0.00     0.153 HD
ENDBRANCH  62  64
ENDBRANCH  59  62
ENDBRANCH  55  58
ENDBRANCH  51  55
ENDBRANCH  45  46
ENDBRANCH   1  45
TORSDOF 17
ENDMDL
MODEL 2
REMARK VINA RESULT:      -8.5      2.051      9.590
REMARK  17 active torsions:
REMARK  status: ('A' for Active; 'I' for Inactive)
REMARK    1  A    between atoms: C_2  and  C_3 
REMARK    2  A    between atoms: C_3  and  C_4 
REMARK    3  A    between atoms: C_3  and  N_52 
REMARK       I    between atoms: C_4  and  N_6 
REMARK    4  A    between atoms: C_8  and  O_51 
REMARK    5  A    between atoms: C_10  and  C_11 
REMARK    6  A    between atoms: C_11  and  C_12 
REMARK    7  A    between atoms: C_20  and  C_21 
REMARK    8  A    between atoms: C_22  and  C_31 
REMARK    9  A    between atoms: C_32  and  C_31 
REMARK   10  A    between atoms: C_34  and  O_49 
REMARK       I    between atoms: N_36  and  C_37 
REMARK   11  A    between atoms: C_37  and  C_39 
REMARK   12  A    between atoms: C_39  and  C_40 
REMARK   13  A    between atoms: C_39  and  N_42 
REMARK       I    between atoms: N_42  and  C_43 
REMARK   14  A    between atoms: C_43  and  C_45 
REMARK   15  A    between atoms: C_45  and  N_47 
REMARK       I    between atoms: N_52  and  C_53 
REMARK   16  A    between atoms: C_53  and  C_55 
REMARK   17  A    between atoms: C_55  and  N_57 
ROOT
HETATM    1  C   UNK N   1      25.300  13.643   4.064  0.00  0.00    -0.015 A 
HETATM    2  C   UNK N   1      24.753  12.840   3.081  0.00  0.00    -0.001 A 
HETATM    3  C   UNK N   1      24.392  11.493   3.072  0.00  0.00     0.017 A 
HETATM    4  C   UNK N   1      23.745  10.985   1.935  0.00  0.00     0.043 A 
HETATM    5  C   UNK N   1      23.479  11.826   0.835  0.00  0.00     0.118 A 
HETATM    6  C   UNK N   1      23.896  13.168   0.852  0.00  0.00     0.072 A 
HETATM    7  C   UNK N   1      24.540  13.635   1.992  0.00  0.00     0.046 A 
HETATM    8  N   UNK N   1      24.979  14.884   2.206  0.00  0.00    -0.353 N 
HETATM    9  C   UNK N   1      25.444  14.908   3.478  0.00  0.00     0.067 A 
HETATM   10  F   UNK N   1      22.819  11.340  -0.243  0.00  0.00    -0.206 F 
HETATM   11  H   UNK N   1      24.964  15.633   1.567  0.00  0.00     0.166 HD
ENDROOT
BRANCH   9  12
HETATM   12  C   UNK N   1      25.909  16.175   4.081  0.00  0.00     0.067 A 
HETATM   13  C   UNK N   1      27.203  16.397   4.551  0.00  0.00    -0.015 A 
HETATM   14  C   UNK N   1      27.266  17.717   4.886  0.00  0.00    -0.001 A 
HETATM   15  C   UNK N   1      28.324  18.475   5.380  0.00  0.00     0.017 A 
HETATM   16  C   UNK N   1      26.036  18.256   4.627  0.00  0.00     0.046 A 
HETATM   17  C   UNK N   1      28.105  19.846   5.588  0.00  0.00     0.043 A 
HETATM   18  C   UNK N   1      26.845  20.416   5.303  0.00  0.00     0.118 A 
HETATM   19  C   UNK N   1      25.790  19.611   4.823  0.00  0.00     0.072 A 
HETATM   20  F   UNK N   1      26.662  21.746   5.481  0.00  0.00    -0.206 F 
HETATM   21  N   UNK N   1      25.181  17.321   4.147  0.00  0.00    -0.353 N 
HETATM   22  H   UNK N   1      24.236  17.446   3.900  0.00  0.00     0.166 HD
BRANCH  13  23
HETATM   23  C   UNK N   1      28.315  15.410   4.699  0.00  0.00     0.067 C 
BRANCH  23  24
HETATM   24  C   UNK N   1      29.249  15.510   3.488  0.00  0.00     0.094 C 
HETATM   25  C   UNK N   1      28.596  14.953   2.227  0.00  0.00     0.059 C 
HETATM   26  C   UNK N   1      29.110  13.526   2.126  0.00  0.00     0.138 C 
HETATM   27  C   UNK N   1      30.482  13.556   2.775  0.00  0.00     0.158 C 
HETATM   28  N   UNK N   1      30.413  14.685   3.666  0.00  0.00    -0.343 N 
HETATM   29  C   UNK N   1      31.409  14.963   4.557  0.00  0.00     0.243 C 
HETATM   30  O   UNK N   1      32.393  14.246   4.621  0.00  0.00    -0.271 OA
BRANCH  26  31
HETATM   31  O   UNK N   1      29.199  13.124   0.794  0.00  0.00    -0.394 OA
HETATM   32  H   UNK N   1      29.808  12.577   0.274  0.00  0.00     0.210 HD
ENDBRANCH  26  31
BRANCH  29  33
HETATM   33  C   UNK N   1      31.311  16.159   5.468  0.00  0.00     0.176 C 
BRANCH  33  34
HETATM   34  C   UNK N   1      31.913  17.440   4.910  0.00  0.00     0.030 C 
HETATM   35  C   UNK N   1      33.376  17.564   5.291  0.00  0.00     0.007 C 
ENDBRANCH  33  34
BRANCH  33  36
HETATM   36  N   UNK N   1      31.631  15.807   6.845  0.00  0.00    -0.346 N 
HETATM   37  C   UNK N   1      31.185  16.346   8.021  0.00  0.00     0.240 C 
HETATM   38  O   UNK N   1      31.652  15.916   9.062  0.00  0.00    -0.271 OA
HETATM   39  H   UNK N   1      32.268  15.063   6.945  0.00  0.00     0.163 HD
BRANCH  37  40
HETATM   40  C   UNK N   1      30.172  17.459   8.131  0.00  0.00     0.165 C 
HETATM   41  C   UNK N   1      30.659  18.655   8.936  0.00  0.00     0.042 C 
BRANCH  40  42
HETATM   42  N   UNK N   1      28.875  16.980   8.586  0.00  0.00    -0.414 N 
HETATM   43  C   UNK N   1      28.145  18.125   9.108  0.00  0.00     0.140 C 
HETATM   44  H   UNK N   1      28.539  16.018   8.546  0.00  0.00     0.153 HD
ENDBRANCH  40  42
ENDBRANCH  37  40
ENDBRANCH  33  36
ENDBRANCH  29  33
ENDBRANCH  23  24
ENDBRANCH  13  23
ENDBRANCH   9  12
BRANCH   1  45
HETATM   45  C   UNK N   1      25.630  13.234   5.477  0.00  0.00     0.067 C 
BRANCH  45  46
HETATM   46  C   UNK N   1      24.667  13.816   6.536  0.00  0.00     0.094 C 
HETATM   47  C   UNK N   1      25.212  13.750   7.959  0.00  0.00     0.059 C 
HETATM   48  C   UNK N   1      24.345  12.714   8.705  0.00  0.00     0.138 C 
HETATM   49  C   UNK N   1      23.518  12.026   7.624  0.00  0.00     0.158 C 
HETATM   50  N   UNK N   1      23.469  13.034   6.610  0.00  0.00    -0.343 N 
HETATM   51  C   UNK N   1      22.282  13.491   6.137  0.00  0.00     0.243 C 
HETATM   52  O   UNK N   1      21.255  12.864   6.351  0.00  0.00    -0.271 OA
BRANCH  48  53
HETATM   53  O   UNK N   1      23.486  13.393   9.571  0.00  0.00    -0.394 OA
HETATM   54  H   UNK N   1      22.531  13.447   9.409  0.00  0.00     0.210 HD
ENDBRANCH  48  53
BRANCH  51  55
HETATM   55  C   UNK N   1      22.223  14.862   5.506  0.00  0.00     0.176 C 
BRANCH  55  56
HETATM   56  C   UNK N   1      22.205  15.953   6.572  0.00  0.00     0.030 C 
HETATM   57  C   UNK N   1      20.780  16.294   6.974  0.00  0.00     0.007 C 
ENDBRANCH  55  56
BRANCH  55  58
HETATM   58  N   UNK N   1      21.166  15.089   4.542  0.00  0.00    -0.346 N 
HETATM   59  C   UNK N   1      21.337  15.686   3.332  0.00  0.00     0.240 C 
HETATM   60  O   UNK N   1      22.385  16.244   3.049  0.00  0.00    -0.271 OA
HETATM   61  H   UNK N   1      20.258  14.790   4.779  0.00  0.00     0.163 HD
BRANCH  59  62
HETATM   62  C   UNK N   1      20.283  15.541   2.283  0.00  0.00     0.165 C 
HETATM   63  C   UNK N   1      20.820  14.883   1.031  0.00  0.00     0.042 C 
BRANCH  62  64
HETATM   64  N   UNK N   1      19.769  16.861   1.952  0.00  0.00    -0.414 N 
HETATM   65  C   UNK N   1      19.982  17.067   0.532  0.00  0.00     0.140 C 
HETATM   66  H   UNK N   1      19.339  17.521   2.601  0.00  0.00     0.153 HD
ENDBRANCH  62  64
ENDBRANCH  59  62
ENDBRANCH  55  58
ENDBRANCH  51  55
ENDBRANCH  45  46
ENDBRANCH   1  45
TORSDOF 17
ENDMDL
MODEL 3
REMARK VINA RESULT:      -8.3      2.626      9.190
REMARK  17 active torsions:
REMARK  status: ('A' for Active; 'I' for Inactive)
REMARK    1  A    between atoms: C_2  and  C_3 
REMARK    2  A    between atoms: C_3  and  C_4 
REMARK    3  A    between atoms: C_3  and  N_52 
REMARK       I    between atoms: C_4  and  N_6 
REMARK    4  A    between atoms: C_8  and  O_51 
REMARK    5  A    between atoms: C_10  and  C_11 
REMARK    6  A    between atoms: C_11  and  C_12 
REMARK    7  A    between atoms: C_20  and  C_21 
REMARK    8  A    between atoms: C_22  and  C_31 
REMARK    9  A    between atoms: C_32  and  C_31 
REMARK   10  A    between atoms: C_34  and  O_49 
REMARK       I    between atoms: N_36  and  C_37 
REMARK   11  A    between atoms: C_37  and  C_39 
REMARK   12  A    between atoms: C_39  and  C_40 
REMARK   13  A    between atoms: C_39  and  N_42 
REMARK       I    between atoms: N_42  and  C_43 
REMARK   14  A    between atoms: C_43  and  C_45 
REMARK   15  A    between atoms: C_45  and  N_47 
REMARK       I    between atoms: N_52  and  C_53 
REMARK   16  A    between atoms: C_53  and  C_55 
REMARK   17  A    between atoms: C_55  and  N_57 
ROOT
HETATM    1  C   UNK N   1      24.420  13.464   5.856  0.00  0.00    -0.015 A 
HETATM    2  C   UNK N   1      24.050  12.644   6.905  0.00  0.00    -0.001 A 
HETATM    3  C   UNK N   1      23.763  11.280   6.964  0.00  0.00     0.017 A 
HETATM    4  C   UNK N   1      23.522  10.704   8.221  0.00  0.00     0.043 A 
HETATM    5  C   UNK N   1      23.568  11.498   9.385  0.00  0.00     0.118 A 
HETATM    6  C   UNK N   1      23.813  12.879   9.292  0.00  0.00     0.072 A 
HETATM    7  C   UNK N   1      24.039  13.416   8.030  0.00  0.00     0.046 A 
HETATM    8  N   UNK N   1      24.321  14.696   7.746  0.00  0.00    -0.353 N 
HETATM    9  C   UNK N   1      24.564  14.743   6.414  0.00  0.00     0.067 A 
HETATM   10  F   UNK N   1      23.374  10.929  10.599  0.00  0.00    -0.206 F 
HETATM   11  H   UNK N   1      24.347  15.449   8.379  0.00  0.00     0.166 HD
ENDROOT
BRANCH   9  12
HETATM   12  C   UNK N   1      25.014  16.000   5.779  0.00  0.00     0.067 A 
HETATM   13  C   UNK N   1      26.345  16.314   5.510  0.00  0.00    -0.015 A 
HETATM   14  C   UNK N   1      26.325  17.476   4.796  0.00  0.00    -0.001 A 
HETATM   15  C   UNK N   1      27.368  18.219   4.249  0.00  0.00     0.017 A 
HETATM   16  C   UNK N   1      25.015  17.839   4.658  0.00  0.00     0.046 A 
HETATM   17  C   UNK N   1      27.036  19.365   3.511  0.00  0.00     0.043 A 
HETATM   18  C   UNK N   1      25.685  19.737   3.344  0.00  0.00     0.118 A 
HETATM   19  C   UNK N   1      24.655  18.971   3.931  0.00  0.00     0.072 A 
HETATM   20  F   UNK N   1      25.382  20.830   2.602  0.00  0.00    -0.206 F 
HETATM   21  N   UNK N   1      24.192  16.954   5.270  0.00  0.00    -0.353 N 
HETATM   22  H   UNK N   1      23.210  16.995   5.332  0.00  0.00     0.166 HD
BRANCH  13  23
HETATM   23  C   UNK N   1      27.574  15.570   5.923  0.00  0.00     0.067 C 
BRANCH  23  24
HETATM   24  C   UNK N   1      28.369  15.168   4.676  0.00  0.00     0.094 C 
HETATM   25  C   UNK N   1      27.728  13.983   3.960  0.00  0.00     0.059 C 
HETATM   26  C   UNK N   1      28.490  12.769   4.468  0.00  0.00     0.138 C 
HETATM   27  C   UNK N   1      29.880  13.284   4.789  0.00  0.00     0.158 C 
HETATM   28  N   UNK N   1      29.676  14.688   5.032  0.00  0.00    -0.343 N 
HETATM   29  C   UNK N   1      30.674  15.491   5.506  0.00  0.00     0.243 C 
HETATM   30  O   UNK N   1      31.776  15.027   5.741  0.00  0.00    -0.271 OA
BRANCH  26  31
HETATM   31  O   UNK N   1      28.541  11.773   3.495  0.00  0.00    -0.394 OA
HETATM   32  H   UNK N   1      28.744  10.824   3.483  0.00  0.00     0.210 HD
ENDBRANCH  26  31
BRANCH  29  33
HETATM   33  C   UNK N   1      30.431  16.960   5.738  0.00  0.00     0.176 C 
BRANCH  33  34
HETATM   34  C   UNK N   1      30.883  17.871   4.607  0.00  0.00     0.030 C 
HETATM   35  C   UNK N   1      32.333  17.609   4.246  0.00  0.00     0.007 C 
ENDBRANCH  33  34
BRANCH  33  36
HETATM   36  N   UNK N   1      30.780  17.349   7.098  0.00  0.00    -0.346 N 
HETATM   37  C   UNK N   1      30.022  17.946   8.068  0.00  0.00     0.240 C 
HETATM   38  O   UNK N   1      30.563  18.233   9.122  0.00  0.00    -0.271 OA
HETATM   39  H   UNK N   1      31.707  17.148   7.361  0.00  0.00     0.163 HD
BRANCH  37  40
HETATM   40  C   UNK N   1      28.564  18.308   7.923  0.00  0.00     0.165 C 
HETATM   41  C   UNK N   1      28.327  19.641   7.228  0.00  0.00     0.042 C 
BRANCH  40  42
HETATM   42  N   UNK N   1      27.844  18.210   9.185  0.00  0.00    -0.414 N 
HETATM   43  C   UNK N   1      27.713  16.797   9.504  0.00  0.00     0.140 C 
HETATM   44  H   UNK N   1      27.495  18.989   9.743  0.00  0.00     0.153 HD
ENDBRANCH  40  42
ENDBRANCH  37  40
ENDBRANCH  33  36
ENDBRANCH  29  33
ENDBRANCH  23  24
ENDBRANCH  13  23
ENDBRANCH   9  12
BRANCH   1  45
HETATM   45  C   UNK N   1      24.652  13.046   4.428  0.00  0.00     0.067 C 
BRANCH  45  46
HETATM   46  C   UNK N   1      23.372  13.042   3.561  0.00  0.00     0.094 C 
HETATM   47  C   UNK N   1      23.570  12.422   2.182  0.00  0.00     0.059 C 
HETATM   48  C   UNK N   1      23.453  13.581   1.169  0.00  0.00     0.138 C 
HETATM   49  C   UNK N   1      23.466  14.854   2.008  0.00  0.00     0.158 C 
HETATM   50  N   UNK N   1      22.964  14.382   3.262  0.00  0.00    -0.343 N 
HETATM   51  C   UNK N   1      21.868  14.943   3.831  0.00  0.00     0.243 C 
HETATM   52  O   UNK N   1      21.464  16.029   3.441  0.00  0.00    -0.271 OA
BRANCH  48  53
HETATM   53  O   UNK N   1      22.223  13.479   0.517  0.00  0.00    -0.394 OA
HETATM   54  H   UNK N   1      21.426  13.164   0.970  0.00  0.00     0.210 HD
ENDBRANCH  48  53
BRANCH  51  55
HETATM   55  C   UNK N   1      21.058  14.136   4.817  0.00  0.00     0.176 C 
BRANCH  55  56
HETATM   56  C   UNK N   1      19.802  13.573   4.159  0.00  0.00     0.030 C 
HETATM   57  C   UNK N   1      18.576  14.380   4.551  0.00  0.00     0.007 C 
ENDBRANCH  55  56
BRANCH  55  58
HETATM   58  N   UNK N   1      20.718  14.786   6.066  0.00  0.00    -0.346 N 
HETATM   59  C   UNK N   1      20.617  14.152   7.265  0.00  0.00     0.240 C 
HETATM   60  O   UNK N   1      20.631  12.933   7.335  0.00  0.00    -0.271 OA
HETATM   61  H   UNK N   1      20.548  15.755   6.047  0.00  0.00     0.163 HD
BRANCH  59  62
HETATM   62  C   UNK N   1      20.627  14.954   8.526  0.00  0.00     0.165 C 
HETATM   63  C   UNK N   1      20.545  14.074   9.754  0.00  0.00     0.042 C 
BRANCH  62  64
HETATM   64  N   UNK N   1      19.495  15.866   8.508  0.00  0.00    -0.414 N 
HETATM   65  C   UNK N   1      20.020  17.213   8.636  0.00  0.00     0.140 C 
HETATM   66  H   UNK N   1      18.512  15.607   8.422  0.00  0.00     0.153 HD
ENDBRANCH  62  64
ENDBRANCH  59  62
ENDBRANCH  55  58
ENDBRANCH  51  55
ENDBRANCH  45  46
ENDBRANCH   1  45
TORSDOF 17
ENDMDL
MODEL 4
REMARK VINA RESULT:      -8.2      2.839      5.966
REMARK  17 active torsions:
REMARK  status: ('A' for Active; 'I' for Inactive)
REMARK    1  A    between atoms: C_2  and  C_3 
REMARK    2  A    between atoms: C_3  and  C_4 
REMARK    3  A    between atoms: C_3  and  N_52 
REMARK       I    between atoms: C_4  and  N_6 
REMARK    4  A    between atoms: C_8  and  O_51 
REMARK    5  A    between atoms: C_10  and  C_11 
REMARK    6  A    between atoms: C_11  and  C_12 
REMARK    7  A    between atoms: C_20  and  C_21 
REMARK    8  A    between atoms: C_22  and  C_31 
REMARK    9  A    between atoms: C_32  and  C_31 
REMARK   10  A    between atoms: C_34  and  O_49 
REMARK       I    between atoms: N_36  and  C_37 
REMARK   11  A    between atoms: C_37  and  C_39 
REMARK   12  A    between atoms: C_39  and  C_40 
REMARK   13  A    between atoms: C_39  and  N_42 
REMARK       I    between atoms: N_42  and  C_43 
REMARK   14  A    between atoms: C_43  and  C_45 
REMARK   15  A    between atoms: C_45  and  N_47 
REMARK       I    between atoms: N_52  and  C_53 
REMARK   16  A    between atoms: C_53  and  C_55 
REMARK   17  A    between atoms: C_55  and  N_57 
ROOT
HETATM    1  C   UNK N   1      24.922  14.201   4.675  0.00  0.00    -0.015 A 
HETATM    2  C   UNK N   1      24.604  14.093   3.334  0.00  0.00    -0.001 A 
HETATM    3  C   UNK N   1      25.281  14.492   2.182  0.00  0.00     0.017 A 
HETATM    4  C   UNK N   1      24.741  14.135   0.937  0.00  0.00     0.043 A 
HETATM    5  C   UNK N   1      23.542  13.396   0.868  0.00  0.00     0.118 A 
HETATM    6  C   UNK N   1      22.856  13.048   2.045  0.00  0.00     0.072 A 
HETATM    7  C   UNK N   1      23.416  13.425   3.260  0.00  0.00     0.046 A 
HETATM    8  N   UNK N   1      22.930  13.157   4.480  0.00  0.00    -0.353 N 
HETATM    9  C   UNK N   1      23.846  13.622   5.363  0.00  0.00     0.067 A 
HETATM   10  F   UNK N   1      23.047  13.020  -0.335  0.00  0.00    -0.206 F 
HETATM   11  H   UNK N   1      22.079  12.710   4.692  0.00  0.00     0.166 HD
ENDROOT
BRANCH   9  12
HETATM   12  C   UNK N   1      23.673  13.392   6.813  0.00  0.00     0.067 A 
HETATM   13  C   UNK N   1      22.439  13.321   7.458  0.00  0.00    -0.015 A 
HETATM   14  C   UNK N   1      22.702  12.953   8.745  0.00  0.00    -0.001 A 
HETATM   15  C   UNK N   1      21.839  12.711   9.811  0.00  0.00     0.017 A 
HETATM   16  C   UNK N   1      24.058  12.822   8.855  0.00  0.00     0.046 A 
HETATM   17  C   UNK N   1      22.403  12.293  11.025  0.00  0.00     0.043 A 
HETATM   18  C   UNK N   1      23.801  12.133  11.143  0.00  0.00     0.118 A 
HETATM   19  C   UNK N   1      24.646  12.408  10.047  0.00  0.00     0.072 A 
HETATM   20  F   UNK N   1      24.324  11.699  12.315  0.00  0.00    -0.206 F 
HETATM   21  N   UNK N   1      24.677  13.103   7.683  0.00  0.00    -0.353 N 
HETATM   22  H   UNK N   1      25.644  13.100   7.501  0.00  0.00     0.166 HD
BRANCH  13  23
HETATM   23  C   UNK N   1      21.083  13.605   6.897  0.00  0.00     0.067 C 
BRANCH  23  24
HETATM   24  C   UNK N   1      20.988  15.089   6.524  0.00  0.00     0.094 C 
HETATM   25  C   UNK N   1      21.524  15.984   7.637  0.00  0.00     0.059 C 
HETATM   26  C   UNK N   1      20.290  16.410   8.415  0.00  0.00     0.138 C 
HETATM   27  C   UNK N   1      19.166  16.417   7.396  0.00  0.00     0.158 C 
HETATM   28  N   UNK N   1      19.617  15.497   6.385  0.00  0.00    -0.343 N 
HETATM   29  C   UNK N   1      18.811  15.105   5.355  0.00  0.00     0.243 C 
HETATM   30  O   UNK N   1      17.671  15.529   5.271  0.00  0.00    -0.271 OA
BRANCH  26  31
HETATM   31  O   UNK N   1      20.466  17.677   8.969  0.00  0.00    -0.394 OA
HETATM   32  H   UNK N   1      21.160  18.119   9.483  0.00  0.00     0.210 HD
ENDBRANCH  26  31
BRANCH  29  33
HETATM   33  C   UNK N   1      19.318  14.150   4.305  0.00  0.00     0.176 C 
BRANCH  33  34
HETATM   34  C   UNK N   1      19.767  14.803   3.007  0.00  0.00     0.030 C 
HETATM   35  C   UNK N   1      19.224  14.053   1.806  0.00  0.00     0.007 C 
ENDBRANCH  33  34
BRANCH  33  36
HETATM   36  N   UNK N   1      18.472  12.967   4.209  0.00  0.00    -0.346 N 
HETATM   37  C   UNK N   1      18.806  11.641   4.193  0.00  0.00     0.240 C 
HETATM   38  O   UNK N   1      17.912  10.826   4.039  0.00  0.00    -0.271 OA
HETATM   39  H   UNK N   1      17.507  13.153   4.146  0.00  0.00     0.163 HD
BRANCH  37  40
HETATM   40  C   UNK N   1      20.210  11.103   4.323  0.00  0.00     0.165 C 
HETATM   41  C   UNK N   1      20.658  10.260   3.139  0.00  0.00     0.042 C 
BRANCH  40  42
HETATM   42  N   UNK N   1      20.425  10.425   5.594  0.00  0.00    -0.414 N 
HETATM   43  C   UNK N   1      21.761   9.852   5.564  0.00  0.00     0.140 C 
HETATM   44  H   UNK N   1      19.759  10.363   6.364  0.00  0.00     0.153 HD
ENDBRANCH  40  42
ENDBRANCH  37  40
ENDBRANCH  33  36
ENDBRANCH  29  33
ENDBRANCH  23  24
ENDBRANCH  13  23
ENDBRANCH   9  12
BRANCH   1  45
HETATM   45  C   UNK N   1      26.183  14.787   5.254  0.00  0.00     0.067 C 
BRANCH  45  46
HETATM   46  C   UNK N   1      26.029  16.247   5.740  0.00  0.00     0.094 C 
HETATM   47  C   UNK N   1      24.605  16.781   5.629  0.00  0.00     0.059 C 
HETATM   48  C   UNK N   1      24.633  17.854   4.520  0.00  0.00     0.138 C 
HETATM   49  C   UNK N   1      25.996  17.706   3.850  0.00  0.00     0.158 C 
HETATM   50  N   UNK N   1      26.778  17.136   4.903  0.00  0.00    -0.343 N 
HETATM   51  C   UNK N   1      27.917  17.736   5.331  0.00  0.00     0.243 C 
HETATM   52  O   UNK N   1      28.446  18.602   4.649  0.00  0.00    -0.271 OA
BRANCH  48  53
HETATM   53  O   UNK N   1      24.554  19.113   5.116  0.00  0.00    -0.394 OA
HETATM   54  H   UNK N   1      24.898  19.282   6.007  0.00  0.00     0.210 HD
ENDBRANCH  48  53
BRANCH  51  55
HETATM   55  C   UNK N   1      28.417  17.452   6.727  0.00  0.00     0.176 C 
BRANCH  55  56
HETATM   56  C   UNK N   1      28.010  18.564   7.690  0.00  0.00     0.030 C 
HETATM   57  C   UNK N   1      28.707  18.402   9.030  0.00  0.00     0.007 C 
ENDBRANCH  55  56
BRANCH  55  58
HETATM   58  N   UNK N   1      29.830  17.164   6.866  0.00  0.00    -0.346 N 
HETATM   59  C   UNK N   1      30.454  16.080   6.334  0.00  0.00     0.240 C 
HETATM   60  O   UNK N   1      29.814  15.162   5.845  0.00  0.00    -0.271 OA
HETATM   61  H   UNK N   1      30.378  17.798   7.383  0.00  0.00     0.163 HD
BRANCH  59  62
HETATM   62  C   UNK N   1      31.944  16.068   6.222  0.00  0.00     0.165 C 
HETATM   63  C   UNK N   1      32.574  17.237   6.946  0.00  0.00     0.042 C 
BRANCH  62  64
HETATM   64  N   UNK N   1      32.306  16.118   4.814  0.00  0.00    -0.414 N 
HETATM   65  C   UNK N   1      32.665  17.490   4.507  0.00  0.00     0.140 C 
HETATM   66  H   UNK N   1      32.307  15.334   4.163  0.00  0.00     0.153 HD
ENDBRANCH  62  64
ENDBRANCH  59  62
ENDBRANCH  55  58
ENDBRANCH  51  55
ENDBRANCH  45  46
ENDBRANCH   1  45
TORSDOF 17
ENDMDL
MODEL 5
REMARK VINA RESULT:      -8.1      2.704      6.389
REMARK  17 active torsions:
REMARK  status: ('A' for Active; 'I' for Inactive)
REMARK    1  A    between atoms: C_2  and  C_3 
REMARK    2  A    between atoms: C_3  and  C_4 
REMARK    3  A    between atoms: C_3  and  N_52 
REMARK       I    between atoms: C_4  and  N_6 
REMARK    4  A    between atoms: C_8  and  O_51 
REMARK    5  A    between atoms: C_10  and  C_11 
REMARK    6  A    between atoms: C_11  and  C_12 
REMARK    7  A    between atoms: C_20  and  C_21 
REMARK    8  A    between atoms: C_22  and  C_31 
REMARK    9  A    between atoms: C_32  and  C_31 
REMARK   10  A    between atoms: C_34  and  O_49 
REMARK       I    between atoms: N_36  and  C_37 
REMARK   11  A    between atoms: C_37  and  C_39 
REMARK   12  A    between atoms: C_39  and  C_40 
REMARK   13  A    between atoms: C_39  and  N_42 
REMARK       I    between atoms: N_42  and  C_43 
REMARK   14  A    between atoms: C_43  and  C_45 
REMARK   15  A    between atoms: C_45  and  N_47 
REMARK       I    between atoms: N_52  and  C_53 
REMARK   16  A    between atoms: C_53  and  C_55 
REMARK   17  A    between atoms: C_55  and  N_57 
ROOT
HETATM    1  C   UNK N   1      28.570  14.374   3.700  0.00  0.00    -0.015 A 
HETATM    2  C   UNK N   1      28.400  13.180   3.026  0.00  0.00    -0.001 A 
HETATM    3  C   UNK N   1      29.060  11.955   3.121  0.00  0.00     0.017 A 
HETATM    4  C   UNK N   1      28.575  10.877   2.365  0.00  0.00     0.043 A 
HETATM    5  C   UNK N   1      27.450  11.045   1.531  0.00  0.00     0.118 A 
HETATM    6  C   UNK N   1      26.834  12.303   1.418  0.00  0.00     0.072 A 
HETATM    7  C   UNK N   1      27.346  13.349   2.176  0.00  0.00     0.046 A 
HETATM    8  N   UNK N   1      26.875  14.603   2.227  0.00  0.00    -0.353 N 
HETATM    9  C   UNK N   1      27.612  15.247   3.164  0.00  0.00     0.067 A 
HETATM   10  F   UNK N   1      26.963   9.991   0.834  0.00  0.00    -0.206 F 
HETATM   11  H   UNK N   1      26.140  14.981   1.691  0.00  0.00     0.166 HD
ENDROOT
BRANCH   9  12
HETATM   12  C   UNK N   1      27.283  16.634   3.552  0.00  0.00     0.067 A 
HETATM   13  C   UNK N   1      25.999  17.085   3.855  0.00  0.00    -0.015 A 
HETATM   14  C   UNK N   1      26.140  18.365   4.303  0.00  0.00    -0.001 A 
HETATM   15  C   UNK N   1      25.189  19.273   4.762  0.00  0.00     0.017 A 
HETATM   16  C   UNK N   1      27.474  18.662   4.255  0.00  0.00     0.046 A 
HETATM   17  C   UNK N   1      25.642  20.523   5.211  0.00  0.00     0.043 A 
HETATM   18  C   UNK N   1      27.019  20.831   5.187  0.00  0.00     0.118 A 
HETATM   19  C   UNK N   1      27.952  19.893   4.694  0.00  0.00     0.072 A 
HETATM   20  F   UNK N   1      27.441  22.030   5.653  0.00  0.00    -0.206 F 
HETATM   21  N   UNK N   1      28.193  17.617   3.780  0.00  0.00    -0.353 N 
HETATM   22  H   UNK N   1      29.166  17.579   3.632  0.00  0.00     0.166 HD
BRANCH  13  23
HETATM   23  C   UNK N   1      24.703  16.355   3.708  0.00  0.00     0.067 C 
BRANCH  23  24
HETATM   24  C   UNK N   1      24.220  15.893   5.088  0.00  0.00     0.094 C 
HETATM   25  C   UNK N   1      25.363  15.319   5.920  0.00  0.00     0.059 C 
HETATM   26  C   UNK N   1      25.267  13.815   5.716  0.00  0.00     0.138 C 
HETATM   27  C   UNK N   1      23.795  13.544   5.471  0.00  0.00     0.158 C 
HETATM   28  N   UNK N   1      23.296  14.798   4.969  0.00  0.00    -0.343 N 
HETATM   29  C   UNK N   1      22.028  14.927   4.481  0.00  0.00     0.243 C 
HETATM   30  O   UNK N   1      21.279  13.966   4.455  0.00  0.00    -0.271 OA
BRANCH  26  31
HETATM   31  O   UNK N   1      25.717  13.132   6.845  0.00  0.00    -0.394 OA
HETATM   32  H   UNK N   1      25.981  13.378   7.746  0.00  0.00     0.210 HD
ENDBRANCH  26  31
BRANCH  29  33
HETATM   33  C   UNK N   1      21.533  16.257   3.974  0.00  0.00     0.176 C 
BRANCH  33  34
HETATM   34  C   UNK N   1      20.760  17.083   4.991  0.00  0.00     0.030 C 
HETATM   35  C   UNK N   1      21.634  18.174   5.581  0.00  0.00     0.007 C 
ENDBRANCH  33  34
BRANCH  33  36
HETATM   36  N   UNK N   1      20.974  16.141   2.634  0.00  0.00    -0.346 N 
HETATM   37  C   UNK N   1      20.473  17.103   1.800  0.00  0.00     0.240 C 
HETATM   38  O   UNK N   1      19.997  16.747   0.735  0.00  0.00    -0.271 OA
HETATM   39  H   UNK N   1      20.955  15.227   2.271  0.00  0.00     0.163 HD
BRANCH  37  40
HETATM   40  C   UNK N   1      20.437  18.580   2.108  0.00  0.00     0.165 C 
HETATM   41  C   UNK N   1      19.167  19.029   2.817  0.00  0.00     0.042 C 
BRANCH  40  42
HETATM   42  N   UNK N   1      20.731  19.394   0.938  0.00  0.00    -0.414 N 
HETATM   43  C   UNK N   1      20.743  20.785   1.364  0.00  0.00     0.140 C 
HETATM   44  H   UNK N   1      20.898  19.052  -0.008  0.00  0.00     0.153 HD
ENDBRANCH  40  42
ENDBRANCH  37  40
ENDBRANCH  33  36
ENDBRANCH  29  33
ENDBRANCH  23  24
ENDBRANCH  13  23
ENDBRANCH   9  12
BRANCH   1  45
HETATM   45  C   UNK N   1      29.557  14.649   4.805  0.00  0.00     0.067 C 
BRANCH  45  46
HETATM   46  C   UNK N   1      30.897  15.242   4.313  0.00  0.00     0.094 C 
HETATM   47  C   UNK N   1      31.159  15.010   2.829  0.00  0.00     0.059 C 
HETATM   48  C   UNK N   1      32.334  14.012   2.750  0.00  0.00     0.138 C 
HETATM   49  C   UNK N   1      32.524  13.498   4.173  0.00  0.00     0.158 C 
HETATM   50  N   UNK N   1      31.999  14.582   4.946  0.00  0.00    -0.343 N 
HETATM   51  C   UNK N   1      32.754  15.193   5.894  0.00  0.00     0.243 C 
HETATM   52  O   UNK N   1      33.775  14.659   6.302  0.00  0.00    -0.271 OA
BRANCH  48  53
HETATM   53  O   UNK N   1      33.481  14.705   2.360  0.00  0.00    -0.394 OA
HETATM   54  H   UNK N   1      34.278  14.730   2.913  0.00  0.00     0.210 HD
ENDBRANCH  48  53
BRANCH  51  55
HETATM   55  C   UNK N   1      32.417  16.608   6.300  0.00  0.00     0.176 C 
BRANCH  55  56
HETATM   56  C   UNK N   1      33.679  17.459   6.413  0.00  0.00     0.030 C 
HETATM   57  C   UNK N   1      33.871  17.958   7.835  0.00  0.00     0.007 C 
ENDBRANCH  55  56
BRANCH  55  58
HETATM   58  N   UNK N   1      31.601  16.767   7.486  0.00  0.00    -0.346 N 
HETATM   59  C   UNK N   1      30.311  17.198   7.486  0.00  0.00     0.240 C 
HETATM   60  O   UNK N   1      29.803  17.661   6.476  0.00  0.00    -0.271 OA
HETATM   61  H   UNK N   1      32.009  16.548   8.356  0.00  0.00     0.163 HD
BRANCH  59  62
HETATM   62  C   UNK N   1      29.460  16.978   8.693  0.00  0.00     0.165 C 
HETATM   63  C   UNK N   1      28.079  17.574   8.526  0.00  0.00     0.042 C 
BRANCH  62  64
HETATM   64  N   UNK N   1      30.113  17.585   9.842  0.00  0.00    -0.414 N 
HETATM   65  C   UNK N   1      29.766  18.994   9.845  0.00  0.00     0.140 C 
HETATM   66  H   UNK N   1      30.706  17.108  10.521  0.00  0.00     0.153 HD
ENDBRANCH  62  64
ENDBRANCH  59  62
ENDBRANCH  55  58
ENDBRANCH  51  55
ENDBRANCH  45  46
ENDBRANCH   1  45
TORSDOF 17
ENDMDL
MODEL 6
REMARK VINA RESULT:      -8.1      3.400      9.182
REMARK  17 active torsions:
REMARK  status: ('A' for Active; 'I' for Inactive)
REMARK    1  A    between atoms: C_2  and  C_3 
REMARK    2  A    between atoms: C_3  and  C_4 
REMARK    3  A    between atoms: C_3  and  N_52 
REMARK       I    between atoms: C_4  and  N_6 
REMARK    4  A    between atoms: C_8  and  O_51 
REMARK    5  A    between atoms: C_10  and  C_11 
REMARK    6  A    between atoms: C_11  and  C_12 
REMARK    7  A    between atoms: C_20  and  C_21 
REMARK    8  A    between atoms: C_22  and  C_31 
REMARK    9  A    between atoms: C_32  and  C_31 
REMARK   10  A    between atoms: C_34  and  O_49 
REMARK       I    between atoms: N_36  and  C_37 
REMARK   11  A    between atoms: C_37  and  C_39 
REMARK   12  A    between atoms: C_39  and  C_40 
REMARK   13  A    between atoms: C_39  and  N_42 
REMARK       I    between atoms: N_42  and  C_43 
REMARK   14  A    between atoms: C_43  and  C_45 
REMARK   15  A    between atoms: C_45  and  N_47 
REMARK       I    between atoms: N_52  and  C_53 
REMARK   16  A    between atoms: C_53  and  C_55 
REMARK   17  A    between atoms: C_55  and  N_57 
ROOT
HETATM    1  C   UNK N   1      22.398  13.812   8.291  0.00  0.00    -0.015 A 
HETATM    2  C   UNK N   1      22.306  13.218   9.536  0.00  0.00    -0.001 A 
HETATM    3  C   UNK N   1      21.208  12.847  10.312  0.00  0.00     0.017 A 
HETATM    4  C   UNK N   1      21.443  12.150  11.507  0.00  0.00     0.043 A 
HETATM    5  C   UNK N   1      22.761  11.844  11.902  0.00  0.00     0.118 A 
HETATM    6  C   UNK N   1      23.852  12.271  11.125  0.00  0.00     0.072 A 
HETATM    7  C   UNK N   1      23.581  12.966   9.952  0.00  0.00     0.046 A 
HETATM    8  N   UNK N   1      24.481  13.422   9.069  0.00  0.00    -0.353 N 
HETATM    9  C   UNK N   1      23.771  13.940   8.038  0.00  0.00     0.067 A 
HETATM   10  F   UNK N   1      22.979  11.137  13.036  0.00  0.00    -0.206 F 
HETATM   11  H   UNK N   1      25.462  13.386   9.152  0.00  0.00     0.166 HD
ENDROOT
BRANCH   9  12
HETATM   12  C   UNK N   1      24.462  14.438   6.829  0.00  0.00     0.067 A 
HETATM   13  C   UNK N   1      25.052  13.623   5.865  0.00  0.00    -0.015 A 
HETATM   14  C   UNK N   1      25.442  14.450   4.854  0.00  0.00    -0.001 A 
HETATM   15  C   UNK N   1      26.057  14.163   3.637  0.00  0.00     0.017 A 
HETATM   16  C   UNK N   1      25.098  15.721   5.220  0.00  0.00     0.046 A 
HETATM   17  C   UNK N   1      26.298  15.231   2.760  0.00  0.00     0.043 A 
HETATM   18  C   UNK N   1      25.927  16.544   3.119  0.00  0.00     0.118 A 
HETATM   19  C   UNK N   1      25.325  16.800   4.370  0.00  0.00     0.072 A 
HETATM   20  F   UNK N   1      26.140  17.558   2.246  0.00  0.00    -0.206 F 
HETATM   21  N   UNK N   1      24.509  15.739   6.439  0.00  0.00    -0.353 N 
HETATM   22  H   UNK N   1      24.185  16.526   6.935  0.00  0.00     0.166 HD
BRANCH  13  23
HETATM   23  C   UNK N   1      25.258  12.143   5.905  0.00  0.00     0.067 C 
BRANCH  23  24
HETATM   24  C   UNK N   1      24.352  11.474   4.865  0.00  0.00     0.094 C 
HETATM   25  C   UNK N   1      22.895  11.455   5.318  0.00  0.00     0.059 C 
HETATM   26  C   UNK N   1      22.703  10.076   5.930  0.00  0.00     0.138 C 
HETATM   27  C   UNK N   1      23.671   9.177   5.186  0.00  0.00     0.158 C 
HETATM   28  N   UNK N   1      24.683  10.084   4.712  0.00  0.00    -0.343 N 
HETATM   29  C   UNK N   1      25.828   9.641   4.115  0.00  0.00     0.243 C 
HETATM   30  O   UNK N   1      26.024   8.446   3.973  0.00  0.00    -0.271 OA
BRANCH  26  31
HETATM   31  O   UNK N   1      21.389   9.639   5.763  0.00  0.00    -0.394 OA
HETATM   32  H   UNK N   1      20.727   9.685   5.056  0.00  0.00     0.210 HD
ENDBRANCH  26  31
BRANCH  29  33
HETATM   33  C   UNK N   1      26.863  10.618   3.619  0.00  0.00     0.176 C 
BRANCH  33  34
HETATM   34  C   UNK N   1      26.854  10.852   2.116  0.00  0.00     0.030 C 
HETATM   35  C   UNK N   1      27.774   9.876   1.409  0.00  0.00     0.007 C 
ENDBRANCH  33  34
BRANCH  33  36
HETATM   36  N   UNK N   1      28.153  10.398   4.261  0.00  0.00    -0.346 N 
HETATM   37  C   UNK N   1      29.169  11.276   4.524  0.00  0.00     0.240 C 
HETATM   38  O   UNK N   1      30.191  10.836   5.021  0.00  0.00    -0.271 OA
HETATM   39  H   UNK N   1      28.318   9.473   4.552  0.00  0.00     0.163 HD
BRANCH  37  40
HETATM   40  C   UNK N   1      29.134  12.754   4.218  0.00  0.00     0.165 C 
HETATM   41  C   UNK N   1      29.650  13.106   2.831  0.00  0.00     0.042 C 
BRANCH  40  42
HETATM   42  N   UNK N   1      29.770  13.546   5.260  0.00  0.00    -0.414 N 
HETATM   43  C   UNK N   1      29.345  14.925   5.082  0.00  0.00     0.140 C 
HETATM   44  H   UNK N   1      30.399  13.198   5.984  0.00  0.00     0.153 HD
ENDBRANCH  40  42
ENDBRANCH  37  40
ENDBRANCH  33  36
ENDBRANCH  29  33
ENDBRANCH  23  24
ENDBRANCH  13  23
ENDBRANCH   9  12
BRANCH   1  45
HETATM   45  C   UNK N   1      21.252  14.197   7.393  0.00  0.00     0.067 C 
BRANCH  45  46
HETATM   46  C   UNK N   1      21.025  15.722   7.287  0.00  0.00     0.094 C 
HETATM   47  C   UNK N   1      20.611  16.371   8.603  0.00  0.00     0.059 C 
HETATM   48  C   UNK N   1      19.143  16.811   8.422  0.00  0.00     0.138 C 
HETATM   49  C   UNK N   1      18.683  16.161   7.122  0.00  0.00     0.158 C 
HETATM   50  N   UNK N   1      19.921  16.007   6.420  0.00  0.00    -0.343 N 
HETATM   51  C   UNK N   1      20.095  16.542   5.186  0.00  0.00     0.243 C 
HETATM   52  O   UNK N   1      19.128  16.911   4.537  0.00  0.00    -0.271 OA
BRANCH  48  53
HETATM   53  O   UNK N   1      19.109  18.199   8.274  0.00  0.00    -0.394 OA
HETATM   54  H   UNK N   1      19.061  18.621   7.402  0.00  0.00     0.210 HD
ENDBRANCH  48  53
BRANCH  51  55
HETATM   55  C   UNK N   1      21.496  16.839   4.706  0.00  0.00     0.176 C 
BRANCH  55  56
HETATM   56  C   UNK N   1      21.868  18.294   4.975  0.00  0.00     0.030 C 
HETATM   57  C   UNK N   1      22.139  19.033   3.676  0.00  0.00     0.007 C 
ENDBRANCH  55  56
BRANCH  55  58
HETATM   58  N   UNK N   1      21.800  16.491   3.333  0.00  0.00    -0.346 N 
HETATM   59  C   UNK N   1      22.063  15.232   2.894  0.00  0.00     0.240 C 
HETATM   60  O   UNK N   1      22.240  14.315   3.681  0.00  0.00    -0.271 OA
HETATM   61  H   UNK N   1      21.818  17.219   2.670  0.00  0.00     0.163 HD
BRANCH  59  62
HETATM   62  C   UNK N   1      22.000  14.932   1.431  0.00  0.00     0.165 C 
HETATM   63  C   UNK N   1      20.939  13.903   1.112  0.00  0.00     0.042 C 
BRANCH  62  64
HETATM   64  N   UNK N   1      23.298  14.439   0.999  0.00  0.00    -0.414 N 
HETATM   65  C   UNK N   1      23.077  13.185   0.303  0.00  0.00     0.140 C 
HETATM   66  H   UNK N   1      24.198  14.892   1.156  0.00  0.00     0.153 HD
ENDBRANCH  62  64
ENDBRANCH  59  62
ENDBRANCH  55  58
ENDBRANCH  51  55
ENDBRANCH  45  46
ENDBRANCH   1  45
TORSDOF 17
ENDMDL
MODEL 7
REMARK VINA RESULT:      -8.1      4.000      8.307
REMARK  17 active torsions:
REMARK  status: ('A' for Active; 'I' for Inactive)
REMARK    1  A    between atoms: C_2  and  C_3 
REMARK    2  A    between atoms: C_3  and  C_4 
REMARK    3  A    between atoms: C_3  and  N_52 
REMARK       I    between atoms: C_4  and  N_6 
REMARK    4  A    between atoms: C_8  and  O_51 
REMARK    5  A    between atoms: C_10  and  C_11 
REMARK    6  A    between atoms: C_11  and  C_12 
REMARK    7  A    between atoms: C_20  and  C_21 
REMARK    8  A    between atoms: C_22  and  C_31 
REMARK    9  A    between atoms: C_32  and  C_31 
REMARK   10  A    between atoms: C_34  and  O_49 
REMARK       I    between atoms: N_36  and  C_37 
REMARK   11  A    between atoms: C_37  and  C_39 
REMARK   12  A    between atoms: C_39  and  C_40 
REMARK   13  A    between atoms: C_39  and  N_42 
REMARK       I    between atoms: N_42  and  C_43 
REMARK   14  A    between atoms: C_43  and  C_45 
REMARK   15  A    between atoms: C_45  and  N_47 
REMARK       I    between atoms: N_52  and  C_53 
REMARK   16  A    between atoms: C_53  and  C_55 
REMARK   17  A    between atoms: C_55  and  N_57 
ROOT
HETATM    1  C   UNK N   1      25.088  14.531   5.289  0.00  0.00    -0.015 A 
HETATM    2  C   UNK N   1      25.842  15.491   4.641  0.00  0.00    -0.001 A 
HETATM    3  C   UNK N   1      26.161  15.673   3.295  0.00  0.00     0.017 A 
HETATM    4  C   UNK N   1      26.869  16.828   2.929  0.00  0.00     0.043 A 
HETATM    5  C   UNK N   1      27.246  17.770   3.909  0.00  0.00     0.118 A 
HETATM    6  C   UNK N   1      26.953  17.538   5.264  0.00  0.00     0.072 A 
HETATM    7  C   UNK N   1      26.257  16.379   5.590  0.00  0.00     0.046 A 
HETATM    8  N   UNK N   1      25.861  16.005   6.815  0.00  0.00    -0.353 N 
HETATM    9  C   UNK N   1      25.135  14.873   6.648  0.00  0.00     0.067 A 
HETATM   10  F   UNK N   1      27.894  18.901   3.544  0.00  0.00    -0.206 F 
HETATM   11  H   UNK N   1      26.057  16.462   7.665  0.00  0.00     0.166 HD
ENDROOT
BRANCH   9  12
HETATM   12  C   UNK N   1      24.451  14.246   7.799  0.00  0.00     0.067 A 
HETATM   13  C   UNK N   1      23.076  14.034   7.879  0.00  0.00    -0.015 A 
HETATM   14  C   UNK N   1      22.868  13.307   9.014  0.00  0.00    -0.001 A 
HETATM   15  C   UNK N   1      21.691  12.800   9.560  0.00  0.00     0.017 A 
HETATM   16  C   UNK N   1      24.090  13.106   9.591  0.00  0.00     0.046 A 
HETATM   17  C   UNK N   1      21.792  12.035  10.732  0.00  0.00     0.043 A 
HETATM   18  C   UNK N   1      23.052  11.802  11.324  0.00  0.00     0.118 A 
HETATM   19  C   UNK N   1      24.221  12.351  10.753  0.00  0.00     0.072 A 
HETATM   20  F   UNK N   1      23.133  11.036  12.438  0.00  0.00    -0.206 F 
HETATM   21  N   UNK N   1      25.077  13.689   8.869  0.00  0.00    -0.353 N 
HETATM   22  H   UNK N   1      26.039  13.706   9.076  0.00  0.00     0.166 HD
BRANCH  13  23
HETATM   23  C   UNK N   1      22.009  14.511   6.946  0.00  0.00     0.067 C 
BRANCH  23  24
HETATM   24  C   UNK N   1      21.522  15.894   7.395  0.00  0.00     0.094 C 
HETATM   25  C   UNK N   1      20.782  15.824   8.727  0.00  0.00     0.059 C 
HETATM   26  C   UNK N   1      19.311  15.761   8.346  0.00  0.00     0.138 C 
HETATM   27  C   UNK N   1      19.213  16.512   7.032  0.00  0.00     0.158 C 
HETATM   28  N   UNK N   1      20.540  16.413   6.483  0.00  0.00    -0.343 N 
HETATM   29  C   UNK N   1      20.831  16.838   5.219  0.00  0.00     0.243 C 
HETATM   30  O   UNK N   1      19.958  17.315   4.514  0.00  0.00    -0.271 OA
BRANCH  26  31
HETATM   31  O   UNK N   1      18.520  16.363   9.324  0.00  0.00    -0.394 OA
HETATM   32  H   UNK N   1      17.785  16.083   9.890  0.00  0.00     0.210 HD
ENDBRANCH  26  31
BRANCH  29  33
HETATM   33  C   UNK N   1      22.234  16.731   4.677  0.00  0.00     0.176 C 
BRANCH  33  34
HETATM   34  C   UNK N   1      23.168  17.857   5.092  0.00  0.00     0.030 C 
HETATM   35  C   UNK N   1      23.604  18.672   3.889  0.00  0.00     0.007 C 
ENDBRANCH  33  34
BRANCH  33  36
HETATM   36  N   UNK N   1      22.234  16.336   3.275  0.00  0.00    -0.346 N 
HETATM   37  C   UNK N   1      21.704  15.229   2.670  0.00  0.00     0.240 C 
HETATM   38  O   UNK N   1      21.890  15.086   1.473  0.00  0.00    -0.271 OA
HETATM   39  H   UNK N   1      22.686  16.965   2.667  0.00  0.00     0.163 HD
BRANCH  37  40
HETATM   40  C   UNK N   1      20.926  14.147   3.378  0.00  0.00     0.165 C 
HETATM   41  C   UNK N   1      21.306  12.737   2.950  0.00  0.00     0.042 C 
BRANCH  40  42
HETATM   42  N   UNK N   1      19.489  14.373   3.316  0.00  0.00    -0.414 N 
HETATM   43  C   UNK N   1      18.907  13.821   4.530  0.00  0.00     0.140 C 
HETATM   44  H   UNK N   1      18.982  14.833   2.560  0.00  0.00     0.153 HD
ENDBRANCH  40  42
ENDBRANCH  37  40
ENDBRANCH  33  36
ENDBRANCH  29  33
ENDBRANCH  23  24
ENDBRANCH  13  23
ENDBRANCH   9  12
BRANCH   1  45
HETATM   45  C   UNK N   1      24.346  13.388   4.647  0.00  0.00     0.067 C 
BRANCH  45  46
HETATM   46  C   UNK N   1      24.890  11.994   5.034  0.00  0.00     0.094 C 
HETATM   47  C   UNK N   1      26.405  11.956   5.207  0.00  0.00     0.059 C 
HETATM   48  C   UNK N   1      26.951  11.112   4.036  0.00  0.00     0.138 C 
HETATM   49  C   UNK N   1      25.772  10.926   3.087  0.00  0.00     0.158 C 
HETATM   50  N   UNK N   1      24.659  11.055   3.977  0.00  0.00    -0.343 N 
HETATM   51  C   UNK N   1      23.731  10.070   4.082  0.00  0.00     0.243 C 
HETATM   52  O   UNK N   1      23.666   9.198   3.228  0.00  0.00    -0.271 OA
BRANCH  48  53
HETATM   53  O   UNK N   1      27.338   9.865   4.529  0.00  0.00    -0.394 OA
HETATM   54  H   UNK N   1      26.775   9.353   5.129  0.00  0.00     0.210 HD
ENDBRANCH  48  53
BRANCH  51  55
HETATM   55  C   UNK N   1      22.911   9.966   5.346  0.00  0.00     0.176 C 
BRANCH  55  56
HETATM   56  C   UNK N   1      23.652   9.166   6.413  0.00  0.00     0.030 C 
HETATM   57  C   UNK N   1      23.699   9.928   7.726  0.00  0.00     0.007 C 
ENDBRANCH  55  56
BRANCH  55  58
HETATM   58  N   UNK N   1      21.557   9.472   5.203  0.00  0.00    -0.346 N 
HETATM   59  C   UNK N   1      20.439  10.178   5.518  0.00  0.00     0.240 C 
HETATM   60  O   UNK N   1      20.513  11.235   6.125  0.00  0.00    -0.271 OA
HETATM   61  H   UNK N   1      21.436   8.559   4.853  0.00  0.00     0.163 HD
BRANCH  59  62
HETATM   62  C   UNK N   1      19.112   9.730   4.998  0.00  0.00     0.165 C 
HETATM   63  C   UNK N   1      18.793   8.311   5.414  0.00  0.00     0.042 C 
BRANCH  62  64
HETATM   64  N   UNK N   1      19.125   9.817   3.546  0.00  0.00    -0.414 N 
HETATM   65  C   UNK N   1      18.013  10.661   3.151  0.00  0.00     0.140 C 
HETATM   66  H   UNK N   1      19.794   9.368   2.921  0.00  0.00     0.153 HD
ENDBRANCH  62  64
ENDBRANCH  59  62
ENDBRANCH  55  58
ENDBRANCH  51  55
ENDBRANCH  45  46
ENDBRANCH   1  45
TORSDOF 17
ENDMDL
MODEL 8
REMARK VINA RESULT:      -7.9      5.139      7.769
REMARK  17 active torsions:
REMARK  status: ('A' for Active; 'I' for Inactive)
REMARK    1  A    between atoms: C_2  and  C_3 
REMARK    2  A    between atoms: C_3  and  C_4 
REMARK    3  A    between atoms: C_3  and  N_52 
REMARK       I    between atoms: C_4  and  N_6 
REMARK    4  A    between atoms: C_8  and  O_51 
REMARK    5  A    between atoms: C_10  and  C_11 
REMARK    6  A    between atoms: C_11  and  C_12 
REMARK    7  A    between atoms: C_20  and  C_21 
REMARK    8  A    between atoms: C_22  and  C_31 
REMARK    9  A    between atoms: C_32  and  C_31 
REMARK   10  A    between atoms: C_34  and  O_49 
REMARK       I    between atoms: N_36  and  C_37 
REMARK   11  A    between atoms: C_37  and  C_39 
REMARK   12  A    between atoms: C_39  and  C_40 
REMARK   13  A    between atoms: C_39  and  N_42 
REMARK       I    between atoms: N_42  and  C_43 
REMARK   14  A    between atoms: C_43  and  C_45 
REMARK   15  A    between atoms: C_45  and  N_47 
REMARK       I    between atoms: N_52  and  C_53 
REMARK   16  A    between atoms: C_53  and  C_55 
REMARK   17  A    between atoms: C_55  and  N_57 
ROOT
HETATM    1  C   UNK N   1      30.559  16.249   6.584  0.00  0.00    -0.015 A 
HETATM    2  C   UNK N   1      29.638  17.239   6.871  0.00  0.00    -0.001 A 
HETATM    3  C   UNK N   1      29.159  17.742   8.080  0.00  0.00     0.017 A 
HETATM    4  C   UNK N   1      28.292  18.845   8.044  0.00  0.00     0.043 A 
HETATM    5  C   UNK N   1      27.920  19.416   6.809  0.00  0.00     0.118 A 
HETATM    6  C   UNK N   1      28.381  18.859   5.604  0.00  0.00     0.072 A 
HETATM    7  C   UNK N   1      29.232  17.762   5.678  0.00  0.00     0.046 A 
HETATM    8  N   UNK N   1      29.796  17.119   4.645  0.00  0.00    -0.353 N 
HETATM    9  C   UNK N   1      30.621  16.189   5.184  0.00  0.00     0.067 A 
HETATM   10  F   UNK N   1      27.116  20.505   6.784  0.00  0.00    -0.206 F 
HETATM   11  H   UNK N   1      29.643  17.290   3.688  0.00  0.00     0.166 HD
ENDROOT
BRANCH   9  12
HETATM   12  C   UNK N   1      31.490  15.366   4.316  0.00  0.00     0.067 A 
HETATM   13  C   UNK N   1      31.077  14.209   3.658  0.00  0.00    -0.015 A 
HETATM   14  C   UNK N   1      32.114  13.837   2.854  0.00  0.00    -0.001 A 
HETATM   15  C   UNK N   1      32.231  12.774   1.962  0.00  0.00     0.017 A 
HETATM   16  C   UNK N   1      33.115  14.748   3.043  0.00  0.00     0.046 A 
HETATM   17  C   UNK N   1      33.419  12.669   1.223  0.00  0.00     0.043 A 
HETATM   18  C   UNK N   1      34.450  13.617   1.396  0.00  0.00     0.118 A 
HETATM   19  C   UNK N   1      34.304  14.670   2.324  0.00  0.00     0.072 A 
HETATM   20  F   UNK N   1      35.577  13.518   0.651  0.00  0.00    -0.206 F 
HETATM   21  N   UNK N   1      32.759  15.688   3.951  0.00  0.00    -0.353 N 
HETATM   22  H   UNK N   1      33.302  16.442   4.277  0.00  0.00     0.166 HD
BRANCH  13  23
HETATM   23  C   UNK N   1      29.780  13.478   3.795  0.00  0.00     0.067 C 
BRANCH  23  24
HETATM   24  C   UNK N   1      29.106  13.374   2.422  0.00  0.00     0.094 C 
HETATM   25  C   UNK N   1      28.559  14.722   1.962  0.00  0.00     0.059 C 
HETATM   26  C   UNK N   1      27.089  14.692   2.351  0.00  0.00     0.138 C 
HETATM   27  C   UNK N   1      26.696  13.228   2.292  0.00  0.00     0.158 C 
HETATM   28  N   UNK N   1      27.943  12.532   2.483  0.00  0.00    -0.343 N 
HETATM   29  C   UNK N   1      27.996  11.179   2.647  0.00  0.00     0.243 C 
HETATM   30  O   UNK N   1      26.971  10.518   2.640  0.00  0.00    -0.271 OA
BRANCH  26  31
HETATM   31  O   UNK N   1      26.326  15.447   1.462  0.00  0.00    -0.394 OA
HETATM   32  H   UNK N   1      26.101  15.393   0.520  0.00  0.00     0.210 HD
ENDBRANCH  26  31
BRANCH  29  33
HETATM   33  C   UNK N   1      29.318  10.480   2.833  0.00  0.00     0.176 C 
BRANCH  33  34
HETATM   34  C   UNK N   1      29.740   9.588   1.676  0.00  0.00     0.030 C 
HETATM   35  C   UNK N   1      29.813  10.376   0.382  0.00  0.00     0.007 C 
ENDBRANCH  33  34
BRANCH  33  36
HETATM   36  N   UNK N   1      29.452   9.945   4.182  0.00  0.00    -0.346 N 
HETATM   37  C   UNK N   1      30.513   9.979   5.045  0.00  0.00     0.240 C 
HETATM   38  O   UNK N   1      30.404   9.398   6.111  0.00  0.00    -0.271 OA
HETATM   39  H   UNK N   1      28.652   9.487   4.527  0.00  0.00     0.163 HD
BRANCH  37  40
HETATM   40  C   UNK N   1      31.830  10.662   4.766  0.00  0.00     0.165 C 
HETATM   41  C   UNK N   1      32.911   9.724   4.250  0.00  0.00     0.042 C 
BRANCH  40  42
HETATM   42  N   UNK N   1      32.286  11.460   5.895  0.00  0.00    -0.414 N 
HETATM   43  C   UNK N   1      33.610  11.964   5.567  0.00  0.00     0.140 C 
HETATM   44  H   UNK N   1      31.772  11.633   6.759  0.00  0.00     0.153 HD
ENDBRANCH  40  42
ENDBRANCH  37  40
ENDBRANCH  33  36
ENDBRANCH  29  33
ENDBRANCH  23  24
ENDBRANCH  13  23
ENDBRANCH   9  12
BRANCH   1  45
HETATM   45  C   UNK N   1      31.351  15.442   7.580  0.00  0.00     0.067 C 
BRANCH  45  46
HETATM   46  C   UNK N   1      32.518  16.221   8.229  0.00  0.00     0.094 C 
HETATM   47  C   UNK N   1      32.561  17.694   7.839  0.00  0.00     0.059 C 
HETATM   48  C   UNK N   1      33.813  17.869   6.954  0.00  0.00     0.138 C 
HETATM   49  C   UNK N   1      34.287  16.454   6.641  0.00  0.00     0.158 C 
HETATM   50  N   UNK N   1      33.776  15.722   7.759  0.00  0.00    -0.343 N 
HETATM   51  C   UNK N   1      34.600  14.992   8.552  0.00  0.00     0.243 C 
HETATM   52  O   UNK N   1      35.727  14.713   8.171  0.00  0.00    -0.271 OA
BRANCH  48  53
HETATM   53  O   UNK N   1      34.796  18.525   7.696  0.00  0.00    -0.394 OA
HETATM   54  H   UNK N   1      35.741  18.401   7.519  0.00  0.00     0.210 HD
ENDBRANCH  48  53
BRANCH  51  55
HETATM   55  C   UNK N   1      34.176  14.687   9.969  0.00  0.00     0.176 C 
BRANCH  55  56
HETATM   56  C   UNK N   1      34.923  15.569  10.964  0.00  0.00     0.030 C 
HETATM   57  C   UNK N   1      35.593  14.728  12.037  0.00  0.00     0.007 C 
ENDBRANCH  55  56
BRANCH  55  58
HETATM   58  N   UNK N   1      34.242  13.300  10.384  0.00  0.00    -0.346 N 
HETATM   59  C   UNK N   1      33.632  12.270   9.739  0.00  0.00     0.240 C 
HETATM   60  O   UNK N   1      32.821  12.477   8.850  0.00  0.00    -0.271 OA
HETATM   61  H   UNK N   1      34.766  13.088  11.190  0.00  0.00     0.163 HD
BRANCH  59  62
HETATM   62  C   UNK N   1      34.056  10.866  10.025  0.00  0.00     0.165 C 
HETATM   63  C   UNK N   1      33.989   9.995   8.790  0.00  0.00     0.042 C 
BRANCH  62  64
HETATM   64  N   UNK N   1      33.188  10.316  11.054  0.00  0.00    -0.414 N 
HETATM   65  C   UNK N   1      33.996  10.118  12.243  0.00  0.00     0.140 C 
HETATM   66  H   UNK N   1      32.195  10.108  10.957  0.00  0.00     0.153 HD
ENDBRANCH  62  64
ENDBRANCH  59  62
ENDBRANCH  55  58
ENDBRANCH  51  55
ENDBRANCH  45  46
ENDBRANCH   1  45
TORSDOF 17
ENDMDL
MODEL 9
REMARK VINA RESULT:      -7.9      2.454      4.513
REMARK  17 active torsions:
REMARK  status: ('A' for Active; 'I' for Inactive)
REMARK    1  A    between atoms: C_2  and  C_3 
REMARK    2  A    between atoms: C_3  and  C_4 
REMARK    3  A    between atoms: C_3  and  N_52 
REMARK       I    between atoms: C_4  and  N_6 
REMARK    4  A    between atoms: C_8  and  O_51 
REMARK    5  A    between atoms: C_10  and  C_11 
REMARK    6  A    between atoms: C_11  and  C_12 
REMARK    7  A    between atoms: C_20  and  C_21 
REMARK    8  A    between atoms: C_22  and  C_31 
REMARK    9  A    between atoms: C_32  and  C_31 
REMARK   10  A    between atoms: C_34  and  O_49 
REMARK       I    between atoms: N_36  and  C_37 
REMARK   11  A    between atoms: C_37  and  C_39 
REMARK   12  A    between atoms: C_39  and  C_40 
REMARK   13  A    between atoms: C_39  and  N_42 
REMARK       I    between atoms: N_42  and  C_43 
REMARK   14  A    between atoms: C_43  and  C_45 
REMARK   15  A    between atoms: C_45  and  N_47 
REMARK       I    between atoms: N_52  and  C_53 
REMARK   16  A    between atoms: C_53  and  C_55 
REMARK   17  A    between atoms: C_55  and  N_57 
ROOT
HETATM    1  C   UNK N   1      26.488  16.557   3.967  0.00  0.00    -0.015 A 
HETATM    2  C   UNK N   1      26.775  17.887   4.210  0.00  0.00    -0.001 A 
HETATM    3  C   UNK N   1      27.450  18.847   3.455  0.00  0.00     0.017 A 
HETATM    4  C   UNK N   1      27.483  20.166   3.933  0.00  0.00     0.043 A 
HETATM    5  C   UNK N   1      26.849  20.497   5.148  0.00  0.00     0.118 A 
HETATM    6  C   UNK N   1      26.216  19.501   5.911  0.00  0.00     0.072 A 
HETATM    7  C   UNK N   1      26.211  18.204   5.411  0.00  0.00     0.046 A 
HETATM    8  N   UNK N   1      25.633  17.133   5.976  0.00  0.00    -0.353 N 
HETATM    9  C   UNK N   1      25.789  16.113   5.098  0.00  0.00     0.067 A 
HETATM   10  F   UNK N   1      26.850  21.779   5.583  0.00  0.00    -0.206 F 
HETATM   11  H   UNK N   1      25.185  17.097   6.851  0.00  0.00     0.166 HD
ENDROOT
BRANCH   9  12
HETATM   12  C   UNK N   1      25.169  14.797   5.363  0.00  0.00     0.067 A 
HETATM   13  C   UNK N   1      23.879  14.440   4.973  0.00  0.00    -0.015 A 
HETATM   14  C   UNK N   1      23.745  13.116   5.268  0.00  0.00    -0.001 A 
HETATM   15  C   UNK N   1      22.674  12.248   5.065  0.00  0.00     0.017 A 
HETATM   16  C   UNK N   1      24.924  12.707   5.826  0.00  0.00     0.046 A 
HETATM   17  C   UNK N   1      22.844  10.904   5.430  0.00  0.00     0.043 A 
HETATM   18  C   UNK N   1      24.066  10.468   5.987  0.00  0.00     0.118 A 
HETATM   19  C   UNK N   1      25.121  11.381   6.198  0.00  0.00     0.072 A 
HETATM   20  F   UNK N   1      24.222   9.160   6.305  0.00  0.00    -0.206 F 
HETATM   21  N   UNK N   1      25.808  13.729   5.909  0.00  0.00    -0.353 N 
HETATM   22  H   UNK N   1      26.718  13.704   6.285  0.00  0.00     0.166 HD
BRANCH  13  23
HETATM   23  C   UNK N   1      22.820  15.308   4.374  0.00  0.00     0.067 C 
BRANCH  23  24
HETATM   24  C   UNK N   1      22.162  16.144   5.478  0.00  0.00     0.094 C 
HETATM   25  C   UNK N   1      22.212  15.432   6.827  0.00  0.00     0.059 C 
HETATM   26  C   UNK N   1      20.858  14.752   6.952  0.00  0.00     0.138 C 
HETATM   27  C   UNK N   1      19.902  15.631   6.167  0.00  0.00     0.158 C 
HETATM   28  N   UNK N   1      20.756  16.310   5.228  0.00  0.00    -0.343 N 
HETATM   29  C   UNK N   1      20.253  17.090   4.228  0.00  0.00     0.243 C 
HETATM   30  O   UNK N   1      19.048  17.227   4.103  0.00  0.00    -0.271 OA
BRANCH  26  31
HETATM   31  O   UNK N   1      20.469  14.663   8.287  0.00  0.00    -0.394 OA
HETATM   32  H   UNK N   1      20.032  13.996   8.840  0.00  0.00     0.210 HD
ENDBRANCH  26  31
BRANCH  29  33
HETATM   33  C   UNK N   1      21.174  17.798   3.269  0.00  0.00     0.176 C 
BRANCH  33  34
HETATM   34  C   UNK N   1      21.659  19.162   3.734  0.00  0.00     0.030 C 
HETATM   35  C   UNK N   1      23.174  19.229   3.735  0.00  0.00     0.007 C 
ENDBRANCH  33  34
BRANCH  33  36
HETATM   36  N   UNK N   1      20.704  17.681   1.895  0.00  0.00    -0.346 N 
HETATM   37  C   UNK N   1      20.403  16.570   1.156  0.00  0.00     0.240 C 
HETATM   38  O   UNK N   1      20.084  16.726  -0.011  0.00  0.00    -0.271 OA
HETATM   39  H   UNK N   1      20.582  18.537   1.424  0.00  0.00     0.163 HD
BRANCH  37  40
HETATM   40  C   UNK N   1      20.464  15.151   1.667  0.00  0.00     0.165 C 
HETATM   41  C   UNK N   1      21.193  14.193   0.736  0.00  0.00     0.042 C 
BRANCH  40  42
HETATM   42  N   UNK N   1      19.154  14.650   2.057  0.00  0.00    -0.414 N 
HETATM   43  C   UNK N   1      19.364  13.456   2.860  0.00  0.00     0.140 C 
HETATM   44  H   UNK N   1      18.253  15.060   1.811  0.00  0.00     0.153 HD
ENDBRANCH  40  42
ENDBRANCH  37  40
ENDBRANCH  33  36
ENDBRANCH  29  33
ENDBRANCH  23  24
ENDBRANCH  13  23
ENDBRANCH   9  12
BRANCH   1  45
HETATM   45  C   UNK N   1      26.829  15.777   2.724  0.00  0.00     0.067 C 
BRANCH  45  46
HETATM   46  C   UNK N   1      28.315  15.362   2.634  0.00  0.00     0.094 C 
HETATM   47  C   UNK N   1      28.655  14.573   1.374  0.00  0.00     0.059 C 
HETATM   48  C   UNK N   1      28.969  13.135   1.838  0.00  0.00     0.138 C 
HETATM   49  C   UNK N   1      28.536  13.078   3.299  0.00  0.00     0.158 C 
HETATM   50  N   UNK N   1      28.646  14.450   3.689  0.00  0.00    -0.343 N 
HETATM   51  C   UNK N   1      29.423  14.818   4.739  0.00  0.00     0.243 C 
HETATM   52  O   UNK N   1      29.809  13.978   5.538  0.00  0.00    -0.271 OA
BRANCH  48  53
HETATM   53  O   UNK N   1      30.348  12.934   1.764  0.00  0.00    -0.394 OA
HETATM   54  H   UNK N   1      30.962  13.362   2.381  0.00  0.00     0.210 HD
ENDBRANCH  48  53
BRANCH  51  55
HETATM   55  C   UNK N   1      29.947  16.233   4.804  0.00  0.00     0.176 C 
BRANCH  55  56
HETATM   56  C   UNK N   1      30.924  16.505   3.664  0.00  0.00     0.030 C 
HETATM   57  C   UNK N   1      31.995  17.494   4.093  0.00  0.00     0.007 C 
ENDBRANCH  55  56
BRANCH  55  58
HETATM   58  N   UNK N   1      30.521  16.656   6.065  0.00  0.00    -0.346 N 
HETATM   59  C   UNK N   1      29.801  17.004   7.164  0.00  0.00     0.240 C 
HETATM   60  O   UNK N   1      28.591  17.157   7.101  0.00  0.00    -0.271 OA
HETATM   61  H   UNK N   1      31.503  16.696   6.131  0.00  0.00     0.163 HD
BRANCH  59  62
HETATM   62  C   UNK N   1      30.473  17.066   8.497  0.00  0.00     0.165 C 
HETATM   63  C   UNK N   1      29.572  17.663   9.556  0.00  0.00     0.042 C 
BRANCH  62  64
HETATM   64  N   UNK N   1      31.677  17.872   8.376  0.00  0.00    -0.414 N 
HETATM   65  C   UNK N   1      32.808  17.012   8.671  0.00  0.00     0.140 C 
HETATM   66  H   UNK N   1      31.719  18.861   8.128  0.00  0.00     0.153 HD
ENDBRANCH  62  64
ENDBRANCH  59  62
ENDBRANCH  55  58
ENDBRANCH  51  55
ENDBRANCH  45  46
ENDBRANCH   1  45
TORSDOF 17
ENDMDL
