MODEL 1
REMARK VINA RESULT:      -8.0      0.000      0.000
REMARK  9 active torsions:
REMARK  status: ('A' for Active; 'I' for Inactive)
REMARK    1  A    between atoms: C_2  and  C_3 
REMARK    2  A    between atoms: C_2  and  N_35 
REMARK    3  A    between atoms: C_3  and  N_4 
REMARK       I    between atoms: N_4  and  C_5 
REMARK    4  A    between atoms: C_10  and  C_13 
REMARK    5  A    between atoms: N_15  and  C_32 
REMARK    6  A    between atoms: C_18  and  C_19 
REMARK    7  A    between atoms: C_23  and  N_26 
REMARK    8  A    between atoms: N_26  and  S_27 
REMARK       I    between atoms: N_35  and  C_36 
REMARK    9  A    between atoms: C_36  and  O_38 
ROOT
HETATM    1  C   UNK N   1      23.131  18.670   4.119  0.00  0.00     0.037 A 
HETATM    2  C   UNK N   1      24.048  19.673   3.841  0.00  0.00     0.126 A 
HETATM    3  N   UNK N   1      25.147  19.451   4.579  0.00  0.00    -0.298 N 
HETATM    4  N   UNK N   1      24.991  18.363   5.311  0.00  0.00    -0.297 N 
ATOM      5  HN  UNK N   1      25.683  17.974   5.951  1.00  0.00     0.187 HD
HETATM    6  C   UNK N   1      23.765  17.850   5.075  0.00  0.00     0.075 A 
ENDROOT
BRANCH   1   7
HETATM    7  C   UNK N   1      21.825  18.596   3.412  0.00  0.00     0.064 A 
HETATM    8  C   UNK N   1      21.183  19.791   3.057  0.00  0.00     0.048 A 
HETATM    9  C   UNK N   1      19.990  19.737   2.349  0.00  0.00     0.108 A 
HETATM   10  N   UNK N   1      19.470  18.535   1.997  0.00  0.00    -0.202 N 
HETATM   11  C   UNK N   1      20.099  17.379   2.331  0.00  0.00     0.678 A 
ATOM     12  HN  UNK N   1      18.595  18.500   1.473  1.00  0.00     0.183 HD
HETATM   13  N   UNK N   1      19.538  16.150   1.920  0.00  0.00    -0.224 N 
HETATM   14  N   UNK N   1      21.269  17.413   3.035  0.00  0.00    -0.191 N 
HETATM   15  H   UNK N   1      18.685  16.150   1.429  0.00  0.00     0.177 HD
ATOM     16  HN  UNK N   1      21.733  16.539   3.282  1.00  0.00     0.184 HD
BRANCH  13  17
HETATM   17  C   UNK N   1      20.184  14.900   2.203  0.00  0.00     0.163 C 
BRANCH  17  18
HETATM   18  C   UNK N   1      19.207  13.745   2.059  0.00  0.00     0.101 C 
HETATM   19  C   UNK N   1      19.240  13.204   0.638  0.00  0.00     0.034 C 
BRANCH  18  20
HETATM   20  N   UNK N   1      19.479  12.695   3.023  0.00  0.00    -0.331 N 
HETATM   21  C   UNK N   1      18.843  12.572   4.218  0.00  0.00     0.360 C 
HETATM   22  O   UNK N   1      17.981  13.376   4.549  0.00  0.00    -0.239 OA
HETATM   23  H   UNK N   1      20.168  12.029   2.796  0.00  0.00     0.165 HD
BRANCH  21  24
HETATM   24  O   UNK N   1      19.171  11.541   5.032  0.00  0.00    -0.309 OA
HETATM   25  C   UNK N   1      20.374  11.480   5.697  0.00  0.00     0.215 C 
ENDBRANCH  21  24
ENDBRANCH  18  20
ENDBRANCH  17  18
ENDBRANCH  13  17
ENDBRANCH   1   7
BRANCH   6  26
HETATM   26  C   UNK N   1      23.299  16.628   5.802  0.00  0.00     0.035 A 
HETATM   27  C   UNK N   1      24.122  15.500   5.953  0.00  0.00     0.041 A 
HETATM   28  C   UNK N   1      23.643  14.350   6.599  0.00  0.00     0.037 A 
HETATM   29  C   UNK N   1      22.354  14.324   7.114  0.00  0.00     0.057 A 
HETATM   30 Cl   UNK N   1      24.611  12.896   6.695  0.00  0.00    -0.084 Cl
HETATM   31  C   UNK N   1      21.513  15.427   6.975  0.00  0.00     0.083 A 
HETATM   32  C   UNK N   1      21.973  16.569   6.306  0.00  0.00     0.156 A 
HETATM   33  F   UNK N   1      21.129  17.626   6.172  0.00  0.00    -0.203 F 
BRANCH  31  34
HETATM   34  N   UNK N   1      20.186  15.395   7.486  0.00  0.00    -0.282 N 
HETATM   35  H   UNK N   1      19.573  14.702   7.149  0.00  0.00     0.178 HD
BRANCH  34  36
HETATM   36  S   UNK N   1      19.584  16.534   8.691  0.00  0.00     0.227 S 
HETATM   37  O   UNK N   1      19.227  15.216   9.395  0.00  0.00    -0.206 OA
HETATM   38  O   UNK N   1      18.497  16.593   7.606  0.00  0.00    -0.206 OA
HETATM   39  C   UNK N   1      17.912  16.612   9.386  0.00  0.00     0.186 C 
ENDBRANCH  34  36
ENDBRANCH  31  34
ENDBRANCH   6  26
BRANCH   3  40
HETATM   40  C   UNK N   1      26.352  20.280   4.557  0.00  0.00     0.099 C 
HETATM   41  C   UNK N   1      27.592  19.467   4.220  0.00  0.00     0.034 C 
HETATM   42  C   UNK N   1      26.554  20.955   5.902  0.00  0.00     0.034 C 
ENDBRANCH   3  40
TORSDOF 9
ENDMDL
MODEL 2
REMARK VINA RESULT:      -7.9      2.583      3.080
REMARK  9 active torsions:
REMARK  status: ('A' for Active; 'I' for Inactive)
REMARK    1  A    between atoms: C_2  and  C_3 
REMARK    2  A    between atoms: C_2  and  N_35 
REMARK    3  A    between atoms: C_3  and  N_4 
REMARK       I    between atoms: N_4  and  C_5 
REMARK    4  A    between atoms: C_10  and  C_13 
REMARK    5  A    between atoms: N_15  and  C_32 
REMARK    6  A    between atoms: C_18  and  C_19 
REMARK    7  A    between atoms: C_23  and  N_26 
REMARK    8  A    between atoms: N_26  and  S_27 
REMARK       I    between atoms: N_35  and  C_36 
REMARK    9  A    between atoms: C_36  and  O_38 
ROOT
HETATM    1  C   UNK N   1      22.786  17.853   4.364  0.00  0.00     0.037 A 
HETATM    2  C   UNK N   1      24.050  18.163   3.882  0.00  0.00     0.126 A 
HETATM    3  N   UNK N   1      24.957  17.653   4.730  0.00  0.00    -0.298 N 
HETATM    4  N   UNK N   1      24.350  17.030   5.724  0.00  0.00    -0.297 N 
ATOM      5  HN  UNK N   1      24.815  16.551   6.495  1.00  0.00     0.187 HD
HETATM    6  C   UNK N   1      23.015  17.133   5.555  0.00  0.00     0.075 A 
ENDROOT
BRANCH   1   7
HETATM    7  C   UNK N   1      21.557  18.228   3.614  0.00  0.00     0.064 A 
HETATM    8  C   UNK N   1      20.991  19.490   3.839  0.00  0.00     0.048 A 
HETATM    9  C   UNK N   1      19.875  19.874   3.107  0.00  0.00     0.108 A 
HETATM   10  N   UNK N   1      19.359  19.035   2.176  0.00  0.00    -0.202 N 
HETATM   11  C   UNK N   1      19.916  17.817   1.951  0.00  0.00     0.678 A 
ATOM     12  HN  UNK N   1      18.542  19.322   1.638  1.00  0.00     0.183 HD
HETATM   13  N   UNK N   1      19.365  16.984   0.953  0.00  0.00    -0.224 N 
HETATM   14  N   UNK N   1      21.009  17.419   2.669  0.00  0.00    -0.191 N 
HETATM   15  H   UNK N   1      18.567  17.285   0.462  0.00  0.00     0.177 HD
ATOM     16  HN  UNK N   1      21.420  16.502   2.493  1.00  0.00     0.184 HD
BRANCH  13  17
HETATM   17  C   UNK N   1      19.942  15.707   0.640  0.00  0.00     0.163 C 
BRANCH  17  18
HETATM   18  C   UNK N   1      19.283  14.606   1.454  0.00  0.00     0.101 C 
HETATM   19  C   UNK N   1      18.527  13.657   0.538  0.00  0.00     0.034 C 
BRANCH  18  20
HETATM   20  N   UNK N   1      20.253  13.888   2.261  0.00  0.00    -0.331 N 
HETATM   21  C   UNK N   1      20.491  14.143   3.574  0.00  0.00     0.360 C 
HETATM   22  O   UNK N   1      19.876  15.027   4.158  0.00  0.00    -0.239 OA
HETATM   23  H   UNK N   1      20.770  13.171   1.829  0.00  0.00     0.165 HD
BRANCH  21  24
HETATM   24  O   UNK N   1      21.411  13.398   4.230  0.00  0.00    -0.309 OA
HETATM   25  C   UNK N   1      22.657  13.135   3.707  0.00  0.00     0.215 C 
ENDBRANCH  21  24
ENDBRANCH  18  20
ENDBRANCH  17  18
ENDBRANCH  13  17
ENDBRANCH   1   7
BRANCH   6  26
HETATM   26  C   UNK N   1      22.073  16.548   6.559  0.00  0.00     0.035 A 
HETATM   27  C   UNK N   1      20.971  17.270   7.044  0.00  0.00     0.041 A 
HETATM   28  C   UNK N   1      20.130  16.717   8.020  0.00  0.00     0.037 A 
HETATM   29  C   UNK N   1      20.368  15.436   8.503  0.00  0.00     0.057 A 
HETATM   30 Cl   UNK N   1      18.821  17.643   8.721  0.00  0.00    -0.084 Cl
HETATM   31  C   UNK N   1      21.458  14.698   8.043  0.00  0.00     0.083 A 
HETATM   32  C   UNK N   1      22.319  15.255   7.090  0.00  0.00     0.156 A 
HETATM   33  F   UNK N   1      23.382  14.519   6.668  0.00  0.00    -0.203 F 
BRANCH  31  34
HETATM   34  N   UNK N   1      21.714  13.394   8.550  0.00  0.00    -0.282 N 
HETATM   35  H   UNK N   1      21.183  12.643   8.198  0.00  0.00     0.178 HD
BRANCH  34  36
HETATM   36  S   UNK N   1      22.935  13.054   9.777  0.00  0.00     0.227 S 
HETATM   37  O   UNK N   1      23.019  11.746   8.976  0.00  0.00    -0.206 OA
HETATM   38  O   UNK N   1      21.623  12.845  10.548  0.00  0.00    -0.206 OA
HETATM   39  C   UNK N   1      23.003  11.625  10.890  0.00  0.00     0.186 C 
ENDBRANCH  34  36
ENDBRANCH  31  34
ENDBRANCH   6  26
BRANCH   3  40
HETATM   40  C   UNK N   1      26.407  17.750   4.563  0.00  0.00     0.099 C 
HETATM   41  C   UNK N   1      27.152  17.232   5.783  0.00  0.00     0.034 C 
HETATM   42  C   UNK N   1      26.815  19.190   4.309  0.00  0.00     0.034 C 
ENDBRANCH   3  40
TORSDOF 9
ENDMDL
MODEL 3
REMARK VINA RESULT:      -7.7      4.052      8.009
REMARK  9 active torsions:
REMARK  status: ('A' for Active; 'I' for Inactive)
REMARK    1  A    between atoms: C_2  and  C_3 
REMARK    2  A    between atoms: C_2  and  N_35 
REMARK    3  A    between atoms: C_3  and  N_4 
REMARK       I    between atoms: N_4  and  C_5 
REMARK    4  A    between atoms: C_10  and  C_13 
REMARK    5  A    between atoms: N_15  and  C_32 
REMARK    6  A    between atoms: C_18  and  C_19 
REMARK    7  A    between atoms: C_23  and  N_26 
REMARK    8  A    between atoms: N_26  and  S_27 
REMARK       I    between atoms: N_35  and  C_36 
REMARK    9  A    between atoms: C_36  and  O_38 
ROOT
HETATM    1  C   UNK N   1      25.025  14.515   6.431  0.00  0.00     0.037 A 
HETATM    2  C   UNK N   1      25.104  13.902   7.673  0.00  0.00     0.126 A 
HETATM    3  N   UNK N   1      23.878  13.465   8.002  0.00  0.00    -0.298 N 
HETATM    4  N   UNK N   1      23.018  13.758   7.044  0.00  0.00    -0.297 N 
ATOM      5  HN  UNK N   1      22.025  13.528   7.047  1.00  0.00     0.187 HD
HETATM    6  C   UNK N   1      23.668  14.414   6.059  0.00  0.00     0.075 A 
ENDROOT
BRANCH   1   7
HETATM    7  C   UNK N   1      26.234  15.055   5.754  0.00  0.00     0.064 A 
HETATM    8  C   UNK N   1      27.132  14.155   5.164  0.00  0.00     0.048 A 
HETATM    9  C   UNK N   1      28.237  14.647   4.482  0.00  0.00     0.108 A 
HETATM   10  N   UNK N   1      28.425  15.986   4.382  0.00  0.00    -0.202 N 
HETATM   11  C   UNK N   1      27.548  16.857   4.944  0.00  0.00     0.678 A 
ATOM     12  HN  UNK N   1      29.236  16.343   3.877  1.00  0.00     0.183 HD
HETATM   13  N   UNK N   1      27.765  18.244   4.793  0.00  0.00    -0.224 N 
HETATM   14  N   UNK N   1      26.460  16.390   5.626  0.00  0.00    -0.191 N 
HETATM   15  H   UNK N   1      28.565  18.556   4.312  0.00  0.00     0.177 HD
ATOM     16  HN  UNK N   1      25.807  17.052   6.046  1.00  0.00     0.184 HD
BRANCH  13  17
HETATM   17  C   UNK N   1      26.844  19.209   5.325  0.00  0.00     0.163 C 
BRANCH  17  18
HETATM   18  C   UNK N   1      27.494  20.013   6.438  0.00  0.00     0.101 C 
HETATM   19  C   UNK N   1      26.917  21.419   6.475  0.00  0.00     0.034 C 
BRANCH  18  20
HETATM   20  N   UNK N   1      27.347  19.356   7.724  0.00  0.00    -0.331 N 
HETATM   21  C   UNK N   1      28.257  18.494   8.249  0.00  0.00     0.360 C 
HETATM   22  O   UNK N   1      29.280  18.219   7.635  0.00  0.00    -0.239 OA
HETATM   23  H   UNK N   1      26.537  19.548   8.249  0.00  0.00     0.165 HD
BRANCH  21  24
HETATM   24  O   UNK N   1      28.019  17.951   9.466  0.00  0.00    -0.309 OA
HETATM   25  C   UNK N   1      28.948  17.174  10.121  0.00  0.00     0.215 C 
ENDBRANCH  21  24
ENDBRANCH  18  20
ENDBRANCH  17  18
ENDBRANCH  13  17
ENDBRANCH   1   7
BRANCH   6  26
HETATM   26  C   UNK N   1      22.928  14.906   4.855  0.00  0.00     0.035 A 
HETATM   27  C   UNK N   1      22.888  14.167   3.662  0.00  0.00     0.041 A 
HETATM   28  C   UNK N   1      22.226  14.673   2.533  0.00  0.00     0.037 A 
HETATM   29  C   UNK N   1      21.585  15.903   2.591  0.00  0.00     0.057 A 
HETATM   30 Cl   UNK N   1      22.264  13.822   1.004  0.00  0.00    -0.084 Cl
HETATM   31  C   UNK N   1      21.612  16.660   3.762  0.00  0.00     0.083 A 
HETATM   32  C   UNK N   1      22.295  16.176   4.885  0.00  0.00     0.156 A 
HETATM   33  F   UNK N   1      22.318  16.940   6.009  0.00  0.00    -0.203 F 
BRANCH  31  34
HETATM   34  N   UNK N   1      20.972  17.930   3.818  0.00  0.00    -0.282 N 
HETATM   35  H   UNK N   1      20.051  17.973   4.163  0.00  0.00     0.178 HD
BRANCH  34  36
HETATM   36  S   UNK N   1      21.745  19.428   3.301  0.00  0.00     0.227 S 
HETATM   37  O   UNK N   1      20.711  20.007   4.279  0.00  0.00    -0.206 OA
HETATM   38  O   UNK N   1      20.853  19.082   2.099  0.00  0.00    -0.206 OA
HETATM   39  C   UNK N   1      20.939  20.888   2.590  0.00  0.00     0.186 C 
ENDBRANCH  34  36
ENDBRANCH  31  34
ENDBRANCH   6  26
BRANCH   3  40
HETATM   40  C   UNK N   1      23.548  12.746   9.233  0.00  0.00     0.099 C 
HETATM   41  C   UNK N   1      22.375  13.383   9.962  0.00  0.00     0.034 C 
HETATM   42  C   UNK N   1      24.747  12.709  10.162  0.00  0.00     0.034 C 
ENDBRANCH   3  40
TORSDOF 9
ENDMDL
MODEL 4
REMARK VINA RESULT:      -7.7      5.445      9.102
REMARK  9 active torsions:
REMARK  status: ('A' for Active; 'I' for Inactive)
REMARK    1  A    between atoms: C_2  and  C_3 
REMARK    2  A    between atoms: C_2  and  N_35 
REMARK    3  A    between atoms: C_3  and  N_4 
REMARK       I    between atoms: N_4  and  C_5 
REMARK    4  A    between atoms: C_10  and  C_13 
REMARK    5  A    between atoms: N_15  and  C_32 
REMARK    6  A    between atoms: C_18  and  C_19 
REMARK    7  A    between atoms: C_23  and  N_26 
REMARK    8  A    between atoms: N_26  and  S_27 
REMARK       I    between atoms: N_35  and  C_36 
REMARK    9  A    between atoms: C_36  and  O_38 
ROOT
HETATM    1  C   UNK N   1      28.114  16.688   5.412  0.00  0.00     0.037 A 
HETATM    2  C   UNK N   1      28.169  18.043   5.119  0.00  0.00     0.126 A 
HETATM    3  N   UNK N   1      26.935  18.551   5.260  0.00  0.00    -0.298 N 
HETATM    4  N   UNK N   1      26.092  17.604   5.629  0.00  0.00    -0.297 N 
ATOM      5  HN  UNK N   1      25.097  17.733   5.811  1.00  0.00     0.187 HD
HETATM    6  C   UNK N   1      26.762  16.437   5.727  0.00  0.00     0.075 A 
ENDROOT
BRANCH   1   7
HETATM    7  C   UNK N   1      29.338  15.843   5.407  0.00  0.00     0.064 A 
HETATM    8  C   UNK N   1      29.230  14.504   5.006  0.00  0.00     0.048 A 
HETATM    9  C   UNK N   1      30.374  13.719   4.945  0.00  0.00     0.108 A 
HETATM   10  N   UNK N   1      31.577  14.258   5.257  0.00  0.00    -0.202 N 
HETATM   11  C   UNK N   1      31.682  15.559   5.634  0.00  0.00     0.678 A 
ATOM     12  HN  UNK N   1      32.415  13.679   5.207  1.00  0.00     0.183 HD
HETATM   13  N   UNK N   1      32.959  16.088   5.923  0.00  0.00    -0.224 N 
HETATM   14  N   UNK N   1      30.566  16.343   5.708  0.00  0.00    -0.191 N 
HETATM   15  H   UNK N   1      33.746  15.499   5.880  0.00  0.00     0.177 HD
ATOM     16  HN  UNK N   1      30.655  17.319   5.993  1.00  0.00     0.184 HD
BRANCH  13  17
HETATM   17  C   UNK N   1      33.134  17.468   6.280  0.00  0.00     0.163 C 
BRANCH  17  18
HETATM   18  C   UNK N   1      33.188  17.630   7.790  0.00  0.00     0.101 C 
HETATM   19  C   UNK N   1      34.496  18.286   8.200  0.00  0.00     0.034 C 
BRANCH  18  20
HETATM   20  N   UNK N   1      32.050  18.382   8.285  0.00  0.00    -0.331 N 
HETATM   21  C   UNK N   1      30.911  17.817   8.764  0.00  0.00     0.360 C 
HETATM   22  O   UNK N   1      30.787  16.599   8.796  0.00  0.00    -0.239 OA
HETATM   23  H   UNK N   1      32.108  19.365   8.274  0.00  0.00     0.165 HD
BRANCH  21  24
HETATM   24  O   UNK N   1      29.918  18.620   9.213  0.00  0.00    -0.309 OA
HETATM   25  C   UNK N   1      28.612  18.196   9.310  0.00  0.00     0.215 C 
ENDBRANCH  21  24
ENDBRANCH  18  20
ENDBRANCH  17  18
ENDBRANCH  13  17
ENDBRANCH   1   7
BRANCH   6  26
HETATM   26  C   UNK N   1      26.045  15.176   6.094  0.00  0.00     0.035 A 
HETATM   27  C   UNK N   1      25.501  14.326   5.118  0.00  0.00     0.041 A 
HETATM   28  C   UNK N   1      24.793  13.174   5.490  0.00  0.00     0.037 A 
HETATM   29  C   UNK N   1      24.641  12.851   6.833  0.00  0.00     0.057 A 
HETATM   30 Cl   UNK N   1      24.009  12.165   4.295  0.00  0.00    -0.084 Cl
HETATM   31  C   UNK N   1      25.167  13.679   7.824  0.00  0.00     0.083 A 
HETATM   32  C   UNK N   1      25.850  14.846   7.461  0.00  0.00     0.156 A 
HETATM   33  F   UNK N   1      26.341  15.643   8.447  0.00  0.00    -0.203 F 
BRANCH  31  34
HETATM   34  N   UNK N   1      24.996  13.360   9.200  0.00  0.00    -0.282 N 
HETATM   35  H   UNK N   1      25.522  13.862   9.864  0.00  0.00     0.178 HD
BRANCH  34  36
HETATM   36  S   UNK N   1      23.891  12.111   9.774  0.00  0.00     0.227 S 
HETATM   37  O   UNK N   1      23.024  13.351  10.042  0.00  0.00    -0.206 OA
HETATM   38  O   UNK N   1      24.908  12.208  10.922  0.00  0.00    -0.206 OA
HETATM   39  C   UNK N   1      23.109  12.006  11.407  0.00  0.00     0.186 C 
ENDBRANCH  34  36
ENDBRANCH  31  34
ENDBRANCH   6  26
BRANCH   3  40
HETATM   40  C   UNK N   1      26.580  19.957   5.057  0.00  0.00     0.099 C 
HETATM   41  C   UNK N   1      26.605  20.339   3.586  0.00  0.00     0.034 C 
HETATM   42  C   UNK N   1      27.533  20.859   5.819  0.00  0.00     0.034 C 
ENDBRANCH   3  40
TORSDOF 9
ENDMDL
MODEL 5
REMARK VINA RESULT:      -7.7      1.891      2.259
REMARK  9 active torsions:
REMARK  status: ('A' for Active; 'I' for Inactive)
REMARK    1  A    between atoms: C_2  and  C_3 
REMARK    2  A    between atoms: C_2  and  N_35 
REMARK    3  A    between atoms: C_3  and  N_4 
REMARK       I    between atoms: N_4  and  C_5 
REMARK    4  A    between atoms: C_10  and  C_13 
REMARK    5  A    between atoms: N_15  and  C_32 
REMARK    6  A    between atoms: C_18  and  C_19 
REMARK    7  A    between atoms: C_23  and  N_26 
REMARK    8  A    between atoms: N_26  and  S_27 
REMARK       I    between atoms: N_35  and  C_36 
REMARK    9  A    between atoms: C_36  and  O_38 
ROOT
HETATM    1  C   UNK N   1      23.596  19.137   3.955  0.00  0.00     0.037 A 
HETATM    2  C   UNK N   1      24.491  20.198   3.978  0.00  0.00     0.126 A 
HETATM    3  N   UNK N   1      25.591  19.802   4.639  0.00  0.00    -0.298 N 
HETATM    4  N   UNK N   1      25.457  18.550   5.037  0.00  0.00    -0.297 N 
ATOM      5  HN  UNK N   1      26.154  18.014   5.552  1.00  0.00     0.187 HD
HETATM    6  C   UNK N   1      24.245  18.097   4.653  0.00  0.00     0.075 A 
ENDROOT
BRANCH   1   7
HETATM    7  C   UNK N   1      22.296  19.235   3.240  0.00  0.00     0.064 A 
HETATM    8  C   UNK N   1      21.882  20.488   2.766  0.00  0.00     0.048 A 
HETATM    9  C   UNK N   1      20.696  20.585   2.049  0.00  0.00     0.108 A 
HETATM   10  N   UNK N   1      19.965  19.470   1.804  0.00  0.00    -0.202 N 
HETATM   11  C   UNK N   1      20.374  18.256   2.254  0.00  0.00     0.678 A 
ATOM     12  HN  UNK N   1      19.097  19.545   1.274  1.00  0.00     0.183 HD
HETATM   13  N   UNK N   1      19.597  17.116   1.953  0.00  0.00    -0.224 N 
HETATM   14  N   UNK N   1      21.533  18.143   2.968  0.00  0.00    -0.191 N 
HETATM   15  H   UNK N   1      18.756  17.224   1.452  0.00  0.00     0.177 HD
ATOM     16  HN  UNK N   1      21.831  17.227   3.302  1.00  0.00     0.184 HD
BRANCH  13  17
HETATM   17  C   UNK N   1      20.006  15.802   2.361  0.00  0.00     0.163 C 
BRANCH  17  18
HETATM   18  C   UNK N   1      20.531  15.010   1.175  0.00  0.00     0.101 C 
HETATM   19  C   UNK N   1      22.016  14.735   1.343  0.00  0.00     0.034 C 
BRANCH  18  20
HETATM   20  N   UNK N   1      19.790  13.775   0.990  0.00  0.00    -0.331 N 
HETATM   21  C   UNK N   1      18.625  13.680   0.297  0.00  0.00     0.360 C 
HETATM   22  O   UNK N   1      18.126  14.671  -0.220  0.00  0.00    -0.239 OA
HETATM   23  H   UNK N   1      20.156  12.954   1.393  0.00  0.00     0.165 HD
BRANCH  21  24
HETATM   24  O   UNK N   1      18.030  12.470   0.179  0.00  0.00    -0.309 OA
HETATM   25  C   UNK N   1      17.607  11.746   1.270  0.00  0.00     0.215 C 
ENDBRANCH  21  24
ENDBRANCH  18  20
ENDBRANCH  17  18
ENDBRANCH  13  17
ENDBRANCH   1   7
BRANCH   6  26
HETATM   26  C   UNK N   1      23.804  16.711   5.006  0.00  0.00     0.035 A 
HETATM   27  C   UNK N   1      24.366  15.580   4.393  0.00  0.00     0.041 A 
HETATM   28  C   UNK N   1      23.902  14.294   4.708  0.00  0.00     0.037 A 
HETATM   29  C   UNK N   1      22.892  14.127   5.647  0.00  0.00     0.057 A 
HETATM   30 Cl   UNK N   1      24.508  12.882   3.873  0.00  0.00    -0.084 Cl
HETATM   31  C   UNK N   1      22.312  15.232   6.267  0.00  0.00     0.083 A 
HETATM   32  C   UNK N   1      22.750  16.521   5.937  0.00  0.00     0.156 A 
HETATM   33  F   UNK N   1      22.158  17.583   6.547  0.00  0.00    -0.203 F 
BRANCH  31  34
HETATM   34  N   UNK N   1      21.265  15.064   7.215  0.00  0.00    -0.282 N 
HETATM   35  H   UNK N   1      20.373  15.419   6.994  0.00  0.00     0.178 HD
BRANCH  34  36
HETATM   36  S   UNK N   1      21.483  14.252   8.766  0.00  0.00     0.227 S 
HETATM   37  O   UNK N   1      20.419  13.330   8.151  0.00  0.00    -0.206 OA
HETATM   38  O   UNK N   1      20.632  15.473   9.147  0.00  0.00    -0.206 OA
HETATM   39  C   UNK N   1      20.201  13.853   9.984  0.00  0.00     0.186 C 
ENDBRANCH  34  36
ENDBRANCH  31  34
ENDBRANCH   6  26
BRANCH   3  40
HETATM   40  C   UNK N   1      26.776  20.630   4.863  0.00  0.00     0.099 C 
HETATM   41  C   UNK N   1      28.057  19.815   4.790  0.00  0.00     0.034 C 
HETATM   42  C   UNK N   1      26.699  21.309   6.218  0.00  0.00     0.034 C 
ENDBRANCH   3  40
TORSDOF 9
ENDMDL
MODEL 6
REMARK VINA RESULT:      -7.5     14.506     17.654
REMARK  9 active torsions:
REMARK  status: ('A' for Active; 'I' for Inactive)
REMARK    1  A    between atoms: C_2  and  C_3 
REMARK    2  A    between atoms: C_2  and  N_35 
REMARK    3  A    between atoms: C_3  and  N_4 
REMARK       I    between atoms: N_4  and  C_5 
REMARK    4  A    between atoms: C_10  and  C_13 
REMARK    5  A    between atoms: N_15  and  C_32 
REMARK    6  A    between atoms: C_18  and  C_19 
REMARK    7  A    between atoms: C_23  and  N_26 
REMARK    8  A    between atoms: N_26  and  S_27 
REMARK       I    between atoms: N_35  and  C_36 
REMARK    9  A    between atoms: C_36  and  O_38 
ROOT
HETATM    1  C   UNK N   1      35.664  11.731  16.049  0.00  0.00     0.037 A 
HETATM    2  C   UNK N   1      35.466  11.530  17.408  0.00  0.00     0.126 A 
HETATM    3  N   UNK N   1      35.149  10.239  17.597  0.00  0.00    -0.298 N 
HETATM    4  N   UNK N   1      35.134   9.600  16.441  0.00  0.00    -0.297 N 
ATOM      5  HN  UNK N   1      34.930   8.609  16.314  1.00  0.00     0.187 HD
HETATM    6  C   UNK N   1      35.433  10.473  15.456  0.00  0.00     0.075 A 
ENDROOT
BRANCH   1   7
HETATM    7  C   UNK N   1      36.090  13.052  15.515  0.00  0.00     0.064 A 
HETATM    8  C   UNK N   1      36.758  13.940  16.371  0.00  0.00     0.048 A 
HETATM    9  C   UNK N   1      37.209  15.155  15.871  0.00  0.00     0.108 A 
HETATM   10  N   UNK N   1      37.014  15.459  14.565  0.00  0.00    -0.202 N 
HETATM   11  C   UNK N   1      36.378  14.593  13.735  0.00  0.00     0.678 A 
ATOM     12  HN  UNK N   1      37.351  16.351  14.201  1.00  0.00     0.183 HD
HETATM   13  N   UNK N   1      36.221  14.937  12.374  0.00  0.00    -0.224 N 
HETATM   14  N   UNK N   1      35.920  13.398  14.211  0.00  0.00    -0.191 N 
HETATM   15  H   UNK N   1      36.544  15.812  12.058  0.00  0.00     0.177 HD
ATOM     16  HN  UNK N   1      35.442  12.754  13.580  1.00  0.00     0.184 HD
BRANCH  13  17
HETATM   17  C   UNK N   1      35.599  14.040  11.442  0.00  0.00     0.163 C 
BRANCH  17  18
HETATM   18  C   UNK N   1      35.865  14.483  10.012  0.00  0.00     0.101 C 
HETATM   19  C   UNK N   1      35.986  13.271   9.102  0.00  0.00     0.034 C 
BRANCH  18  20
HETATM   20  N   UNK N   1      34.837  15.391   9.537  0.00  0.00    -0.331 N 
HETATM   21  C   UNK N   1      34.837  16.731   9.764  0.00  0.00     0.360 C 
HETATM   22  O   UNK N   1      35.739  17.252  10.408  0.00  0.00    -0.239 OA
HETATM   23  H   UNK N   1      34.092  15.011   9.018  0.00  0.00     0.165 HD
BRANCH  21  24
HETATM   24  O   UNK N   1      33.831  17.482   9.259  0.00  0.00    -0.309 OA
HETATM   25  C   UNK N   1      33.042  17.052   8.216  0.00  0.00     0.215 C 
ENDBRANCH  21  24
ENDBRANCH  18  20
ENDBRANCH  17  18
ENDBRANCH  13  17
ENDBRANCH   1   7
BRANCH   6  26
HETATM   26  C   UNK N   1      35.451  10.030  14.026  0.00  0.00     0.035 A 
HETATM   27  C   UNK N   1      36.604   9.487  13.437  0.00  0.00     0.041 A 
HETATM   28  C   UNK N   1      36.608   9.123  12.083  0.00  0.00     0.037 A 
HETATM   29  C   UNK N   1      35.461   9.277  11.314  0.00  0.00     0.057 A 
HETATM   30 Cl   UNK N   1      38.067   8.555  11.301  0.00  0.00    -0.084 Cl
HETATM   31  C   UNK N   1      34.303   9.817  11.872  0.00  0.00     0.083 A 
HETATM   32  C   UNK N   1      34.300  10.210  13.216  0.00  0.00     0.156 A 
HETATM   33  F   UNK N   1      33.162  10.747  13.731  0.00  0.00    -0.203 F 
BRANCH  31  34
HETATM   34  N   UNK N   1      33.133   9.993  11.082  0.00  0.00    -0.282 N 
HETATM   35  H   UNK N   1      32.400  10.538  11.449  0.00  0.00     0.178 HD
BRANCH  34  36
HETATM   36  S   UNK N   1      32.931   9.284   9.480  0.00  0.00     0.227 S 
HETATM   37  O   UNK N   1      31.873  10.395   9.395  0.00  0.00    -0.206 OA
HETATM   38  O   UNK N   1      32.220   8.267  10.385  0.00  0.00    -0.206 OA
HETATM   39  C   UNK N   1      31.399   8.653   8.746  0.00  0.00     0.186 C 
ENDBRANCH  34  36
ENDBRANCH  31  34
ENDBRANCH   6  26
BRANCH   3  40
HETATM   40  C   UNK N   1      34.882   9.624  18.898  0.00  0.00     0.099 C 
HETATM   41  C   UNK N   1      33.547   8.898  18.915  0.00  0.00     0.034 C 
HETATM   42  C   UNK N   1      34.887  10.676  19.991  0.00  0.00     0.034 C 
ENDBRANCH   3  40
TORSDOF 9
ENDMDL
MODEL 7
REMARK VINA RESULT:      -7.4      4.497      7.579
REMARK  9 active torsions:
REMARK  status: ('A' for Active; 'I' for Inactive)
REMARK    1  A    between atoms: C_2  and  C_3 
REMARK    2  A    between atoms: C_2  and  N_35 
REMARK    3  A    between atoms: C_3  and  N_4 
REMARK       I    between atoms: N_4  and  C_5 
REMARK    4  A    between atoms: C_10  and  C_13 
REMARK    5  A    between atoms: N_15  and  C_32 
REMARK    6  A    between atoms: C_18  and  C_19 
REMARK    7  A    between atoms: C_23  and  N_26 
REMARK    8  A    between atoms: N_26  and  S_27 
REMARK       I    between atoms: N_35  and  C_36 
REMARK    9  A    between atoms: C_36  and  O_38 
ROOT
HETATM    1  C   UNK N   1      23.587  16.755   5.079  0.00  0.00     0.037 A 
HETATM    2  C   UNK N   1      22.278  16.777   4.617  0.00  0.00     0.126 A 
HETATM    3  N   UNK N   1      22.135  17.845   3.818  0.00  0.00    -0.298 N 
HETATM    4  N   UNK N   1      23.273  18.509   3.736  0.00  0.00    -0.297 N 
ATOM      5  HN  UNK N   1      23.430  19.353   3.186  1.00  0.00     0.187 HD
HETATM    6  C   UNK N   1      24.196  17.888   4.501  0.00  0.00     0.075 A 
ENDROOT
BRANCH   1   7
HETATM    7  C   UNK N   1      24.086  15.654   5.944  0.00  0.00     0.064 A 
HETATM    8  C   UNK N   1      25.455  15.599   6.240  0.00  0.00     0.048 A 
HETATM    9  C   UNK N   1      25.927  14.607   7.091  0.00  0.00     0.108 A 
HETATM   10  N   UNK N   1      25.060  13.719   7.635  0.00  0.00    -0.202 N 
HETATM   11  C   UNK N   1      23.732  13.781   7.357  0.00  0.00     0.678 A 
ATOM     12  HN  UNK N   1      25.409  12.995   8.262  1.00  0.00     0.183 HD
HETATM   13  N   UNK N   1      22.859  12.854   7.967  0.00  0.00    -0.224 N 
HETATM   14  N   UNK N   1      23.252  14.744   6.515  0.00  0.00    -0.191 N 
HETATM   15  H   UNK N   1      23.230  12.158   8.555  0.00  0.00     0.177 HD
ATOM     16  HN  UNK N   1      22.253  14.782   6.312  1.00  0.00     0.184 HD
BRANCH  13  17
HETATM   17  C   UNK N   1      21.441  12.903   7.746  0.00  0.00     0.163 C 
BRANCH  17  18
HETATM   18  C   UNK N   1      20.742  13.597   8.903  0.00  0.00     0.101 C 
HETATM   19  C   UNK N   1      21.256  13.056  10.228  0.00  0.00     0.034 C 
BRANCH  18  20
HETATM   20  N   UNK N   1      20.899  15.038   8.832  0.00  0.00    -0.331 N 
HETATM   21  C   UNK N   1      19.898  15.928   9.060  0.00  0.00     0.360 C 
HETATM   22  O   UNK N   1      18.772  15.538   9.344  0.00  0.00    -0.239 OA
HETATM   23  H   UNK N   1      21.789  15.393   8.604  0.00  0.00     0.165 HD
BRANCH  21  24
HETATM   24  O   UNK N   1      20.167  17.252   8.979  0.00  0.00    -0.309 OA
HETATM   25  C   UNK N   1      19.205  18.214   9.190  0.00  0.00     0.215 C 
ENDBRANCH  21  24
ENDBRANCH  18  20
ENDBRANCH  17  18
ENDBRANCH  13  17
ENDBRANCH   1   7
BRANCH   6  26
HETATM   26  C   UNK N   1      25.579  18.446   4.628  0.00  0.00     0.035 A 
HETATM   27  C   UNK N   1      25.831  19.640   5.322  0.00  0.00     0.041 A 
HETATM   28  C   UNK N   1      27.130  20.166   5.387  0.00  0.00     0.037 A 
HETATM   29  C   UNK N   1      28.186  19.497   4.781  0.00  0.00     0.057 A 
HETATM   30 Cl   UNK N   1      27.446  21.710   6.147  0.00  0.00    -0.084 Cl
HETATM   31  C   UNK N   1      27.963  18.312   4.081  0.00  0.00     0.083 A 
HETATM   32  C   UNK N   1      26.665  17.796   3.987  0.00  0.00     0.156 A 
HETATM   33  F   UNK N   1      26.474  16.646   3.287  0.00  0.00    -0.203 F 
BRANCH  31  34
HETATM   34  N   UNK N   1      29.040  17.635   3.443  0.00  0.00    -0.282 N 
HETATM   35  H   UNK N   1      29.355  17.974   2.574  0.00  0.00     0.178 HD
BRANCH  34  36
HETATM   36  S   UNK N   1      29.839  16.222   4.132  0.00  0.00     0.227 S 
HETATM   37  O   UNK N   1      31.063  17.130   3.941  0.00  0.00    -0.206 OA
HETATM   38  O   UNK N   1      29.571  15.780   2.685  0.00  0.00    -0.206 OA
HETATM   39  C   UNK N   1      31.223  15.290   3.421  0.00  0.00     0.186 C 
ENDBRANCH  34  36
ENDBRANCH  31  34
ENDBRANCH   6  26
BRANCH   3  40
HETATM   40  C   UNK N   1      20.901  18.208   3.119  0.00  0.00     0.099 C 
HETATM   41  C   UNK N   1      20.525  19.662   3.355  0.00  0.00     0.034 C 
HETATM   42  C   UNK N   1      19.755  17.322   3.573  0.00  0.00     0.034 C 
ENDBRANCH   3  40
TORSDOF 9
ENDMDL
MODEL 8
REMARK VINA RESULT:      -7.3      9.215     12.847
REMARK  9 active torsions:
REMARK  status: ('A' for Active; 'I' for Inactive)
REMARK    1  A    between atoms: C_2  and  C_3 
REMARK    2  A    between atoms: C_2  and  N_35 
REMARK    3  A    between atoms: C_3  and  N_4 
REMARK       I    between atoms: N_4  and  C_5 
REMARK    4  A    between atoms: C_10  and  C_13 
REMARK    5  A    between atoms: N_15  and  C_32 
REMARK    6  A    between atoms: C_18  and  C_19 
REMARK    7  A    between atoms: C_23  and  N_26 
REMARK    8  A    between atoms: N_26  and  S_27 
REMARK       I    between atoms: N_35  and  C_36 
REMARK    9  A    between atoms: C_36  and  O_38 
ROOT
HETATM    1  C   UNK N   1      32.923  15.899   6.227  0.00  0.00     0.037 A 
HETATM    2  C   UNK N   1      33.564  14.933   5.464  0.00  0.00     0.126 A 
HETATM    3  N   UNK N   1      32.725  14.543   4.492  0.00  0.00    -0.298 N 
HETATM    4  N   UNK N   1      31.585  15.204   4.583  0.00  0.00    -0.297 N 
ATOM      5  HN  UNK N   1      30.786  15.097   3.958  1.00  0.00     0.187 HD
HETATM    6  C   UNK N   1      31.649  16.042   5.638  0.00  0.00     0.075 A 
ENDROOT
BRANCH   1   7
HETATM    7  C   UNK N   1      33.613  16.581   7.354  0.00  0.00     0.064 A 
HETATM    8  C   UNK N   1      33.966  17.929   7.209  0.00  0.00     0.048 A 
HETATM    9  C   UNK N   1      34.563  18.594   8.273  0.00  0.00     0.108 A 
HETATM   10  N   UNK N   1      34.780  17.937   9.439  0.00  0.00    -0.202 N 
HETATM   11  C   UNK N   1      34.426  16.634   9.582  0.00  0.00     0.678 A 
ATOM     12  HN  UNK N   1      35.214  18.430  10.219  1.00  0.00     0.183 HD
HETATM   13  N   UNK N   1      34.645  15.996  10.822  0.00  0.00    -0.224 N 
HETATM   14  N   UNK N   1      33.847  15.963   8.542  0.00  0.00    -0.191 N 
HETATM   15  H   UNK N   1      35.080  16.495  11.550  0.00  0.00     0.177 HD
ATOM     16  HN  UNK N   1      33.586  14.984   8.659  1.00  0.00     0.184 HD
BRANCH  13  17
HETATM   17  C   UNK N   1      34.247  14.634  11.044  0.00  0.00     0.163 C 
BRANCH  17  18
HETATM   18  C   UNK N   1      35.464  13.743  11.230  0.00  0.00     0.101 C 
HETATM   19  C   UNK N   1      35.109  12.545  12.096  0.00  0.00     0.034 C 
BRANCH  18  20
HETATM   20  N   UNK N   1      36.012  13.320   9.954  0.00  0.00    -0.331 N 
HETATM   21  C   UNK N   1      37.038  13.945   9.319  0.00  0.00     0.360 C 
HETATM   22  O   UNK N   1      37.564  14.935   9.813  0.00  0.00    -0.239 OA
HETATM   23  H   UNK N   1      35.615  12.529   9.522  0.00  0.00     0.165 HD
BRANCH  21  24
HETATM   24  O   UNK N   1      37.476  13.451   8.138  0.00  0.00    -0.309 OA
HETATM   25  C   UNK N   1      36.876  13.763   6.939  0.00  0.00     0.215 C 
ENDBRANCH  21  24
ENDBRANCH  18  20
ENDBRANCH  17  18
ENDBRANCH  13  17
ENDBRANCH   1   7
BRANCH   6  26
HETATM   26  C   UNK N   1      30.475  16.894   6.006  0.00  0.00     0.035 A 
HETATM   27  C   UNK N   1      30.055  17.035   7.338  0.00  0.00     0.041 A 
HETATM   28  C   UNK N   1      28.923  17.803   7.650  0.00  0.00     0.037 A 
HETATM   29  C   UNK N   1      28.218  18.451   6.643  0.00  0.00     0.057 A 
HETATM   30 Cl   UNK N   1      28.315  17.896   9.288  0.00  0.00    -0.084 Cl
HETATM   31  C   UNK N   1      28.611  18.324   5.311  0.00  0.00     0.083 A 
HETATM   32  C   UNK N   1      29.722  17.536   4.988  0.00  0.00     0.156 A 
HETATM   33  F   UNK N   1      30.076  17.419   3.681  0.00  0.00    -0.203 F 
BRANCH  31  34
HETATM   34  N   UNK N   1      27.879  18.971   4.277  0.00  0.00    -0.282 N 
HETATM   35  H   UNK N   1      28.306  19.070   3.395  0.00  0.00     0.178 HD
BRANCH  34  36
HETATM   36  S   UNK N   1      26.248  19.605   4.495  0.00  0.00     0.227 S 
HETATM   37  O   UNK N   1      25.923  18.377   3.631  0.00  0.00    -0.206 OA
HETATM   38  O   UNK N   1      26.837  20.558   3.444  0.00  0.00    -0.206 OA
HETATM   39  C   UNK N   1      25.055  20.032   3.198  0.00  0.00     0.186 C 
ENDBRANCH  34  36
ENDBRANCH  31  34
ENDBRANCH   6  26
BRANCH   3  40
HETATM   40  C   UNK N   1      33.037  13.548   3.465  0.00  0.00     0.099 C 
HETATM   41  C   UNK N   1      34.126  14.032   2.521  0.00  0.00     0.034 C 
HETATM   42  C   UNK N   1      31.796  13.214   2.658  0.00  0.00     0.034 C 
ENDBRANCH   3  40
TORSDOF 9
ENDMDL
MODEL 9
REMARK VINA RESULT:      -7.3      4.210      7.987
REMARK  9 active torsions:
REMARK  status: ('A' for Active; 'I' for Inactive)
REMARK    1  A    between atoms: C_2  and  C_3 
REMARK    2  A    between atoms: C_2  and  N_35 
REMARK    3  A    between atoms: C_3  and  N_4 
REMARK       I    between atoms: N_4  and  C_5 
REMARK    4  A    between atoms: C_10  and  C_13 
REMARK    5  A    between atoms: N_15  and  C_32 
REMARK    6  A    between atoms: C_18  and  C_19 
REMARK    7  A    between atoms: C_23  and  N_26 
REMARK    8  A    between atoms: N_26  and  S_27 
REMARK       I    between atoms: N_35  and  C_36 
REMARK    9  A    between atoms: C_36  and  O_38 
ROOT
HETATM    1  C   UNK N   1      21.809  17.755   5.034  0.00  0.00     0.037 A 
HETATM    2  C   UNK N   1      21.547  17.908   6.388  0.00  0.00     0.126 A 
HETATM    3  N   UNK N   1      20.808  16.863   6.791  0.00  0.00    -0.298 N 
HETATM    4  N   UNK N   1      20.583  16.046   5.778  0.00  0.00    -0.297 N 
ATOM      5  HN  UNK N   1      20.054  15.176   5.824  1.00  0.00     0.187 HD
HETATM    6  C   UNK N   1      21.167  16.552   4.671  0.00  0.00     0.075 A 
ENDROOT
BRANCH   1   7
HETATM    7  C   UNK N   1      22.664  18.722   4.295  0.00  0.00     0.064 A 
HETATM    8  C   UNK N   1      22.059  19.580   3.366  0.00  0.00     0.048 A 
HETATM    9  C   UNK N   1      22.836  20.525   2.708  0.00  0.00     0.108 A 
HETATM   10  N   UNK N   1      24.160  20.617   2.983  0.00  0.00    -0.202 N 
HETATM   11  C   UNK N   1      24.742  19.793   3.893  0.00  0.00     0.678 A 
ATOM     12  HN  UNK N   1      24.726  21.315   2.501  1.00  0.00     0.183 HD
HETATM   13  N   UNK N   1      26.118  19.942   4.171  0.00  0.00    -0.224 N 
HETATM   14  N   UNK N   1      23.994  18.852   4.542  0.00  0.00    -0.191 N 
HETATM   15  H   UNK N   1      26.640  20.615   3.678  0.00  0.00     0.177 HD
ATOM     16  HN  UNK N   1      24.440  18.237   5.224  1.00  0.00     0.184 HD
BRANCH  13  17
HETATM   17  C   UNK N   1      26.774  19.131   5.158  0.00  0.00     0.163 C 
BRANCH  17  18
HETATM   18  C   UNK N   1      27.571  19.996   6.121  0.00  0.00     0.101 C 
HETATM   19  C   UNK N   1      27.112  21.442   6.028  0.00  0.00     0.034 C 
BRANCH  18  20
HETATM   20  N   UNK N   1      27.473  19.504   7.483  0.00  0.00    -0.331 N 
HETATM   21  C   UNK N   1      28.356  18.639   8.047  0.00  0.00     0.360 C 
HETATM   22  O   UNK N   1      29.309  18.216   7.405  0.00  0.00    -0.239 OA
HETATM   23  H   UNK N   1      26.719  19.818   8.032  0.00  0.00     0.165 HD
BRANCH  21  24
HETATM   24  O   UNK N   1      28.171  18.259   9.333  0.00  0.00    -0.309 OA
HETATM   25  C   UNK N   1      28.913  17.259   9.921  0.00  0.00     0.215 C 
ENDBRANCH  21  24
ENDBRANCH  18  20
ENDBRANCH  17  18
ENDBRANCH  13  17
ENDBRANCH   1   7
BRANCH   6  26
HETATM   26  C   UNK N   1      21.043  15.850   3.356  0.00  0.00     0.035 A 
HETATM   27  C   UNK N   1      20.226  16.348   2.328  0.00  0.00     0.041 A 
HETATM   28  C   UNK N   1      20.090  15.645   1.122  0.00  0.00     0.037 A 
HETATM   29  C   UNK N   1      20.782  14.457   0.924  0.00  0.00     0.057 A 
HETATM   30 Cl   UNK N   1      18.989  16.188  -0.124  0.00  0.00    -0.084 Cl
HETATM   31  C   UNK N   1      21.596  13.936   1.929  0.00  0.00     0.083 A 
HETATM   32  C   UNK N   1      21.714  14.617   3.147  0.00  0.00     0.156 A 
HETATM   33  F   UNK N   1      22.504  14.081   4.115  0.00  0.00    -0.203 F 
BRANCH  31  34
HETATM   34  N   UNK N   1      22.290  12.710   1.735  0.00  0.00    -0.282 N 
HETATM   35  H   UNK N   1      22.340  12.078   2.488  0.00  0.00     0.178 HD
BRANCH  34  36
HETATM   36  S   UNK N   1      23.065  12.265   0.215  0.00  0.00     0.227 S 
HETATM   37  O   UNK N   1      22.050  11.116   0.321  0.00  0.00    -0.206 OA
HETATM   38  O   UNK N   1      24.108  11.834   1.257  0.00  0.00    -0.206 OA
HETATM   39  C   UNK N   1      23.845  10.681  -0.196  0.00  0.00     0.186 C 
ENDBRANCH  34  36
ENDBRANCH  31  34
ENDBRANCH   6  26
BRANCH   3  40
HETATM   40  C   UNK N   1      20.339  16.648   8.161  0.00  0.00     0.099 C 
HETATM   41  C   UNK N   1      20.768  15.292   8.698  0.00  0.00     0.034 C 
HETATM   42  C   UNK N   1      18.826  16.748   8.224  0.00  0.00     0.034 C 
ENDBRANCH   3  40
TORSDOF 9
ENDMDL
