MODEL 1
REMARK VINA RESULT:      -8.0      0.000      0.000
REMARK  5 active torsions:
REMARK  status: ('A' for Active; 'I' for Inactive)
REMARK    1  A    between atoms: C_2  and  C_7 
REMARK    2  A    between atoms: C_3  and  C_4 
REMARK    3  A    between atoms: C_4  and  O_6 
REMARK    4  A    between atoms: C_9  and  C_8 
REMARK    5  A    between atoms: C_11  and  C_13 
ROOT
HETATM    1  C   UNK N   1      27.846  19.434   5.682  0.00  0.00    -0.049 A 
HETATM    2  C   UNK N   1      28.454  18.789   4.605  0.00  0.00     0.008 A 
HETATM    3  C   UNK N   1      29.462  17.857   4.818  0.00  0.00     0.009 A 
HETATM    4  C   UNK N   1      29.870  17.524   6.119  0.00  0.00    -0.043 A 
HETATM    5  C   UNK N   1      29.228  18.143   7.227  0.00  0.00    -0.043 A 
HETATM    6  C   UNK N   1      28.231  19.110   6.988  0.00  0.00     0.016 A 
HETATM    7  C   UNK N   1      29.554  17.741   8.659  0.00  0.00    -0.020 C 
HETATM    8  C   UNK N   1      30.359  16.442   8.726  0.00  0.00     0.015 C 
HETATM    9  C   UNK N   1      31.502  16.457   7.737  0.00  0.00     0.015 C 
HETATM   10  C   UNK N   1      30.987  16.509   6.299  0.00  0.00    -0.020 C 
HETATM   11  C   UNK N   1      30.499  15.134   5.868  0.00  0.00     0.020 C 
HETATM   12  C   UNK N   1      32.183  16.884   5.439  0.00  0.00     0.020 C 
HETATM   13  C   UNK N   1      28.273  17.469   9.432  0.00  0.00     0.020 C 
HETATM   14  C   UNK N   1      30.305  18.863   9.356  0.00  0.00     0.020 C 
ENDROOT
BRANCH   1  15
HETATM   15  C   UNK N   1      26.685  20.353   5.428  0.00  0.00    -0.009 A 
HETATM   16  C   UNK N   1      26.172  20.384   4.009  0.00  0.00     0.024 A 
HETATM   17  C   UNK N   1      25.286  19.817   5.113  0.00  0.00     0.022 A 
HETATM   18  C   UNK N   1      26.780  21.772   5.955  0.00  0.00     0.021 C 
BRANCH  17  19
HETATM   19  C   UNK N   1      25.146  18.367   4.752  0.00  0.00    -0.020 C 
HETATM   20  C   UNK N   1      23.994  17.744   4.454  0.00  0.00     0.003 C 
BRANCH  20  21
HETATM   21  C   UNK N   1      22.615  18.262   4.616  0.00  0.00    -0.056 C 
HETATM   22  C   UNK N   1      21.845  18.039   5.883  0.00  0.00     0.048 C 
HETATM   23  C   UNK N   1      22.064  18.886   3.560  0.00  0.00     0.087 C 
BRANCH  23  24
HETATM   24  C   UNK N   1      20.672  19.381   3.467  0.00  0.00     0.165 C 
HETATM   25  O   UNK N   1      19.792  18.617   3.096  0.00  0.00    -0.647 OA
BRANCH  24  26
HETATM   26  O   UNK N   1      20.346  20.632   3.837  0.00  0.00    -0.773 OA
HETATM   27  H   UNK N   1      20.461  21.532   4.071  0.00  0.00     0.167 HD
ENDBRANCH  24  26
ENDBRANCH  23  24
ENDBRANCH  20  21
ENDBRANCH  17  19
ENDBRANCH   1  15
TORSDOF 5
ENDMDL
MODEL 2
REMARK VINA RESULT:      -7.8     11.190     14.180
REMARK  5 active torsions:
REMARK  status: ('A' for Active; 'I' for Inactive)
REMARK    1  A    between atoms: C_2  and  C_7 
REMARK    2  A    between atoms: C_3  and  C_4 
REMARK    3  A    between atoms: C_4  and  O_6 
REMARK    4  A    between atoms: C_9  and  C_8 
REMARK    5  A    between atoms: C_11  and  C_13 
ROOT
HETATM    1  C   UNK N   1      28.687  23.594  -4.696  0.00  0.00    -0.049 A 
HETATM    2  C   UNK N   1      27.360  24.022  -4.703  0.00  0.00     0.008 A 
HETATM    3  C   UNK N   1      26.507  23.660  -5.739  0.00  0.00     0.009 A 
HETATM    4  C   UNK N   1      26.952  22.834  -6.782  0.00  0.00    -0.043 A 
HETATM    5  C   UNK N   1      28.291  22.355  -6.763  0.00  0.00    -0.043 A 
HETATM    6  C   UNK N   1      29.150  22.761  -5.722  0.00  0.00     0.016 A 
HETATM    7  C   UNK N   1      28.797  21.370  -7.809  0.00  0.00    -0.020 C 
HETATM    8  C   UNK N   1      27.657  20.753  -8.621  0.00  0.00     0.015 C 
HETATM    9  C   UNK N   1      26.681  21.812  -9.084  0.00  0.00     0.015 C 
HETATM   10  C   UNK N   1      25.985  22.477  -7.898  0.00  0.00    -0.020 C 
HETATM   11  C   UNK N   1      24.894  21.567  -7.354  0.00  0.00     0.020 C 
HETATM   12  C   UNK N   1      25.331  23.734  -8.449  0.00  0.00     0.020 C 
HETATM   13  C   UNK N   1      29.498  20.202  -7.134  0.00  0.00     0.020 C 
HETATM   14  C   UNK N   1      29.790  22.056  -8.732  0.00  0.00     0.020 C 
ENDROOT
BRANCH   1  15
HETATM   15  C   UNK N   1      29.555  23.908  -3.510  0.00  0.00    -0.009 A 
HETATM   16  C   UNK N   1      31.041  23.920  -3.773  0.00  0.00     0.024 A 
HETATM   17  C   UNK N   1      30.334  25.221  -3.409  0.00  0.00     0.022 A 
HETATM   18  C   UNK N   1      29.282  23.163  -2.219  0.00  0.00     0.021 C 
BRANCH  17  19
HETATM   19  C   UNK N   1      30.472  26.064  -4.643  0.00  0.00    -0.020 C 
HETATM   20  C   UNK N   1      29.905  27.266  -4.836  0.00  0.00     0.003 C 
BRANCH  20  21
HETATM   21  C   UNK N   1      28.872  27.925  -4.002  0.00  0.00    -0.056 C 
HETATM   22  C   UNK N   1      29.250  28.853  -2.887  0.00  0.00     0.048 C 
HETATM   23  C   UNK N   1      27.588  27.608  -4.247  0.00  0.00     0.087 C 
BRANCH  23  24
HETATM   24  C   UNK N   1      26.413  28.061  -3.469  0.00  0.00     0.165 C 
HETATM   25  O   UNK N   1      26.051  27.407  -2.502  0.00  0.00    -0.647 OA
BRANCH  24  26
HETATM   26  O   UNK N   1      25.773  29.206  -3.768  0.00  0.00    -0.773 OA
HETATM   27  H   UNK N   1      25.272  29.824  -4.264  0.00  0.00     0.167 HD
ENDBRANCH  24  26
ENDBRANCH  23  24
ENDBRANCH  20  21
ENDBRANCH  17  19
ENDBRANCH   1  15
TORSDOF 5
ENDMDL
MODEL 3
REMARK VINA RESULT:      -7.6      2.191      3.881
REMARK  5 active torsions:
REMARK  status: ('A' for Active; 'I' for Inactive)
REMARK    1  A    between atoms: C_2  and  C_7 
REMARK    2  A    between atoms: C_3  and  C_4 
REMARK    3  A    between atoms: C_4  and  O_6 
REMARK    4  A    between atoms: C_9  and  C_8 
REMARK    5  A    between atoms: C_11  and  C_13 
ROOT
HETATM    1  C   UNK N   1      29.463  17.291   6.845  0.00  0.00    -0.049 A 
HETATM    2  C   UNK N   1      29.353  16.795   5.546  0.00  0.00     0.008 A 
HETATM    3  C   UNK N   1      30.479  16.354   4.861  0.00  0.00     0.009 A 
HETATM    4  C   UNK N   1      31.743  16.371   5.470  0.00  0.00    -0.043 A 
HETATM    5  C   UNK N   1      31.862  16.834   6.809  0.00  0.00    -0.043 A 
HETATM    6  C   UNK N   1      30.714  17.308   7.474  0.00  0.00     0.016 A 
HETATM    7  C   UNK N   1      33.188  16.774   7.555  0.00  0.00    -0.020 C 
HETATM    8  C   UNK N   1      34.218  15.901   6.836  0.00  0.00     0.015 C 
HETATM    9  C   UNK N   1      34.271  16.224   5.359  0.00  0.00     0.015 C 
HETATM   10  C   UNK N   1      32.946  15.891   4.674  0.00  0.00    -0.020 C 
HETATM   11  C   UNK N   1      32.838  14.391   4.444  0.00  0.00     0.020 C 
HETATM   12  C   UNK N   1      32.990  16.582   3.320  0.00  0.00     0.020 C 
HETATM   13  C   UNK N   1      32.993  16.135   8.921  0.00  0.00     0.020 C 
HETATM   14  C   UNK N   1      33.736  18.177   7.756  0.00  0.00     0.020 C 
ENDROOT
BRANCH   1  15
HETATM   15  C   UNK N   1      28.217  17.657   7.600  0.00  0.00    -0.009 A 
HETATM   16  C   UNK N   1      28.355  18.801   8.575  0.00  0.00     0.024 A 
HETATM   17  C   UNK N   1      27.474  18.970   7.342  0.00  0.00     0.022 A 
HETATM   18  C   UNK N   1      27.434  16.536   8.255  0.00  0.00     0.021 C 
BRANCH  17  19
HETATM   19  C   UNK N   1      28.170  20.035   6.545  0.00  0.00    -0.020 C 
HETATM   20  C   UNK N   1      27.789  20.482   5.337  0.00  0.00     0.003 C 
BRANCH  20  21
HETATM   21  C   UNK N   1      26.761  19.904   4.440  0.00  0.00    -0.056 C 
HETATM   22  C   UNK N   1      26.992  18.605   3.729  0.00  0.00     0.048 C 
HETATM   23  C   UNK N   1      25.641  20.622   4.244  0.00  0.00     0.087 C 
BRANCH  23  24
HETATM   24  C   UNK N   1      24.541  20.288   3.310  0.00  0.00     0.165 C 
HETATM   25  O   UNK N   1      23.653  19.535   3.683  0.00  0.00    -0.647 OA
BRANCH  24  26
HETATM   26  O   UNK N   1      24.469  20.839   2.086  0.00  0.00    -0.773 OA
HETATM   27  H   UNK N   1      24.737  21.094   1.225  0.00  0.00     0.167 HD
ENDBRANCH  24  26
ENDBRANCH  23  24
ENDBRANCH  20  21
ENDBRANCH  17  19
ENDBRANCH   1  15
TORSDOF 5
ENDMDL
MODEL 4
REMARK VINA RESULT:      -7.5      4.603      8.242
REMARK  5 active torsions:
REMARK  status: ('A' for Active; 'I' for Inactive)
REMARK    1  A    between atoms: C_2  and  C_7 
REMARK    2  A    between atoms: C_3  and  C_4 
REMARK    3  A    between atoms: C_4  and  O_6 
REMARK    4  A    between atoms: C_9  and  C_8 
REMARK    5  A    between atoms: C_11  and  C_13 
ROOT
HETATM    1  C   UNK N   1      29.796  16.082   4.901  0.00  0.00    -0.049 A 
HETATM    2  C   UNK N   1      29.112  16.725   3.869  0.00  0.00     0.008 A 
HETATM    3  C   UNK N   1      28.276  17.802   4.141  0.00  0.00     0.009 A 
HETATM    4  C   UNK N   1      28.126  18.283   5.450  0.00  0.00    -0.043 A 
HETATM    5  C   UNK N   1      28.851  17.664   6.504  0.00  0.00    -0.043 A 
HETATM    6  C   UNK N   1      29.668  16.552   6.214  0.00  0.00     0.016 A 
HETATM    7  C   UNK N   1      28.811  18.212   7.925  0.00  0.00    -0.020 C 
HETATM    8  C   UNK N   1      28.198  19.612   7.987  0.00  0.00     0.015 C 
HETATM    9  C   UNK N   1      26.919  19.684   7.183  0.00  0.00     0.015 C 
HETATM   10  C   UNK N   1      27.189  19.455   5.696  0.00  0.00    -0.020 C 
HETATM   11  C   UNK N   1      27.772  20.712   5.070  0.00  0.00     0.020 C 
HETATM   12  C   UNK N   1      25.834  19.187   5.061  0.00  0.00     0.020 C 
HETATM   13  C   UNK N   1      30.222  18.359   8.471  0.00  0.00     0.020 C 
HETATM   14  C   UNK N   1      28.044  17.260   8.827  0.00  0.00     0.020 C 
ENDROOT
BRANCH   1  15
HETATM   15  C   UNK N   1      30.777  14.994   4.567  0.00  0.00    -0.009 A 
HETATM   16  C   UNK N   1      31.326  15.016   3.162  0.00  0.00     0.024 A 
HETATM   17  C   UNK N   1      32.260  15.289   4.335  0.00  0.00     0.022 A 
HETATM   18  C   UNK N   1      30.403  13.571   4.934  0.00  0.00     0.021 C 
BRANCH  17  19
HETATM   19  C   UNK N   1      32.678  16.717   4.137  0.00  0.00    -0.020 C 
HETATM   20  C   UNK N   1      33.515  17.404   4.933  0.00  0.00     0.003 C 
BRANCH  20  21
HETATM   21  C   UNK N   1      34.035  17.003   6.262  0.00  0.00    -0.056 C 
HETATM   22  C   UNK N   1      34.786  15.720   6.448  0.00  0.00     0.048 C 
HETATM   23  C   UNK N   1      33.750  17.807   7.302  0.00  0.00     0.087 C 
BRANCH  23  24
HETATM   24  C   UNK N   1      34.074  17.545   8.723  0.00  0.00     0.165 C 
HETATM   25  O   UNK N   1      35.101  18.009   9.195  0.00  0.00    -0.647 OA
BRANCH  24  26
HETATM   26  O   UNK N   1      33.233  16.858   9.518  0.00  0.00    -0.773 OA
HETATM   27  H   UNK N   1      32.943  16.215  10.134  0.00  0.00     0.167 HD
ENDBRANCH  24  26
ENDBRANCH  23  24
ENDBRANCH  20  21
ENDBRANCH  17  19
ENDBRANCH   1  15
TORSDOF 5
ENDMDL
MODEL 5
REMARK VINA RESULT:      -7.5     13.993     18.043
REMARK  5 active torsions:
REMARK  status: ('A' for Active; 'I' for Inactive)
REMARK    1  A    between atoms: C_2  and  C_7 
REMARK    2  A    between atoms: C_3  and  C_4 
REMARK    3  A    between atoms: C_4  and  O_6 
REMARK    4  A    between atoms: C_9  and  C_8 
REMARK    5  A    between atoms: C_11  and  C_13 
ROOT
HETATM    1  C   UNK N   1      35.113   9.385  18.979  0.00  0.00    -0.049 A 
HETATM    2  C   UNK N   1      35.759   9.823  20.134  0.00  0.00     0.008 A 
HETATM    3  C   UNK N   1      35.179   9.633  21.383  0.00  0.00     0.009 A 
HETATM    4  C   UNK N   1      33.948   8.972  21.511  0.00  0.00    -0.043 A 
HETATM    5  C   UNK N   1      33.300   8.482  20.344  0.00  0.00    -0.043 A 
HETATM    6  C   UNK N   1      33.888   8.714  19.084  0.00  0.00     0.016 A 
HETATM    7  C   UNK N   1      32.019   7.663  20.432  0.00  0.00    -0.020 C 
HETATM    8  C   UNK N   1      31.731   7.190  21.857  0.00  0.00     0.015 C 
HETATM    9  C   UNK N   1      31.900   8.318  22.851  0.00  0.00     0.015 C 
HETATM   10  C   UNK N   1      33.349   8.801  22.897  0.00  0.00    -0.020 C 
HETATM   11  C   UNK N   1      34.199   7.831  23.703  0.00  0.00     0.020 C 
HETATM   12  C   UNK N   1      33.322  10.135  23.626  0.00  0.00     0.020 C 
HETATM   13  C   UNK N   1      32.146   6.398  19.598  0.00  0.00     0.020 C 
HETATM   14  C   UNK N   1      30.848   8.472  19.898  0.00  0.00     0.020 C 
ENDROOT
BRANCH   1  15
HETATM   15  C   UNK N   1      35.813   9.504  17.655  0.00  0.00    -0.009 A 
HETATM   16  C   UNK N   1      34.946   9.923  16.492  0.00  0.00     0.024 A 
HETATM   17  C   UNK N   1      36.043  10.861  16.985  0.00  0.00     0.022 A 
HETATM   18  C   UNK N   1      36.707   8.359  17.223  0.00  0.00     0.021 C 
BRANCH  17  19
HETATM   19  C   UNK N   1      35.291  12.049  17.509  0.00  0.00    -0.020 C 
HETATM   20  C   UNK N   1      35.143  13.224  16.875  0.00  0.00     0.003 C 
BRANCH  20  21
HETATM   21  C   UNK N   1      35.842  13.687  15.652  0.00  0.00    -0.056 C 
HETATM   22  C   UNK N   1      37.024  14.606  15.733  0.00  0.00     0.048 C 
HETATM   23  C   UNK N   1      35.336  13.298  14.468  0.00  0.00     0.087 C 
BRANCH  23  24
HETATM   24  C   UNK N   1      35.807  13.729  13.133  0.00  0.00     0.165 C 
HETATM   25  O   UNK N   1      35.031  14.311  12.388  0.00  0.00    -0.647 OA
BRANCH  24  26
HETATM   26  O   UNK N   1      37.082  13.547  12.746  0.00  0.00    -0.773 OA
HETATM   27  H   UNK N   1      37.878  13.677  12.270  0.00  0.00     0.167 HD
ENDBRANCH  24  26
ENDBRANCH  23  24
ENDBRANCH  20  21
ENDBRANCH  17  19
ENDBRANCH   1  15
TORSDOF 5
ENDMDL
MODEL 6
REMARK VINA RESULT:      -7.3     11.652     13.110
REMARK  5 active torsions:
REMARK  status: ('A' for Active; 'I' for Inactive)
REMARK    1  A    between atoms: C_2  and  C_7 
REMARK    2  A    between atoms: C_3  and  C_4 
REMARK    3  A    between atoms: C_4  and  O_6 
REMARK    4  A    between atoms: C_9  and  C_8 
REMARK    5  A    between atoms: C_11  and  C_13 
ROOT
HETATM    1  C   UNK N   1      28.275  22.981  -6.744  0.00  0.00    -0.049 A 
HETATM    2  C   UNK N   1      28.496  21.651  -7.100  0.00  0.00     0.008 A 
HETATM    3  C   UNK N   1      29.671  21.007  -6.729  0.00  0.00     0.009 A 
HETATM    4  C   UNK N   1      30.644  21.669  -5.966  0.00  0.00    -0.043 A 
HETATM    5  C   UNK N   1      30.411  23.012  -5.560  0.00  0.00    -0.043 A 
HETATM    6  C   UNK N   1      29.229  23.658  -5.975  0.00  0.00     0.016 A 
HETATM    7  C   UNK N   1      31.381  23.743  -4.642  0.00  0.00    -0.020 C 
HETATM    8  C   UNK N   1      32.390  22.794  -3.993  0.00  0.00     0.015 C 
HETATM    9  C   UNK N   1      32.985  21.850  -5.014  0.00  0.00     0.015 C 
HETATM   10  C   UNK N   1      31.917  20.925  -5.598  0.00  0.00    -0.020 C 
HETATM   11  C   UNK N   1      31.590  19.814  -4.612  0.00  0.00     0.020 C 
HETATM   12  C   UNK N   1      32.538  20.300  -6.837  0.00  0.00     0.020 C 
HETATM   13  C   UNK N   1      30.628  24.389  -3.490  0.00  0.00     0.020 C 
HETATM   14  C   UNK N   1      32.105  24.835  -5.413  0.00  0.00     0.020 C 
ENDROOT
BRANCH   1  15
HETATM   15  C   UNK N   1      26.952  23.618  -7.062  0.00  0.00    -0.009 A 
HETATM   16  C   UNK N   1      25.734  22.877  -6.568  0.00  0.00     0.024 A 
HETATM   17  C   UNK N   1      26.074  24.239  -5.973  0.00  0.00     0.022 A 
HETATM   18  C   UNK N   1      26.713  24.074  -8.488  0.00  0.00     0.021 C 
BRANCH  17  19
HETATM   19  C   UNK N   1      26.399  23.935  -4.540  0.00  0.00    -0.020 C 
HETATM   20  C   UNK N   1      26.711  24.843  -3.600  0.00  0.00     0.003 C 
BRANCH  20  21
HETATM   21  C   UNK N   1      27.014  26.281  -3.794  0.00  0.00    -0.056 C 
HETATM   22  C   UNK N   1      28.179  26.725  -4.627  0.00  0.00     0.048 C 
HETATM   23  C   UNK N   1      26.238  27.167  -3.144  0.00  0.00     0.087 C 
BRANCH  23  24
HETATM   24  C   UNK N   1      26.428  28.634  -3.110  0.00  0.00     0.165 C 
HETATM   25  O   UNK N   1      27.203  29.115  -2.295  0.00  0.00    -0.647 OA
BRANCH  24  26
HETATM   26  O   UNK N   1      25.814  29.442  -3.993  0.00  0.00    -0.773 OA
HETATM   27  H   UNK N   1      25.712  30.036  -4.710  0.00  0.00     0.167 HD
ENDBRANCH  24  26
ENDBRANCH  23  24
ENDBRANCH  20  21
ENDBRANCH  17  19
ENDBRANCH   1  15
TORSDOF 5
ENDMDL
MODEL 7
REMARK VINA RESULT:      -7.2      0.844      2.524
REMARK  5 active torsions:
REMARK  status: ('A' for Active; 'I' for Inactive)
REMARK    1  A    between atoms: C_2  and  C_7 
REMARK    2  A    between atoms: C_3  and  C_4 
REMARK    3  A    between atoms: C_4  and  O_6 
REMARK    4  A    between atoms: C_9  and  C_8 
REMARK    5  A    between atoms: C_11  and  C_13 
ROOT
HETATM    1  C   UNK N   1      27.870  19.213   6.267  0.00  0.00    -0.049 A 
HETATM    2  C   UNK N   1      28.208  19.396   7.607  0.00  0.00     0.008 A 
HETATM    3  C   UNK N   1      29.206  18.626   8.195  0.00  0.00     0.009 A 
HETATM    4  C   UNK N   1      29.911  17.671   7.447  0.00  0.00    -0.043 A 
HETATM    5  C   UNK N   1      29.605  17.505   6.068  0.00  0.00    -0.043 A 
HETATM    6  C   UNK N   1      28.567  18.272   5.500  0.00  0.00     0.016 A 
HETATM    7  C   UNK N   1      30.410  16.563   5.183  0.00  0.00    -0.020 C 
HETATM    8  C   UNK N   1      31.708  16.109   5.853  0.00  0.00     0.015 C 
HETATM    9  C   UNK N   1      31.463  15.675   7.281  0.00  0.00     0.015 C 
HETATM   10  C   UNK N   1      30.983  16.845   8.139  0.00  0.00    -0.020 C 
HETATM   11  C   UNK N   1      32.156  17.740   8.507  0.00  0.00     0.020 C 
HETATM   12  C   UNK N   1      30.431  16.229   9.414  0.00  0.00     0.020 C 
HETATM   13  C   UNK N   1      30.834  17.275   3.908  0.00  0.00     0.020 C 
HETATM   14  C   UNK N   1      29.565  15.359   4.802  0.00  0.00     0.020 C 
ENDROOT
BRANCH   1  15
HETATM   15  C   UNK N   1      26.867  20.133   5.630  0.00  0.00    -0.009 A 
HETATM   16  C   UNK N   1      26.671  19.959   4.144  0.00  0.00     0.024 A 
HETATM   17  C   UNK N   1      25.529  19.619   5.094  0.00  0.00     0.022 A 
HETATM   18  C   UNK N   1      26.962  21.612   5.950  0.00  0.00     0.021 C 
BRANCH  17  19
HETATM   19  C   UNK N   1      25.351  18.138   4.929  0.00  0.00    -0.020 C 
HETATM   20  C   UNK N   1      24.186  17.510   4.699  0.00  0.00     0.003 C 
BRANCH  20  21
HETATM   21  C   UNK N   1      22.820  18.083   4.770  0.00  0.00    -0.056 C 
HETATM   22  C   UNK N   1      22.005  17.995   6.025  0.00  0.00     0.048 C 
HETATM   23  C   UNK N   1      22.322  18.627   3.646  0.00  0.00     0.087 C 
BRANCH  23  24
HETATM   24  C   UNK N   1      20.950  19.154   3.464  0.00  0.00     0.165 C 
HETATM   25  O   UNK N   1      20.136  18.491   2.837  0.00  0.00    -0.647 OA
BRANCH  24  26
HETATM   26  O   UNK N   1      20.565  20.315   4.024  0.00  0.00    -0.773 OA
HETATM   27  H   UNK N   1      20.008  21.033   4.251  0.00  0.00     0.167 HD
ENDBRANCH  24  26
ENDBRANCH  23  24
ENDBRANCH  20  21
ENDBRANCH  17  19
ENDBRANCH   1  15
TORSDOF 5
ENDMDL
MODEL 8
REMARK VINA RESULT:      -7.2     12.713     15.898
REMARK  5 active torsions:
REMARK  status: ('A' for Active; 'I' for Inactive)
REMARK    1  A    between atoms: C_2  and  C_7 
REMARK    2  A    between atoms: C_3  and  C_4 
REMARK    3  A    between atoms: C_4  and  O_6 
REMARK    4  A    between atoms: C_9  and  C_8 
REMARK    5  A    between atoms: C_11  and  C_13 
ROOT
HETATM    1  C   UNK N   1      26.718  27.367  -6.173  0.00  0.00    -0.049 A 
HETATM    2  C   UNK N   1      25.503  26.790  -6.542  0.00  0.00     0.008 A 
HETATM    3  C   UNK N   1      25.333  26.256  -7.814  0.00  0.00     0.009 A 
HETATM    4  C   UNK N   1      26.385  26.260  -8.742  0.00  0.00    -0.043 A 
HETATM    5  C   UNK N   1      27.642  26.806  -8.363  0.00  0.00    -0.043 A 
HETATM    6  C   UNK N   1      27.784  27.373  -7.081  0.00  0.00     0.016 A 
HETATM    7  C   UNK N   1      28.849  26.739  -9.290  0.00  0.00    -0.020 C 
HETATM    8  C   UNK N   1      28.629  25.776 -10.457  0.00  0.00     0.015 C 
HETATM    9  C   UNK N   1      27.277  25.997 -11.099  0.00  0.00     0.015 C 
HETATM   10  C   UNK N   1      26.144  25.676 -10.125  0.00  0.00    -0.020 C 
HETATM   11  C   UNK N   1      25.958  24.170 -10.016  0.00  0.00     0.020 C 
HETATM   12  C   UNK N   1      24.886  26.272 -10.735  0.00  0.00     0.020 C 
HETATM   13  C   UNK N   1      30.058  26.202  -8.539  0.00  0.00     0.020 C 
HETATM   14  C   UNK N   1      29.185  28.127  -9.808  0.00  0.00     0.020 C 
ENDROOT
BRANCH   1  15
HETATM   15  C   UNK N   1      26.910  27.836  -4.759  0.00  0.00    -0.009 A 
HETATM   16  C   UNK N   1      25.664  27.877  -3.908  0.00  0.00     0.024 A 
HETATM   17  C   UNK N   1      26.770  26.884  -3.568  0.00  0.00     0.022 A 
HETATM   18  C   UNK N   1      27.705  29.108  -4.539  0.00  0.00     0.021 C 
BRANCH  17  19
HETATM   19  C   UNK N   1      26.135  25.545  -3.801  0.00  0.00    -0.020 C 
HETATM   20  C   UNK N   1      26.763  24.359  -3.729  0.00  0.00     0.003 C 
BRANCH  20  21
HETATM   21  C   UNK N   1      28.221  24.111  -3.624  0.00  0.00    -0.056 C 
HETATM   22  C   UNK N   1      29.185  24.726  -4.593  0.00  0.00     0.048 C 
HETATM   23  C   UNK N   1      28.634  23.265  -2.665  0.00  0.00     0.087 C 
BRANCH  23  24
HETATM   24  C   UNK N   1      30.022  22.794  -2.454  0.00  0.00     0.165 C 
HETATM   25  O   UNK N   1      30.638  23.179  -1.471  0.00  0.00    -0.647 OA
BRANCH  24  26
HETATM   26  O   UNK N   1      30.596  21.908  -3.287  0.00  0.00    -0.773 OA
HETATM   27  H   UNK N   1      31.138  21.583  -3.979  0.00  0.00     0.167 HD
ENDBRANCH  24  26
ENDBRANCH  23  24
ENDBRANCH  20  21
ENDBRANCH  17  19
ENDBRANCH   1  15
TORSDOF 5
ENDMDL
MODEL 9
REMARK VINA RESULT:      -7.1     11.401     14.040
REMARK  5 active torsions:
REMARK  status: ('A' for Active; 'I' for Inactive)
REMARK    1  A    between atoms: C_2  and  C_7 
REMARK    2  A    between atoms: C_3  and  C_4 
REMARK    3  A    between atoms: C_4  and  O_6 
REMARK    4  A    between atoms: C_9  and  C_8 
REMARK    5  A    between atoms: C_11  and  C_13 
ROOT
HETATM    1  C   UNK N   1      29.324  22.880  -4.704  0.00  0.00    -0.049 A 
HETATM    2  C   UNK N   1      30.283  21.895  -4.943  0.00  0.00     0.008 A 
HETATM    3  C   UNK N   1      30.214  21.105  -6.084  0.00  0.00     0.009 A 
HETATM    4  C   UNK N   1      29.198  21.298  -7.032  0.00  0.00    -0.043 A 
HETATM    5  C   UNK N   1      28.240  22.326  -6.822  0.00  0.00    -0.043 A 
HETATM    6  C   UNK N   1      28.307  23.095  -5.642  0.00  0.00     0.016 A 
HETATM    7  C   UNK N   1      27.182  22.652  -7.868  0.00  0.00    -0.020 C 
HETATM    8  C   UNK N   1      27.481  21.996  -9.217  0.00  0.00     0.015 C 
HETATM    9  C   UNK N   1      27.857  20.542  -9.045  0.00  0.00     0.015 C 
HETATM   10  C   UNK N   1      29.158  20.397  -8.257  0.00  0.00    -0.020 C 
HETATM   11  C   UNK N   1      30.350  20.703  -9.152  0.00  0.00     0.020 C 
HETATM   12  C   UNK N   1      29.235  18.938  -7.839  0.00  0.00     0.020 C 
HETATM   13  C   UNK N   1      27.153  24.148  -8.138  0.00  0.00     0.020 C 
HETATM   14  C   UNK N   1      25.810  22.229  -7.369  0.00  0.00     0.020 C 
ENDROOT
BRANCH   1  15
HETATM   15  C   UNK N   1      29.485  23.792  -3.522  0.00  0.00    -0.009 A 
HETATM   16  C   UNK N   1      30.799  24.530  -3.438  0.00  0.00     0.024 A 
HETATM   17  C   UNK N   1      29.514  25.314  -3.676  0.00  0.00     0.022 A 
HETATM   18  C   UNK N   1      29.135  23.242  -2.153  0.00  0.00     0.021 C 
BRANCH  17  19
HETATM   19  C   UNK N   1      29.690  25.885  -5.053  0.00  0.00    -0.020 C 
HETATM   20  C   UNK N   1      28.861  26.757  -5.650  0.00  0.00     0.003 C 
BRANCH  20  21
HETATM   21  C   UNK N   1      27.513  27.179  -5.200  0.00  0.00    -0.056 C 
HETATM   22  C   UNK N   1      26.284  26.808  -5.974  0.00  0.00     0.048 C 
HETATM   23  C   UNK N   1      27.445  27.958  -4.105  0.00  0.00     0.087 C 
BRANCH  23  24
HETATM   24  C   UNK N   1      26.221  28.578  -3.549  0.00  0.00     0.165 C 
HETATM   25  O   UNK N   1      25.464  27.897  -2.873  0.00  0.00    -0.647 OA
BRANCH  24  26
HETATM   26  O   UNK N   1      25.957  29.885  -3.722  0.00  0.00    -0.773 OA
HETATM   27  H   UNK N   1      25.976  30.809  -3.566  0.00  0.00     0.167 HD
ENDBRANCH  24  26
ENDBRANCH  23  24
ENDBRANCH  20  21
ENDBRANCH  17  19
ENDBRANCH   1  15
TORSDOF 5
ENDMDL
