MODEL 1
REMARK VINA RESULT:      -6.1      0.000      0.000
REMARK  6 active torsions:
REMARK  status: ('A' for Active; 'I' for Inactive)
REMARK    1  A    between atoms: C_5  and  C_2 
REMARK    2  A    between atoms: O_19  and  C_2 
REMARK    3  A    between atoms: C_7  and  C_4 
REMARK    4  A    between atoms: C_9  and  O_20 
REMARK    5  A    between atoms: C_10  and  O_21 
REMARK    6  A    between atoms: N_12  and  C_11 
ROOT
HETATM    1  C   UNK N   1      32.853  13.899   8.013  0.00  0.00     0.100 A 
HETATM    2  C   UNK N   1      30.716  17.836   8.288  0.00  0.00     0.182 A 
HETATM    3  C   UNK N   1      32.900  14.958   8.922  0.00  0.00     0.011 A 
HETATM    4  C   UNK N   1      31.994  15.883   8.460  0.00  0.00     0.073 A 
HETATM    5  C   UNK N   1      31.434  15.382   7.336  0.00  0.00     0.103 A 
HETATM    6  C   UNK N   1      30.471  16.118   6.656  0.00  0.00     0.129 A 
HETATM    7  N   UNK N   1      31.939  14.168   7.042  0.00  0.00    -0.360 N 
HETATM    8  N   UNK N   1      31.656  17.099   8.955  0.00  0.00    -0.350 N 
ATOM      9  HN  UNK N   1      32.091  17.456   9.805  1.00  0.00     0.166 HD
HETATM   10  N   UNK N   1      30.129  17.344   7.150  0.00  0.00    -0.337 N 
HETATM   11  H   UNK N   1      31.697  13.594   6.280  0.00  0.00     0.165 HD
HETATM   12  H   UNK N   1      29.451  17.883   6.681  0.00  0.00     0.168 HD
ENDROOT
BRANCH   3  13
HETATM   13  C   UNK N   1      33.761  15.045  10.156  0.00  0.00     0.145 C 
HETATM   14  C   UNK N   1      34.944  16.000   9.963  0.00  0.00     0.175 C 
HETATM   15  C   UNK N   1      35.920  15.440  10.965  0.00  0.00     0.173 C 
HETATM   16  C   UNK N   1      35.782  13.965  10.620  0.00  0.00     0.132 C 
HETATM   17  N   UNK N   1      34.339  13.734  10.506  0.00  0.00    -0.402 N 
HETATM   18  H   UNK N   1      33.842  12.854  10.640  0.00  0.00     0.154 HD
BRANCH  14  19
HETATM   19  O   UNK N   1      34.611  17.333  10.214  0.00  0.00    -0.391 OA
HETATM   20  H   UNK N   1      33.831  17.834   9.928  0.00  0.00     0.210 HD
ENDBRANCH  14  19
BRANCH  15  21
HETATM   21  O   UNK N   1      37.218  15.920  10.779  0.00  0.00    -0.391 OA
HETATM   22  H   UNK N   1      38.077  15.517  10.577  0.00  0.00     0.210 HD
ENDBRANCH  15  21
BRANCH  16  23
HETATM   23  C   UNK N   1      36.439  13.019  11.621  0.00  0.00     0.191 C 
BRANCH  23  24
HETATM   24  O   UNK N   1      37.082  13.728  12.636  0.00  0.00    -0.399 OA
HETATM   25  H   UNK N   1      37.266  14.448  13.258  0.00  0.00     0.209 HD
ENDBRANCH  23  24
ENDBRANCH  16  23
ENDBRANCH   3  13
BRANCH   6  26
HETATM   26  N   UNK N   1      29.918  15.666   5.595  0.00  0.00    -0.384 N 
HETATM   27  H   UNK N   1      30.459  15.475   4.795  0.00  0.00     0.157 HD
ATOM     28  HN  UNK N   1      28.912  15.501   5.578  1.00  0.00     0.157 HD
ENDBRANCH   6  26
TORSDOF 6
ENDMDL
MODEL 2
REMARK VINA RESULT:      -6.0      2.216      3.122
REMARK  6 active torsions:
REMARK  status: ('A' for Active; 'I' for Inactive)
REMARK    1  A    between atoms: C_5  and  C_2 
REMARK    2  A    between atoms: O_19  and  C_2 
REMARK    3  A    between atoms: C_7  and  C_4 
REMARK    4  A    between atoms: C_9  and  O_20 
REMARK    5  A    between atoms: C_10  and  O_21 
REMARK    6  A    between atoms: N_12  and  C_11 
ROOT
HETATM    1  C   UNK N   1      31.261  16.949   6.227  0.00  0.00     0.100 A 
HETATM    2  C   UNK N   1      28.890  18.464   9.723  0.00  0.00     0.182 A 
HETATM    3  C   UNK N   1      31.570  17.190   7.567  0.00  0.00     0.011 A 
HETATM    4  C   UNK N   1      30.406  17.646   8.139  0.00  0.00     0.073 A 
HETATM    5  C   UNK N   1      29.455  17.659   7.179  0.00  0.00     0.103 A 
HETATM    6  C   UNK N   1      28.167  18.079   7.487  0.00  0.00     0.129 A 
HETATM    7  N   UNK N   1      29.950  17.235   6.000  0.00  0.00    -0.360 N 
HETATM    8  N   UNK N   1      30.153  18.040   9.412  0.00  0.00    -0.350 N 
ATOM      9  HN  UNK N   1      30.886  18.021  10.120  1.00  0.00     0.166 HD
HETATM   10  N   UNK N   1      27.908  18.479   8.766  0.00  0.00    -0.337 N 
HETATM   11  H   UNK N   1      29.464  17.150   5.149  0.00  0.00     0.165 HD
HETATM   12  H   UNK N   1      27.002  18.784   9.005  0.00  0.00     0.168 HD
ENDROOT
BRANCH   3  13
HETATM   13  C   UNK N   1      32.905  16.977   8.233  0.00  0.00     0.145 C 
HETATM   14  C   UNK N   1      33.956  16.445   7.253  0.00  0.00     0.175 C 
HETATM   15  C   UNK N   1      34.889  15.739   8.202  0.00  0.00     0.173 C 
HETATM   16  C   UNK N   1      33.853  14.994   9.030  0.00  0.00     0.132 C 
HETATM   17  N   UNK N   1      32.815  15.986   9.322  0.00  0.00    -0.402 N 
HETATM   18  H   UNK N   1      32.167  15.989  10.110  0.00  0.00     0.154 HD
BRANCH  14  19
HETATM   19  O   UNK N   1      34.584  17.461   6.528  0.00  0.00    -0.391 OA
HETATM   20  H   UNK N   1      35.208  18.138   6.836  0.00  0.00     0.210 HD
ENDBRANCH  14  19
BRANCH  15  21
HETATM   21  O   UNK N   1      35.776  14.882   7.546  0.00  0.00    -0.391 OA
HETATM   22  H   UNK N   1      36.161  14.841   6.657  0.00  0.00     0.210 HD
ENDBRANCH  15  21
BRANCH  16  23
HETATM   23  C   UNK N   1      34.404  14.348  10.296  0.00  0.00     0.191 C 
BRANCH  23  24
HETATM   24  O   UNK N   1      33.715  14.786  11.427  0.00  0.00    -0.399 OA
HETATM   25  H   UNK N   1      32.976  14.912  12.042  0.00  0.00     0.209 HD
ENDBRANCH  23  24
ENDBRANCH  16  23
ENDBRANCH   3  13
BRANCH   6  26
HETATM   26  N   UNK N   1      27.244  18.095   6.600  0.00  0.00    -0.384 N 
HETATM   27  H   UNK N   1      26.678  18.892   6.487  0.00  0.00     0.157 HD
ATOM     28  HN  UNK N   1      27.097  17.279   6.007  1.00  0.00     0.157 HD
ENDBRANCH   6  26
TORSDOF 6
ENDMDL
MODEL 3
REMARK VINA RESULT:      -5.8      3.372      6.572
REMARK  6 active torsions:
REMARK  status: ('A' for Active; 'I' for Inactive)
REMARK    1  A    between atoms: C_5  and  C_2 
REMARK    2  A    between atoms: O_19  and  C_2 
REMARK    3  A    between atoms: C_7  and  C_4 
REMARK    4  A    between atoms: C_9  and  O_20 
REMARK    5  A    between atoms: C_10  and  O_21 
REMARK    6  A    between atoms: N_12  and  C_11 
ROOT
HETATM    1  C   UNK N   1      35.968  15.584  12.272  0.00  0.00     0.100 A 
HETATM    2  C   UNK N   1      34.666  11.292  12.415  0.00  0.00     0.182 A 
HETATM    3  C   UNK N   1      35.126  14.807  11.475  0.00  0.00     0.011 A 
HETATM    4  C   UNK N   1      35.125  13.557  12.045  0.00  0.00     0.073 A 
HETATM    5  C   UNK N   1      35.924  13.603  13.135  0.00  0.00     0.103 A 
HETATM    6  C   UNK N   1      36.104  12.464  13.910  0.00  0.00     0.129 A 
HETATM    7  N   UNK N   1      36.450  14.833  13.298  0.00  0.00    -0.360 N 
HETATM    8  N   UNK N   1      34.488  12.422  11.665  0.00  0.00    -0.350 N 
ATOM      9  HN  UNK N   1      33.889  12.411  10.839  1.00  0.00     0.166 HD
HETATM   10  N   UNK N   1      35.466  11.318  13.529  0.00  0.00    -0.337 N 
HETATM   11  H   UNK N   1      37.059  15.126  14.014  0.00  0.00     0.165 HD
HETATM   12  H   UNK N   1      35.582  10.499  14.062  0.00  0.00     0.168 HD
ENDROOT
BRANCH   3  13
HETATM   13  C   UNK N   1      34.371  15.266  10.254  0.00  0.00     0.145 C 
HETATM   14  C   UNK N   1      34.995  14.734   8.960  0.00  0.00     0.175 C 
HETATM   15  C   UNK N   1      34.533  15.778   7.977  0.00  0.00     0.173 C 
HETATM   16  C   UNK N   1      34.865  17.020   8.789  0.00  0.00     0.132 C 
HETATM   17  N   UNK N   1      34.369  16.737  10.139  0.00  0.00    -0.402 N 
HETATM   18  H   UNK N   1      34.084  17.413  10.847  0.00  0.00     0.154 HD
BRANCH  14  19
HETATM   19  O   UNK N   1      34.556  13.448   8.635  0.00  0.00    -0.391 OA
HETATM   20  H   UNK N   1      34.925  12.590   8.897  0.00  0.00     0.210 HD
ENDBRANCH  14  19
BRANCH  15  21
HETATM   21  O   UNK N   1      35.225  15.722   6.766  0.00  0.00    -0.391 OA
HETATM   22  H   UNK N   1      36.149  15.844   6.497  0.00  0.00     0.210 HD
ENDBRANCH  15  21
BRANCH  16  23
HETATM   23  C   UNK N   1      34.290  18.315   8.225  0.00  0.00     0.191 C 
BRANCH  23  24
HETATM   24  O   UNK N   1      35.157  19.387   8.439  0.00  0.00    -0.399 OA
HETATM   25  H   UNK N   1      35.814  20.071   8.239  0.00  0.00     0.209 HD
ENDBRANCH  23  24
ENDBRANCH  16  23
ENDBRANCH   3  13
BRANCH   6  26
HETATM   26  N   UNK N   1      36.847  12.480  14.951  0.00  0.00    -0.384 N 
HETATM   27  H   UNK N   1      37.223  13.327  15.280  0.00  0.00     0.157 HD
ATOM     28  HN  UNK N   1      37.050  11.610  15.442  1.00  0.00     0.157 HD
ENDBRANCH   6  26
TORSDOF 6
ENDMDL
MODEL 4
REMARK VINA RESULT:      -5.8      3.008      6.007
REMARK  6 active torsions:
REMARK  status: ('A' for Active; 'I' for Inactive)
REMARK    1  A    between atoms: C_5  and  C_2 
REMARK    2  A    between atoms: O_19  and  C_2 
REMARK    3  A    between atoms: C_7  and  C_4 
REMARK    4  A    between atoms: C_9  and  O_20 
REMARK    5  A    between atoms: C_10  and  O_21 
REMARK    6  A    between atoms: N_12  and  C_11 
ROOT
HETATM    1  C   UNK N   1      34.391  13.132   9.910  0.00  0.00     0.100 A 
HETATM    2  C   UNK N   1      36.400  14.704  13.602  0.00  0.00     0.182 A 
HETATM    3  C   UNK N   1      35.097  14.302  10.198  0.00  0.00     0.011 A 
HETATM    4  C   UNK N   1      35.473  14.194  11.515  0.00  0.00     0.073 A 
HETATM    5  C   UNK N   1      35.017  13.007  11.975  0.00  0.00     0.103 A 
HETATM    6  C   UNK N   1      35.260  12.635  13.291  0.00  0.00     0.129 A 
HETATM    7  N   UNK N   1      34.354  12.336  11.012  0.00  0.00    -0.360 N 
HETATM    8  N   UNK N   1      36.163  15.056  12.302  0.00  0.00    -0.350 N 
ATOM      9  HN  UNK N   1      36.497  15.946  11.933  1.00  0.00     0.166 HD
HETATM   10  N   UNK N   1      35.953  13.501  14.088  0.00  0.00    -0.337 N 
HETATM   11  H   UNK N   1      33.930  11.452  11.091  0.00  0.00     0.165 HD
HETATM   12  H   UNK N   1      36.133  13.259  15.025  0.00  0.00     0.168 HD
ENDROOT
BRANCH   3  13
HETATM   13  C   UNK N   1      35.387  15.433   9.244  0.00  0.00     0.145 C 
HETATM   14  C   UNK N   1      34.730  16.743   9.691  0.00  0.00     0.175 C 
HETATM   15  C   UNK N   1      34.603  17.455   8.369  0.00  0.00     0.173 C 
HETATM   16  C   UNK N   1      34.043  16.307   7.543  0.00  0.00     0.132 C 
HETATM   17  N   UNK N   1      34.869  15.148   7.893  0.00  0.00    -0.402 N 
HETATM   18  H   UNK N   1      35.046  14.321   7.323  0.00  0.00     0.154 HD
BRANCH  14  19
HETATM   19  O   UNK N   1      35.503  17.449  10.617  0.00  0.00    -0.391 OA
HETATM   20  H   UNK N   1      36.097  18.201  10.472  0.00  0.00     0.210 HD
ENDBRANCH  14  19
BRANCH  15  21
HETATM   21  O   UNK N   1      33.740  18.551   8.429  0.00  0.00    -0.391 OA
HETATM   22  H   UNK N   1      32.806  18.678   8.660  0.00  0.00     0.210 HD
ENDBRANCH  15  21
BRANCH  16  23
HETATM   23  C   UNK N   1      34.020  16.565   6.040  0.00  0.00     0.191 C 
BRANCH  23  24
HETATM   24  O   UNK N   1      34.085  17.930   5.762  0.00  0.00    -0.399 OA
HETATM   25  H   UNK N   1      34.478  18.805   5.617  0.00  0.00     0.209 HD
ENDBRANCH  23  24
ENDBRANCH  16  23
ENDBRANCH   3  13
BRANCH   6  26
HETATM   26  N   UNK N   1      34.848  11.515  13.752  0.00  0.00    -0.384 N 
HETATM   27  H   UNK N   1      34.272  11.488  14.549  0.00  0.00     0.157 HD
ATOM     28  HN  UNK N   1      35.116  10.648  13.289  1.00  0.00     0.157 HD
ENDBRANCH   6  26
TORSDOF 6
ENDMDL
MODEL 5
REMARK VINA RESULT:      -5.8      3.155      4.323
REMARK  6 active torsions:
REMARK  status: ('A' for Active; 'I' for Inactive)
REMARK    1  A    between atoms: C_5  and  C_2 
REMARK    2  A    between atoms: O_19  and  C_2 
REMARK    3  A    between atoms: C_7  and  C_4 
REMARK    4  A    between atoms: C_9  and  O_20 
REMARK    5  A    between atoms: C_10  and  O_21 
REMARK    6  A    between atoms: N_12  and  C_11 
ROOT
HETATM    1  C   UNK N   1      35.373  16.515  11.276  0.00  0.00     0.100 A 
HETATM    2  C   UNK N   1      34.817  14.404   7.355  0.00  0.00     0.182 A 
HETATM    3  C   UNK N   1      35.547  15.193  10.861  0.00  0.00     0.011 A 
HETATM    4  C   UNK N   1      35.218  15.177   9.527  0.00  0.00     0.073 A 
HETATM    5  C   UNK N   1      34.877  16.436   9.174  0.00  0.00     0.103 A 
HETATM    6  C   UNK N   1      34.497  16.709   7.865  0.00  0.00     0.129 A 
HETATM    7  N   UNK N   1      34.965  17.275  10.224  0.00  0.00    -0.360 N 
HETATM    8  N   UNK N   1      35.197  14.148   8.643  0.00  0.00    -0.350 N 
ATOM      9  HN  UNK N   1      35.460  13.206   8.933  1.00  0.00     0.166 HD
HETATM   10  N   UNK N   1      34.473  15.676   6.973  0.00  0.00    -0.337 N 
HETATM   11  H   UNK N   1      34.774  18.241  10.229  0.00  0.00     0.165 HD
HETATM   12  H   UNK N   1      34.205  15.847   6.041  0.00  0.00     0.168 HD
ENDROOT
BRANCH   3  13
HETATM   13  C   UNK N   1      36.014  14.040  11.712  0.00  0.00     0.145 C 
HETATM   14  C   UNK N   1      34.852  13.138  12.143  0.00  0.00     0.175 C 
HETATM   15  C   UNK N   1      35.419  12.539  13.404  0.00  0.00     0.173 C 
HETATM   16  C   UNK N   1      35.963  13.809  14.038  0.00  0.00     0.132 C 
HETATM   17  N   UNK N   1      36.658  14.508  12.954  0.00  0.00    -0.402 N 
HETATM   18  H   UNK N   1      37.424  15.177  13.040  0.00  0.00     0.154 HD
BRANCH  14  19
HETATM   19  O   UNK N   1      34.527  12.177  11.182  0.00  0.00    -0.391 OA
HETATM   20  H   UNK N   1      33.718  12.090  10.653  0.00  0.00     0.210 HD
ENDBRANCH  14  19
BRANCH  15  21
HETATM   21  O   UNK N   1      34.445  11.916  14.188  0.00  0.00    -0.391 OA
HETATM   22  H   UNK N   1      34.300  11.803  15.141  0.00  0.00     0.210 HD
ENDBRANCH  15  21
BRANCH  16  23
HETATM   23  C   UNK N   1      36.866  13.575  15.244  0.00  0.00     0.191 C 
BRANCH  23  24
HETATM   24  O   UNK N   1      37.625  14.710  15.533  0.00  0.00    -0.399 OA
HETATM   25  H   UNK N   1      37.944  15.483  16.024  0.00  0.00     0.209 HD
ENDBRANCH  23  24
ENDBRANCH  16  23
ENDBRANCH   3  13
BRANCH   6  26
HETATM   26  N   UNK N   1      34.177  17.892   7.500  0.00  0.00    -0.384 N 
HETATM   27  H   UNK N   1      33.692  18.037   6.656  0.00  0.00     0.157 HD
ATOM     28  HN  UNK N   1      34.423  18.688   8.088  1.00  0.00     0.157 HD
ENDBRANCH   6  26
TORSDOF 6
ENDMDL
MODEL 6
REMARK VINA RESULT:      -5.8     13.323     14.970
REMARK  6 active torsions:
REMARK  status: ('A' for Active; 'I' for Inactive)
REMARK    1  A    between atoms: C_5  and  C_2 
REMARK    2  A    between atoms: O_19  and  C_2 
REMARK    3  A    between atoms: C_7  and  C_4 
REMARK    4  A    between atoms: C_9  and  O_20 
REMARK    5  A    between atoms: C_10  and  O_21 
REMARK    6  A    between atoms: N_12  and  C_11 
ROOT
HETATM    1  C   UNK N   1      43.912  18.544   2.810  0.00  0.00     0.100 A 
HETATM    2  C   UNK N   1      48.235  18.582   4.012  0.00  0.00     0.182 A 
HETATM    3  C   UNK N   1      44.889  19.540   2.856  0.00  0.00     0.011 A 
HETATM    4  C   UNK N   1      46.029  18.920   3.308  0.00  0.00     0.073 A 
HETATM    5  C   UNK N   1      45.735  17.615   3.506  0.00  0.00     0.103 A 
HETATM    6  C   UNK N   1      46.717  16.747   3.966  0.00  0.00     0.129 A 
HETATM    7  N   UNK N   1      44.447  17.358   3.207  0.00  0.00    -0.360 N 
HETATM    8  N   UNK N   1      47.263  19.427   3.551  0.00  0.00    -0.350 N 
ATOM      9  HN  UNK N   1      47.462  20.414   3.392  1.00  0.00     0.166 HD
HETATM   10  N   UNK N   1      47.961  17.253   4.213  0.00  0.00    -0.337 N 
HETATM   11  H   UNK N   1      43.987  16.490   3.264  0.00  0.00     0.165 HD
HETATM   12  H   UNK N   1      48.671  16.656   4.542  0.00  0.00     0.168 HD
ENDROOT
BRANCH   3  13
HETATM   13  C   UNK N   1      44.714  20.987   2.473  0.00  0.00     0.145 C 
HETATM   14  C   UNK N   1      44.631  21.900   3.701  0.00  0.00     0.175 C 
HETATM   15  C   UNK N   1      43.850  23.057   3.135  0.00  0.00     0.173 C 
HETATM   16  C   UNK N   1      42.762  22.272   2.420  0.00  0.00     0.132 C 
HETATM   17  N   UNK N   1      43.468  21.200   1.713  0.00  0.00    -0.402 N 
HETATM   18  H   UNK N   1      43.162  20.706   0.875  0.00  0.00     0.154 HD
BRANCH  14  19
HETATM   19  O   UNK N   1      45.887  22.275   4.184  0.00  0.00    -0.391 OA
HETATM   20  H   UNK N   1      46.767  22.046   3.845  0.00  0.00     0.210 HD
ENDBRANCH  14  19
BRANCH  15  21
HETATM   21  O   UNK N   1      43.345  23.902   4.126  0.00  0.00    -0.391 OA
HETATM   22  H   UNK N   1      42.862  23.773   4.957  0.00  0.00     0.210 HD
ENDBRANCH  15  21
BRANCH  16  23
HETATM   23  C   UNK N   1      41.895  23.106   1.482  0.00  0.00     0.191 C 
BRANCH  23  24
HETATM   24  O   UNK N   1      41.266  24.145   2.168  0.00  0.00    -0.399 OA
HETATM   25  H   UNK N   1      40.965  24.680   2.918  0.00  0.00     0.209 HD
ENDBRANCH  23  24
ENDBRANCH  16  23
ENDBRANCH   3  13
BRANCH   6  26
HETATM   26  N   UNK N   1      46.470  15.506   4.155  0.00  0.00    -0.384 N 
HETATM   27  H   UNK N   1      46.908  14.822   3.600  0.00  0.00     0.157 HD
ATOM     28  HN  UNK N   1      45.818  15.225   4.887  1.00  0.00     0.157 HD
ENDBRANCH   6  26
TORSDOF 6
ENDMDL
MODEL 7
REMARK VINA RESULT:      -5.7      2.239      3.085
REMARK  6 active torsions:
REMARK  status: ('A' for Active; 'I' for Inactive)
REMARK    1  A    between atoms: C_5  and  C_2 
REMARK    2  A    between atoms: O_19  and  C_2 
REMARK    3  A    between atoms: C_7  and  C_4 
REMARK    4  A    between atoms: C_9  and  O_20 
REMARK    5  A    between atoms: C_10  and  O_21 
REMARK    6  A    between atoms: N_12  and  C_11 
ROOT
HETATM    1  C   UNK N   1      31.366  16.986   8.285  0.00  0.00     0.100 A 
HETATM    2  C   UNK N   1      32.190  17.562   3.911  0.00  0.00     0.182 A 
HETATM    3  C   UNK N   1      32.537  17.078   7.530  0.00  0.00     0.011 A 
HETATM    4  C   UNK N   1      32.127  17.262   6.232  0.00  0.00     0.073 A 
HETATM    5  C   UNK N   1      30.776  17.289   6.228  0.00  0.00     0.103 A 
HETATM    6  C   UNK N   1      30.090  17.466   5.033  0.00  0.00     0.129 A 
HETATM    7  N   UNK N   1      30.285  17.124   7.472  0.00  0.00    -0.360 N 
HETATM    8  N   UNK N   1      32.855  17.396   5.095  0.00  0.00    -0.350 N 
ATOM      9  HN  UNK N   1      33.874  17.374   5.122  1.00  0.00     0.166 HD
HETATM   10  N   UNK N   1      30.819  17.599   3.886  0.00  0.00    -0.337 N 
HETATM   11  H   UNK N   1      29.337  17.108   7.738  0.00  0.00     0.165 HD
HETATM   12  H   UNK N   1      30.353  17.723   3.027  0.00  0.00     0.168 HD
ENDROOT
BRANCH   3  13
HETATM   13  C   UNK N   1      33.949  17.002   8.052  0.00  0.00     0.145 C 
HETATM   14  C   UNK N   1      34.635  15.689   7.660  0.00  0.00     0.175 C 
HETATM   15  C   UNK N   1      35.660  15.573   8.759  0.00  0.00     0.173 C 
HETATM   16  C   UNK N   1      34.764  15.897   9.944  0.00  0.00     0.132 C 
HETATM   17  N   UNK N   1      33.987  17.067   9.525  0.00  0.00    -0.402 N 
HETATM   18  H   UNK N   1      33.563  17.774  10.125  0.00  0.00     0.154 HD
BRANCH  14  19
HETATM   19  O   UNK N   1      35.206  15.735   6.386  0.00  0.00    -0.391 OA
HETATM   20  H   UNK N   1      34.770  15.782   5.520  0.00  0.00     0.210 HD
ENDBRANCH  14  19
BRANCH  15  21
HETATM   21  O   UNK N   1      36.221  14.296   8.838  0.00  0.00    -0.391 OA
HETATM   22  H   UNK N   1      36.108  13.465   8.352  0.00  0.00     0.210 HD
ENDBRANCH  15  21
BRANCH  16  23
HETATM   23  C   UNK N   1      35.510  16.140  11.251  0.00  0.00     0.191 C 
BRANCH  23  24
HETATM   24  O   UNK N   1      36.891  16.098  11.058  0.00  0.00    -0.399 OA
HETATM   25  H   UNK N   1      37.830  15.972  11.268  0.00  0.00     0.209 HD
ENDBRANCH  23  24
ENDBRANCH  16  23
ENDBRANCH   3  13
BRANCH   6  26
HETATM   26  N   UNK N   1      28.812  17.502   5.000  0.00  0.00    -0.384 N 
HETATM   27  H   UNK N   1      28.288  17.313   5.811  0.00  0.00     0.157 HD
ATOM     28  HN  UNK N   1      28.334  17.731   4.129  1.00  0.00     0.157 HD
ENDBRANCH   6  26
TORSDOF 6
ENDMDL
MODEL 8
REMARK VINA RESULT:      -5.7      8.863     11.704
REMARK  6 active torsions:
REMARK  status: ('A' for Active; 'I' for Inactive)
REMARK    1  A    between atoms: C_5  and  C_2 
REMARK    2  A    between atoms: O_19  and  C_2 
REMARK    3  A    between atoms: C_7  and  C_4 
REMARK    4  A    between atoms: C_9  and  O_20 
REMARK    5  A    between atoms: C_10  and  O_21 
REMARK    6  A    between atoms: N_12  and  C_11 
ROOT
HETATM    1  C   UNK N   1      23.178  17.763   4.665  0.00  0.00     0.100 A 
HETATM    2  C   UNK N   1      20.999  20.506   1.861  0.00  0.00     0.182 A 
HETATM    3  C   UNK N   1      23.441  19.042   4.172  0.00  0.00     0.011 A 
HETATM    4  C   UNK N   1      22.383  19.348   3.351  0.00  0.00     0.073 A 
HETATM    5  C   UNK N   1      21.531  18.298   3.372  0.00  0.00     0.103 A 
HETATM    6  C   UNK N   1      20.362  18.341   2.622  0.00  0.00     0.129 A 
HETATM    7  N   UNK N   1      21.992  17.316   4.170  0.00  0.00    -0.360 N 
HETATM    8  N   UNK N   1      22.143  20.458   2.609  0.00  0.00    -0.350 N 
ATOM      9  HN  UNK N   1      22.799  21.238   2.610  1.00  0.00     0.166 HD
HETATM   10  N   UNK N   1      20.117  19.455   1.872  0.00  0.00    -0.337 N 
HETATM   11  H   UNK N   1      21.560  16.451   4.356  0.00  0.00     0.165 HD
HETATM   12  H   UNK N   1      19.296  19.505   1.331  0.00  0.00     0.168 HD
ENDROOT
BRANCH   3  13
HETATM   13  C   UNK N   1      24.637  19.900   4.496  0.00  0.00     0.145 C 
HETATM   14  C   UNK N   1      25.722  19.802   3.418  0.00  0.00     0.175 C 
HETATM   15  C   UNK N   1      26.946  20.156   4.221  0.00  0.00     0.173 C 
HETATM   16  C   UNK N   1      26.686  19.277   5.435  0.00  0.00     0.132 C 
HETATM   17  N   UNK N   1      25.273  19.488   5.762  0.00  0.00    -0.402 N 
HETATM   18  H   UNK N   1      24.825  19.373   6.671  0.00  0.00     0.154 HD
BRANCH  14  19
HETATM   19  O   UNK N   1      25.503  20.673   2.348  0.00  0.00    -0.391 OA
HETATM   20  H   UNK N   1      25.230  20.471   1.439  0.00  0.00     0.210 HD
ENDBRANCH  14  19
BRANCH  15  21
HETATM   21  O   UNK N   1      28.134  19.832   3.563  0.00  0.00    -0.391 OA
HETATM   22  H   UNK N   1      28.360  19.455   2.699  0.00  0.00     0.210 HD
ENDBRANCH  15  21
BRANCH  16  23
HETATM   23  C   UNK N   1      27.599  19.557   6.624  0.00  0.00     0.191 C 
BRANCH  23  24
HETATM   24  O   UNK N   1      26.865  19.963   7.738  0.00  0.00    -0.399 OA
HETATM   25  H   UNK N   1      26.157  20.385   8.249  0.00  0.00     0.209 HD
ENDBRANCH  23  24
ENDBRANCH  16  23
ENDBRANCH   3  13
BRANCH   6  26
HETATM   26  N   UNK N   1      19.534  17.366   2.628  0.00  0.00    -0.384 N 
HETATM   27  H   UNK N   1      18.967  17.191   1.843  0.00  0.00     0.157 HD
ATOM     28  HN  UNK N   1      19.463  16.766   3.449  1.00  0.00     0.157 HD
ENDBRANCH   6  26
TORSDOF 6
ENDMDL
MODEL 9
REMARK VINA RESULT:      -5.6      4.829      7.222
REMARK  6 active torsions:
REMARK  status: ('A' for Active; 'I' for Inactive)
REMARK    1  A    between atoms: C_5  and  C_2 
REMARK    2  A    between atoms: O_19  and  C_2 
REMARK    3  A    between atoms: C_7  and  C_4 
REMARK    4  A    between atoms: C_9  and  O_20 
REMARK    5  A    between atoms: C_10  and  O_21 
REMARK    6  A    between atoms: N_12  and  C_11 
ROOT
HETATM    1  C   UNK N   1      28.505  19.357   4.871  0.00  0.00     0.100 A 
HETATM    2  C   UNK N   1      24.166  18.212   4.857  0.00  0.00     0.182 A 
HETATM    3  C   UNK N   1      27.727  18.522   5.676  0.00  0.00     0.011 A 
HETATM    4  C   UNK N   1      26.458  18.580   5.153  0.00  0.00     0.073 A 
HETATM    5  C   UNK N   1      26.493  19.405   4.082  0.00  0.00     0.103 A 
HETATM    6  C   UNK N   1      25.334  19.646   3.356  0.00  0.00     0.129 A 
HETATM    7  N   UNK N   1      27.734  19.891   3.886  0.00  0.00    -0.360 N 
HETATM    8  N   UNK N   1      25.315  17.974   5.560  0.00  0.00    -0.350 N 
ATOM      9  HN  UNK N   1      25.313  17.355   6.371  1.00  0.00     0.166 HD
HETATM   10  N   UNK N   1      24.180  19.039   3.763  0.00  0.00    -0.337 N 
HETATM   11  H   UNK N   1      28.024  20.508   3.176  0.00  0.00     0.165 HD
HETATM   12  H   UNK N   1      23.347  19.198   3.264  0.00  0.00     0.168 HD
ENDROOT
BRANCH   3  13
HETATM   13  C   UNK N   1      28.203  17.720   6.860  0.00  0.00     0.145 C 
HETATM   14  C   UNK N   1      28.511  18.609   8.069  0.00  0.00     0.175 C 
HETATM   15  C   UNK N   1      29.511  17.750   8.798  0.00  0.00     0.173 C 
HETATM   16  C   UNK N   1      30.386  17.362   7.616  0.00  0.00     0.132 C 
HETATM   17  N   UNK N   1      29.447  16.989   6.555  0.00  0.00    -0.402 N 
HETATM   18  H   UNK N   1      29.618  16.358   5.772  0.00  0.00     0.154 HD
BRANCH  14  19
HETATM   19  O   UNK N   1      27.378  18.895   8.835  0.00  0.00    -0.391 OA
HETATM   20  H   UNK N   1      27.304  19.025   9.794  0.00  0.00     0.210 HD
ENDBRANCH  14  19
BRANCH  15  21
HETATM   21  O   UNK N   1      30.211  18.455   9.781  0.00  0.00    -0.391 OA
HETATM   22  H   UNK N   1      30.119  19.325  10.198  0.00  0.00     0.210 HD
ENDBRANCH  15  21
BRANCH  16  23
HETATM   23  C   UNK N   1      31.390  16.253   7.912  0.00  0.00     0.191 C 
BRANCH  23  24
HETATM   24  O   UNK N   1      31.695  16.200   9.272  0.00  0.00    -0.399 OA
HETATM   25  H   UNK N   1      31.551  16.128  10.229  0.00  0.00     0.209 HD
ENDBRANCH  23  24
ENDBRANCH  16  23
ENDBRANCH   3  13
BRANCH   6  26
HETATM   26  N   UNK N   1      25.338  20.415   2.334  0.00  0.00    -0.384 N 
HETATM   27  H   UNK N   1      25.256  20.039   1.428  0.00  0.00     0.157 HD
ATOM     28  HN  UNK N   1      25.427  21.423   2.458  1.00  0.00     0.157 HD
ENDBRANCH   6  26
TORSDOF 6
ENDMDL
