MODEL 1
REMARK VINA RESULT:      -7.9      0.000      0.000
REMARK  5 active torsions:
REMARK  status: ('A' for Active; 'I' for Inactive)
REMARK    1  A    between atoms: C_5  and  O_7 
REMARK    2  A    between atoms: C_11  and  O_27 
REMARK    3  A    between atoms: C_12  and  O_26 
REMARK    4  A    between atoms: C_18  and  O_25 
REMARK    5  A    between atoms: C_19  and  C_22 
REMARK       I    between atoms: C_22  and  N_24 
ROOT
HETATM    1  C   UNK N   1      28.195  18.667   5.293  0.00  0.00     0.003 A 
HETATM    2  C   UNK N   1      29.371  17.938   5.131  0.00  0.00     0.008 A 
HETATM    3  C   UNK N   1      30.047  17.434   6.245  0.00  0.00    -0.041 A 
HETATM    4  C   UNK N   1      29.541  17.659   7.550  0.00  0.00     0.054 A 
HETATM    5  C   UNK N   1      28.340  18.390   7.699  0.00  0.00     0.080 A 
HETATM    6  C   UNK N   1      27.680  18.889   6.570  0.00  0.00     0.037 A 
HETATM    7  C   UNK N   1      30.278  17.087   8.722  0.00  0.00     0.194 C 
HETATM    8  O   UNK N   1      29.778  17.098   9.837  0.00  0.00    -0.287 OA
HETATM    9  C   UNK N   1      31.609  16.451   8.481  0.00  0.00     0.030 C 
HETATM   10  C   UNK N   1      32.195  15.605   9.376  0.00  0.00     0.096 C 
HETATM   11  C   UNK N   1      33.503  14.893   9.035  0.00  0.00     0.175 C 
HETATM   12  C   UNK N   1      34.353  15.724   8.072  0.00  0.00     0.042 C 
HETATM   13  C   UNK N   1      33.543  16.032   6.829  0.00  0.00     0.018 C 
HETATM   14  C   UNK N   1      32.268  16.796   7.156  0.00  0.00     0.030 C 
HETATM   15  C   UNK N   1      31.281  16.611   6.020  0.00  0.00     0.049 C 
HETATM   16  C   UNK N   1      35.595  14.942   7.625  0.00  0.00     0.074 C 
HETATM   17  C   UNK N   1      36.284  14.136   8.705  0.00  0.00     0.063 C 
HETATM   18  C   UNK N   1      35.738  13.960   9.941  0.00  0.00     0.110 C 
HETATM   19  C   UNK N   1      34.388  14.549  10.216  0.00  0.00     0.208 C 
HETATM   20  O   UNK N   1      34.002  14.714  11.363  0.00  0.00    -0.288 OA
ENDROOT
BRANCH  18  21
HETATM   21  C   UNK N   1      36.455  13.185  11.011  0.00  0.00     0.255 C 
HETATM   22  O   UNK N   1      36.594  11.974  10.917  0.00  0.00    -0.268 OA
HETATM   23  N   UNK N   1      36.924  13.806  12.111  0.00  0.00    -0.366 N 
HETATM   24  H   UNK N   1      36.752  14.765  12.251  0.00  0.00     0.159 HD
HETATM   25  H   UNK N   1      37.439  13.298  12.777  0.00  0.00     0.159 HD
ENDBRANCH  18  21
BRANCH  17  26
HETATM   26  O   UNK N   1      37.483  13.598   8.399  0.00  0.00    -0.364 OA
HETATM   27  H   UNK N   1      38.247  13.856   8.874  0.00  0.00     0.217 HD
ENDBRANCH  17  26
BRANCH  11  28
HETATM   28  O   UNK N   1      33.158  13.689   8.409  0.00  0.00    -0.374 OA
HETATM   29  H   UNK N   1      32.822  12.796   8.232  0.00  0.00     0.211 HD
ENDBRANCH  11  28
BRANCH  10  30
HETATM   30  O   UNK N   1      31.562  15.303  10.530  0.00  0.00    -0.361 OA
HETATM   31  H   UNK N   1      30.666  15.540  10.670  0.00  0.00     0.217 HD
ENDBRANCH  10  30
BRANCH   5  32
HETATM   32  O   UNK N   1      27.814  18.623   8.914  0.00  0.00    -0.360 OA
HETATM   33  H   UNK N   1      28.282  18.401   9.695  0.00  0.00     0.217 HD
ENDBRANCH   5  32
TORSDOF 5
ENDMDL
MODEL 2
REMARK VINA RESULT:      -7.8      3.842      8.612
REMARK  5 active torsions:
REMARK  status: ('A' for Active; 'I' for Inactive)
REMARK    1  A    between atoms: C_5  and  O_7 
REMARK    2  A    between atoms: C_11  and  O_27 
REMARK    3  A    between atoms: C_12  and  O_26 
REMARK    4  A    between atoms: C_18  and  O_25 
REMARK    5  A    between atoms: C_19  and  C_22 
REMARK       I    between atoms: C_22  and  N_24 
ROOT
HETATM    1  C   UNK N   1      36.103  10.507  16.872  0.00  0.00     0.003 A 
HETATM    2  C   UNK N   1      35.963  11.796  16.364  0.00  0.00     0.008 A 
HETATM    3  C   UNK N   1      35.684  11.994  15.010  0.00  0.00    -0.041 A 
HETATM    4  C   UNK N   1      35.540  10.884  14.140  0.00  0.00     0.054 A 
HETATM    5  C   UNK N   1      35.673   9.580  14.671  0.00  0.00     0.080 A 
HETATM    6  C   UNK N   1      35.955   9.405  16.031  0.00  0.00     0.037 A 
HETATM    7  C   UNK N   1      35.221  11.130  12.698  0.00  0.00     0.194 C 
HETATM    8  O   UNK N   1      34.906  10.205  11.964  0.00  0.00    -0.287 OA
HETATM    9  C   UNK N   1      35.238  12.538  12.197  0.00  0.00     0.030 C 
HETATM   10  C   UNK N   1      34.636  12.915  11.033  0.00  0.00     0.096 C 
HETATM   11  C   UNK N   1      34.585  14.386  10.621  0.00  0.00     0.175 C 
HETATM   12  C   UNK N   1      35.791  15.155  11.163  0.00  0.00     0.042 C 
HETATM   13  C   UNK N   1      35.849  14.998  12.668  0.00  0.00     0.018 C 
HETATM   14  C   UNK N   1      35.962  13.538  13.083  0.00  0.00     0.030 C 
HETATM   15  C   UNK N   1      35.491  13.398  14.518  0.00  0.00     0.049 C 
HETATM   16  C   UNK N   1      35.660  16.655  10.865  0.00  0.00     0.074 C 
HETATM   17  C   UNK N   1      35.119  17.005   9.496  0.00  0.00     0.063 C 
HETATM   18  C   UNK N   1      34.603  16.065   8.655  0.00  0.00     0.110 C 
HETATM   19  C   UNK N   1      34.533  14.645   9.129  0.00  0.00     0.208 C 
HETATM   20  O   UNK N   1      34.401  13.729   8.334  0.00  0.00    -0.288 OA
ENDROOT
BRANCH  18  21
HETATM   21  C   UNK N   1      34.103  16.429   7.286  0.00  0.00     0.255 C 
HETATM   22  O   UNK N   1      34.635  17.325   6.645  0.00  0.00    -0.268 OA
HETATM   23  N   UNK N   1      33.035  15.802   6.756  0.00  0.00    -0.366 N 
HETATM   24  H   UNK N   1      32.538  15.136   7.283  0.00  0.00     0.159 HD
HETATM   25  H   UNK N   1      32.751  16.010   5.837  0.00  0.00     0.159 HD
ENDBRANCH  18  21
BRANCH  17  26
HETATM   26  O   UNK N   1      35.174  18.302   9.128  0.00  0.00    -0.364 OA
HETATM   27  H   UNK N   1      34.862  18.562   8.284  0.00  0.00     0.217 HD
ENDBRANCH  17  26
BRANCH  11  28
HETATM   28  O   UNK N   1      33.418  14.922  11.178  0.00  0.00    -0.374 OA
HETATM   29  H   UNK N   1      32.748  15.533  11.524  0.00  0.00     0.211 HD
ENDBRANCH  11  28
BRANCH  10  30
HETATM   30  O   UNK N   1      33.979  11.999  10.289  0.00  0.00    -0.361 OA
HETATM   31  H   UNK N   1      34.288  11.748   9.441  0.00  0.00     0.217 HD
ENDBRANCH  10  30
BRANCH   5  32
HETATM   32  O   UNK N   1      35.537   8.495  13.891  0.00  0.00    -0.360 OA
HETATM   33  H   UNK N   1      34.957   8.497  13.155  0.00  0.00     0.217 HD
ENDBRANCH   5  32
TORSDOF 5
ENDMDL
MODEL 3
REMARK VINA RESULT:      -7.8      6.055     10.934
REMARK  5 active torsions:
REMARK  status: ('A' for Active; 'I' for Inactive)
REMARK    1  A    between atoms: C_5  and  O_7 
REMARK    2  A    between atoms: C_11  and  O_27 
REMARK    3  A    between atoms: C_12  and  O_26 
REMARK    4  A    between atoms: C_18  and  O_25 
REMARK    5  A    between atoms: C_19  and  C_22 
REMARK       I    between atoms: C_22  and  N_24 
ROOT
HETATM    1  C   UNK N   1      31.891  16.272   5.431  0.00  0.00     0.003 A 
HETATM    2  C   UNK N   1      31.070  17.377   5.217  0.00  0.00     0.008 A 
HETATM    3  C   UNK N   1      29.694  17.209   5.041  0.00  0.00    -0.041 A 
HETATM    4  C   UNK N   1      29.122  15.913   5.080  0.00  0.00     0.054 A 
HETATM    5  C   UNK N   1      29.965  14.802   5.310  0.00  0.00     0.080 A 
HETATM    6  C   UNK N   1      31.342  14.992   5.481  0.00  0.00     0.037 A 
HETATM    7  C   UNK N   1      27.641  15.770   4.908  0.00  0.00     0.194 C 
HETATM    8  O   UNK N   1      27.090  14.700   5.122  0.00  0.00    -0.287 OA
HETATM    9  C   UNK N   1      26.849  16.980   4.530  0.00  0.00     0.030 C 
HETATM   10  C   UNK N   1      25.497  17.057   4.690  0.00  0.00     0.096 C 
HETATM   11  C   UNK N   1      24.750  18.356   4.394  0.00  0.00     0.175 C 
HETATM   12  C   UNK N   1      25.456  19.167   3.307  0.00  0.00     0.042 C 
HETATM   13  C   UNK N   1      26.887  19.430   3.730  0.00  0.00     0.018 C 
HETATM   14  C   UNK N   1      27.656  18.138   3.967  0.00  0.00     0.030 C 
HETATM   15  C   UNK N   1      28.843  18.431   4.864  0.00  0.00     0.049 C 
HETATM   16  C   UNK N   1      24.779  20.531   3.116  0.00  0.00     0.074 C 
HETATM   17  C   UNK N   1      23.267  20.522   3.160  0.00  0.00     0.063 C 
HETATM   18  C   UNK N   1      22.556  19.420   3.532  0.00  0.00     0.110 C 
HETATM   19  C   UNK N   1      23.308  18.195   3.954  0.00  0.00     0.208 C 
HETATM   20  O   UNK N   1      22.760  17.104   3.975  0.00  0.00    -0.288 OA
ENDROOT
BRANCH  18  21
HETATM   21  C   UNK N   1      21.053  19.422   3.535  0.00  0.00     0.255 C 
HETATM   22  O   UNK N   1      20.431  20.367   3.999  0.00  0.00    -0.268 OA
HETATM   23  N   UNK N   1      20.365  18.365   3.061  0.00  0.00    -0.366 N 
HETATM   24  H   UNK N   1      20.840  17.557   2.759  0.00  0.00     0.159 HD
HETATM   25  H   UNK N   1      19.383  18.400   3.018  0.00  0.00     0.159 HD
ENDBRANCH  18  21
BRANCH  17  26
HETATM   26  O   UNK N   1      22.635  21.660   2.802  0.00  0.00    -0.364 OA
HETATM   27  H   UNK N   1      21.800  21.619   2.382  0.00  0.00     0.217 HD
ENDBRANCH  17  26
BRANCH  11  28
HETATM   28  O   UNK N   1      24.742  19.099   5.580  0.00  0.00    -0.374 OA
HETATM   29  H   UNK N   1      24.999  19.667   6.323  0.00  0.00     0.211 HD
ENDBRANCH  11  28
BRANCH  10  30
HETATM   30  O   UNK N   1      24.823  16.015   5.221  0.00  0.00    -0.361 OA
HETATM   31  H   UNK N   1      23.904  15.903   5.073  0.00  0.00     0.217 HD
ENDBRANCH  10  30
BRANCH   5  32
HETATM   32  O   UNK N   1      29.470  13.554   5.365  0.00  0.00    -0.360 OA
HETATM   33  H   UNK N   1      29.042  13.169   4.626  0.00  0.00     0.217 HD
ENDBRANCH   5  32
TORSDOF 5
ENDMDL
MODEL 4
REMARK VINA RESULT:      -7.8      5.766     10.201
REMARK  5 active torsions:
REMARK  status: ('A' for Active; 'I' for Inactive)
REMARK    1  A    between atoms: C_5  and  O_7 
REMARK    2  A    between atoms: C_11  and  O_27 
REMARK    3  A    between atoms: C_12  and  O_26 
REMARK    4  A    between atoms: C_18  and  O_25 
REMARK    5  A    between atoms: C_19  and  C_22 
REMARK       I    between atoms: C_22  and  N_24 
ROOT
HETATM    1  C   UNK N   1      34.493   9.293  20.184  0.00  0.00     0.003 A 
HETATM    2  C   UNK N   1      34.599   9.063  18.814  0.00  0.00     0.008 A 
HETATM    3  C   UNK N   1      34.867  10.120  17.941  0.00  0.00    -0.041 A 
HETATM    4  C   UNK N   1      35.036  11.435  18.441  0.00  0.00     0.054 A 
HETATM    5  C   UNK N   1      34.938  11.652  19.835  0.00  0.00     0.080 A 
HETATM    6  C   UNK N   1      34.665  10.579  20.692  0.00  0.00     0.037 A 
HETATM    7  C   UNK N   1      35.344  12.542  17.480  0.00  0.00     0.194 C 
HETATM    8  O   UNK N   1      35.680  13.644  17.888  0.00  0.00    -0.287 OA
HETATM    9  C   UNK N   1      35.290  12.247  16.016  0.00  0.00     0.030 C 
HETATM   10  C   UNK N   1      35.879  13.045  15.080  0.00  0.00     0.096 C 
HETATM   11  C   UNK N   1      35.891  12.640  13.607  0.00  0.00     0.175 C 
HETATM   12  C   UNK N   1      34.669  11.792  13.254  0.00  0.00     0.042 C 
HETATM   13  C   UNK N   1      34.620  10.583  14.165  0.00  0.00     0.018 C 
HETATM   14  C   UNK N   1      34.544  10.980  15.632  0.00  0.00     0.030 C 
HETATM   15  C   UNK N   1      35.024   9.817  16.480  0.00  0.00     0.049 C 
HETATM   16  C   UNK N   1      34.761  11.274  11.813  0.00  0.00     0.074 C 
HETATM   17  C   UNK N   1      35.288  12.262  10.795  0.00  0.00     0.063 C 
HETATM   18  C   UNK N   1      35.824  13.462  11.156  0.00  0.00     0.110 C 
HETATM   19  C   UNK N   1      35.932  13.785  12.615  0.00  0.00     0.208 C 
HETATM   20  O   UNK N   1      36.084  14.938  12.988  0.00  0.00    -0.288 OA
ENDROOT
BRANCH  18  21
HETATM   21  C   UNK N   1      36.310  14.443  10.127  0.00  0.00     0.255 C 
HETATM   22  O   UNK N   1      35.590  14.783   9.199  0.00  0.00    -0.268 OA
HETATM   23  N   UNK N   1      37.563  14.938  10.188  0.00  0.00    -0.366 N 
HETATM   24  H   UNK N   1      38.191  14.618  10.875  0.00  0.00     0.159 HD
HETATM   25  H   UNK N   1      37.851  15.620   9.541  0.00  0.00     0.159 HD
ENDBRANCH  18  21
BRANCH  17  26
HETATM   26  O   UNK N   1      35.199  11.911   9.495  0.00  0.00    -0.364 OA
HETATM   27  H   UNK N   1      35.793  11.281   9.138  0.00  0.00     0.217 HD
ENDBRANCH  17  26
BRANCH  11  28
HETATM   28  O   UNK N   1      37.047  11.875  13.406  0.00  0.00    -0.374 OA
HETATM   29  H   UNK N   1      37.738  11.321  13.011  0.00  0.00     0.211 HD
ENDBRANCH  11  28
BRANCH  10  30
HETATM   30  O   UNK N   1      36.555  14.147  15.467  0.00  0.00    -0.361 OA
HETATM   31  H   UNK N   1      36.301  15.002  15.177  0.00  0.00     0.217 HD
ENDBRANCH  10  30
BRANCH   5  32
HETATM   32  O   UNK N   1      35.098  12.878  20.360  0.00  0.00    -0.360 OA
HETATM   33  H   UNK N   1      34.368  13.450  20.490  0.00  0.00     0.217 HD
ENDBRANCH   5  32
TORSDOF 5
ENDMDL
MODEL 5
REMARK VINA RESULT:      -7.5      3.197      3.854
REMARK  5 active torsions:
REMARK  status: ('A' for Active; 'I' for Inactive)
REMARK    1  A    between atoms: C_5  and  O_7 
REMARK    2  A    between atoms: C_11  and  O_27 
REMARK    3  A    between atoms: C_12  and  O_26 
REMARK    4  A    between atoms: C_18  and  O_25 
REMARK    5  A    between atoms: C_19  and  C_22 
REMARK       I    between atoms: C_22  and  N_24 
ROOT
HETATM    1  C   UNK N   1      31.650  15.853   3.159  0.00  0.00     0.003 A 
HETATM    2  C   UNK N   1      31.688  14.940   4.210  0.00  0.00     0.008 A 
HETATM    3  C   UNK N   1      32.378  15.247   5.385  0.00  0.00    -0.041 A 
HETATM    4  C   UNK N   1      33.042  16.491   5.520  0.00  0.00     0.054 A 
HETATM    5  C   UNK N   1      32.985  17.414   4.450  0.00  0.00     0.080 A 
HETATM    6  C   UNK N   1      32.291  17.085   3.279  0.00  0.00     0.037 A 
HETATM    7  C   UNK N   1      33.755  16.798   6.801  0.00  0.00     0.194 C 
HETATM    8  O   UNK N   1      34.175  17.923   7.025  0.00  0.00    -0.287 OA
HETATM    9  C   UNK N   1      33.883  15.712   7.820  0.00  0.00     0.030 C 
HETATM   10  C   UNK N   1      34.181  15.958   9.127  0.00  0.00     0.096 C 
HETATM   11  C   UNK N   1      34.190  14.824  10.152  0.00  0.00     0.175 C 
HETATM   12  C   UNK N   1      34.563  13.491   9.502  0.00  0.00     0.042 C 
HETATM   13  C   UNK N   1      33.606  13.207   8.362  0.00  0.00     0.018 C 
HETATM   14  C   UNK N   1      33.639  14.302   7.306  0.00  0.00     0.030 C 
HETATM   15  C   UNK N   1      32.349  14.254   6.510  0.00  0.00     0.049 C 
HETATM   16  C   UNK N   1      34.431  12.338  10.506  0.00  0.00     0.074 C 
HETATM   17  C   UNK N   1      34.918  12.633  11.908  0.00  0.00     0.063 C 
HETATM   18  C   UNK N   1      35.270  13.888  12.307  0.00  0.00     0.110 C 
HETATM   19  C   UNK N   1      35.125  15.015  11.330  0.00  0.00     0.208 C 
HETATM   20  O   UNK N   1      35.717  16.069  11.501  0.00  0.00    -0.288 OA
ENDROOT
BRANCH  18  21
HETATM   21  C   UNK N   1      35.785  14.154  13.694  0.00  0.00     0.255 C 
HETATM   22  O   UNK N   1      35.214  13.689  14.670  0.00  0.00    -0.268 OA
HETATM   23  N   UNK N   1      36.861  14.941  13.888  0.00  0.00    -0.366 N 
HETATM   24  H   UNK N   1      37.288  15.395  13.126  0.00  0.00     0.159 HD
HETATM   25  H   UNK N   1      37.221  15.062  14.795  0.00  0.00     0.159 HD
ENDBRANCH  18  21
BRANCH  17  26
HETATM   26  O   UNK N   1      35.001  11.592  12.761  0.00  0.00    -0.364 OA
HETATM   27  H   UNK N   1      34.438  11.553  13.509  0.00  0.00     0.217 HD
ENDBRANCH  17  26
BRANCH  11  28
HETATM   28  O   UNK N   1      32.890  14.731  10.664  0.00  0.00    -0.374 OA
HETATM   29  H   UNK N   1      32.124  14.708  11.259  0.00  0.00     0.211 HD
ENDBRANCH  11  28
BRANCH  10  30
HETATM   30  O   UNK N   1      34.363  17.228   9.548  0.00  0.00    -0.361 OA
HETATM   31  H   UNK N   1      33.662  17.720   9.929  0.00  0.00     0.217 HD
ENDBRANCH  10  30
BRANCH   5  32
HETATM   32  O   UNK N   1      33.591  18.610   4.531  0.00  0.00    -0.360 OA
HETATM   33  H   UNK N   1      33.250  19.359   4.081  0.00  0.00     0.217 HD
ENDBRANCH   5  32
TORSDOF 5
ENDMDL
MODEL 6
REMARK VINA RESULT:      -7.3      5.300      8.535
REMARK  5 active torsions:
REMARK  status: ('A' for Active; 'I' for Inactive)
REMARK    1  A    between atoms: C_5  and  O_7 
REMARK    2  A    between atoms: C_11  and  O_27 
REMARK    3  A    between atoms: C_12  and  O_26 
REMARK    4  A    between atoms: C_18  and  O_25 
REMARK    5  A    between atoms: C_19  and  C_22 
REMARK       I    between atoms: C_22  and  N_24 
ROOT
HETATM    1  C   UNK N   1      19.859  18.680   3.055  0.00  0.00     0.003 A 
HETATM    2  C   UNK N   1      20.756  17.719   3.517  0.00  0.00     0.008 A 
HETATM    3  C   UNK N   1      22.099  18.047   3.717  0.00  0.00    -0.041 A 
HETATM    4  C   UNK N   1      22.561  19.360   3.452  0.00  0.00     0.054 A 
HETATM    5  C   UNK N   1      21.638  20.328   2.994  0.00  0.00     0.080 A 
HETATM    6  C   UNK N   1      20.297  19.978   2.797  0.00  0.00     0.037 A 
HETATM    7  C   UNK N   1      24.003  19.684   3.696  0.00  0.00     0.194 C 
HETATM    8  O   UNK N   1      24.396  20.841   3.660  0.00  0.00    -0.287 OA
HETATM    9  C   UNK N   1      24.933  18.567   4.044  0.00  0.00     0.030 C 
HETATM   10  C   UNK N   1      26.151  18.774   4.622  0.00  0.00     0.096 C 
HETATM   11  C   UNK N   1      27.016  17.593   5.061  0.00  0.00     0.175 C 
HETATM   12  C   UNK N   1      26.763  16.364   4.186  0.00  0.00     0.042 C 
HETATM   13  C   UNK N   1      25.288  16.021   4.222  0.00  0.00     0.018 C 
HETATM   14  C   UNK N   1      24.424  17.171   3.727  0.00  0.00     0.030 C 
HETATM   15  C   UNK N   1      23.017  16.995   4.265  0.00  0.00     0.049 C 
HETATM   16  C   UNK N   1      27.529  15.147   4.720  0.00  0.00     0.074 C 
HETATM   17  C   UNK N   1      28.933  15.422   5.213  0.00  0.00     0.063 C 
HETATM   18  C   UNK N   1      29.420  16.687   5.354  0.00  0.00     0.110 C 
HETATM   19  C   UNK N   1      28.511  17.839   5.051  0.00  0.00     0.208 C 
HETATM   20  O   UNK N   1      28.966  18.952   4.837  0.00  0.00    -0.288 OA
ENDROOT
BRANCH  18  21
HETATM   21  C   UNK N   1      30.829  16.937   5.812  0.00  0.00     0.255 C 
HETATM   22  O   UNK N   1      31.156  16.722   6.970  0.00  0.00    -0.268 OA
HETATM   23  N   UNK N   1      31.747  17.440   4.964  0.00  0.00    -0.366 N 
HETATM   24  H   UNK N   1      31.490  17.700   4.050  0.00  0.00     0.159 HD
HETATM   25  H   UNK N   1      32.679  17.548   5.259  0.00  0.00     0.159 HD
ENDBRANCH  18  21
BRANCH  17  26
HETATM   26  O   UNK N   1      29.702  14.352   5.505  0.00  0.00    -0.364 OA
HETATM   27  H   UNK N   1      29.680  13.595   4.954  0.00  0.00     0.217 HD
ENDBRANCH  17  26
BRANCH  11  28
HETATM   28  O   UNK N   1      26.653  17.293   6.380  0.00  0.00    -0.374 OA
HETATM   29  H   UNK N   1      26.313  16.848   7.172  0.00  0.00     0.211 HD
ENDBRANCH  11  28
BRANCH  10  30
HETATM   30  O   UNK N   1      26.552  20.029   4.913  0.00  0.00    -0.361 OA
HETATM   31  H   UNK N   1      26.996  20.558   4.279  0.00  0.00     0.217 HD
ENDBRANCH  10  30
BRANCH   5  32
HETATM   32  O   UNK N   1      22.024  21.589   2.737  0.00  0.00    -0.360 OA
HETATM   33  H   UNK N   1      21.500  22.159   2.208  0.00  0.00     0.217 HD
ENDBRANCH   5  32
TORSDOF 5
ENDMDL
MODEL 7
REMARK VINA RESULT:      -7.3      4.329      8.731
REMARK  5 active torsions:
REMARK  status: ('A' for Active; 'I' for Inactive)
REMARK    1  A    between atoms: C_5  and  O_7 
REMARK    2  A    between atoms: C_11  and  O_27 
REMARK    3  A    between atoms: C_12  and  O_26 
REMARK    4  A    between atoms: C_18  and  O_25 
REMARK    5  A    between atoms: C_19  and  C_22 
REMARK       I    between atoms: C_22  and  N_24 
ROOT
HETATM    1  C   UNK N   1      38.277   8.692  13.876  0.00  0.00     0.003 A 
HETATM    2  C   UNK N   1      38.165   9.289  12.622  0.00  0.00     0.008 A 
HETATM    3  C   UNK N   1      37.613  10.566  12.496  0.00  0.00    -0.041 A 
HETATM    4  C   UNK N   1      37.163  11.267  13.644  0.00  0.00     0.054 A 
HETATM    5  C   UNK N   1      37.293  10.653  14.911  0.00  0.00     0.080 A 
HETATM    6  C   UNK N   1      37.847   9.372  15.014  0.00  0.00     0.037 A 
HETATM    7  C   UNK N   1      36.595  12.642  13.477  0.00  0.00     0.194 C 
HETATM    8  O   UNK N   1      36.373  13.347  14.451  0.00  0.00    -0.287 OA
HETATM    9  C   UNK N   1      36.366  13.152  12.091  0.00  0.00     0.030 C 
HETATM   10  C   UNK N   1      36.198  14.476  11.810  0.00  0.00     0.096 C 
HETATM   11  C   UNK N   1      36.079  14.959  10.365  0.00  0.00     0.175 C 
HETATM   12  C   UNK N   1      35.458  13.884   9.471  0.00  0.00     0.042 C 
HETATM   13  C   UNK N   1      36.280  12.615   9.571  0.00  0.00     0.018 C 
HETATM   14  C   UNK N   1      36.349  12.095  11.000  0.00  0.00     0.030 C 
HETATM   15  C   UNK N   1      37.560  11.190  11.133  0.00  0.00     0.049 C 
HETATM   16  C   UNK N   1      35.473  14.322   8.000  0.00  0.00     0.074 C 
HETATM   17  C   UNK N   1      35.134  15.775   7.747  0.00  0.00     0.063 C 
HETATM   18  C   UNK N   1      35.011  16.680   8.758  0.00  0.00     0.110 C 
HETATM   19  C   UNK N   1      35.267  16.222  10.162  0.00  0.00     0.208 C 
HETATM   20  O   UNK N   1      34.861  16.870  11.113  0.00  0.00    -0.288 OA
ENDROOT
BRANCH  18  21
HETATM   21  C   UNK N   1      34.639  18.111   8.488  0.00  0.00     0.255 C 
HETATM   22  O   UNK N   1      35.425  19.016   8.729  0.00  0.00    -0.268 OA
HETATM   23  N   UNK N   1      33.419  18.424   8.010  0.00  0.00    -0.366 N 
HETATM   24  H   UNK N   1      32.738  17.723   7.886  0.00  0.00     0.159 HD
HETATM   25  H   UNK N   1      33.206  19.358   7.786  0.00  0.00     0.159 HD
ENDBRANCH  18  21
BRANCH  17  26
HETATM   26  O   UNK N   1      34.945  16.147   6.464  0.00  0.00    -0.364 OA
HETATM   27  H   UNK N   1      34.896  15.498   5.791  0.00  0.00     0.217 HD
ENDBRANCH  17  26
BRANCH  11  28
HETATM   28  O   UNK N   1      37.380  15.224   9.918  0.00  0.00    -0.374 OA
HETATM   29  H   UNK N   1      38.164  15.652   9.541  0.00  0.00     0.211 HD
ENDBRANCH  11  28
BRANCH  10  30
HETATM   30  O   UNK N   1      36.248  15.386  12.806  0.00  0.00    -0.361 OA
HETATM   31  H   UNK N   1      36.848  16.106  12.780  0.00  0.00     0.217 HD
ENDBRANCH  10  30
BRANCH   5  32
HETATM   32  O   UNK N   1      36.891  11.279  16.030  0.00  0.00    -0.360 OA
HETATM   33  H   UNK N   1      36.129  11.824  16.034  0.00  0.00     0.217 HD
ENDBRANCH   5  32
TORSDOF 5
ENDMDL
MODEL 8
REMARK VINA RESULT:      -7.2      1.977      2.733
REMARK  5 active torsions:
REMARK  status: ('A' for Active; 'I' for Inactive)
REMARK    1  A    between atoms: C_5  and  O_7 
REMARK    2  A    between atoms: C_11  and  O_27 
REMARK    3  A    between atoms: C_12  and  O_26 
REMARK    4  A    between atoms: C_18  and  O_25 
REMARK    5  A    between atoms: C_19  and  C_22 
REMARK       I    between atoms: C_22  and  N_24 
ROOT
HETATM    1  C   UNK N   1      31.923  16.927   3.357  0.00  0.00     0.003 A 
HETATM    2  C   UNK N   1      33.005  16.234   3.895  0.00  0.00     0.008 A 
HETATM    3  C   UNK N   1      33.085  16.012   5.272  0.00  0.00    -0.041 A 
HETATM    4  C   UNK N   1      32.065  16.489   6.133  0.00  0.00     0.054 A 
HETATM    5  C   UNK N   1      30.967  17.181   5.572  0.00  0.00     0.080 A 
HETATM    6  C   UNK N   1      30.908  17.395   4.189  0.00  0.00     0.037 A 
HETATM    7  C   UNK N   1      32.170  16.216   7.602  0.00  0.00     0.194 C 
HETATM    8  O   UNK N   1      31.228  16.443   8.346  0.00  0.00    -0.287 OA
HETATM    9  C   UNK N   1      33.430  15.603   8.122  0.00  0.00     0.030 C 
HETATM   10  C   UNK N   1      33.508  14.995   9.340  0.00  0.00     0.096 C 
HETATM   11  C   UNK N   1      34.788  14.285   9.778  0.00  0.00     0.175 C 
HETATM   12  C   UNK N   1      36.023  14.927   9.144  0.00  0.00     0.042 C 
HETATM   13  C   UNK N   1      35.869  14.924   7.637  0.00  0.00     0.018 C 
HETATM   14  C   UNK N   1      34.629  15.684   7.191  0.00  0.00     0.030 C 
HETATM   15  C   UNK N   1      34.241  15.215   5.801  0.00  0.00     0.049 C 
HETATM   16  C   UNK N   1      37.287  14.124   9.476  0.00  0.00     0.074 C 
HETATM   17  C   UNK N   1      37.377  13.600  10.893  0.00  0.00     0.063 C 
HETATM   18  C   UNK N   1      36.329  13.669  11.761  0.00  0.00     0.110 C 
HETATM   19  C   UNK N   1      35.033  14.243  11.273  0.00  0.00     0.208 C 
HETATM   20  O   UNK N   1      34.187  14.633  12.062  0.00  0.00    -0.288 OA
ENDROOT
BRANCH  18  21
HETATM   21  C   UNK N   1      36.450  13.175  13.175  0.00  0.00     0.255 C 
HETATM   22  O   UNK N   1      36.717  12.004  13.406  0.00  0.00    -0.268 OA
HETATM   23  N   UNK N   1      36.228  14.005  14.214  0.00  0.00    -0.366 N 
HETATM   24  H   UNK N   1      35.929  14.930  14.056  0.00  0.00     0.159 HD
HETATM   25  H   UNK N   1      36.363  13.684  15.134  0.00  0.00     0.159 HD
ENDBRANCH  18  21
BRANCH  17  26
HETATM   26  O   UNK N   1      38.553  13.062  11.276  0.00  0.00    -0.364 OA
HETATM   27  H   UNK N   1      38.607  12.575  12.073  0.00  0.00     0.217 HD
ENDBRANCH  17  26
BRANCH  11  28
HETATM   28  O   UNK N   1      34.688  12.961   9.335  0.00  0.00    -0.374 OA
HETATM   29  H   UNK N   1      34.573  12.171   8.784  0.00  0.00     0.211 HD
ENDBRANCH  11  28
BRANCH  10  30
HETATM   30  O   UNK N   1      32.411  14.921  10.125  0.00  0.00    -0.361 OA
HETATM   31  H   UNK N   1      31.919  15.686  10.348  0.00  0.00     0.217 HD
ENDBRANCH  10  30
BRANCH   5  32
HETATM   32  O   UNK N   1      29.971  17.645   6.344  0.00  0.00    -0.360 OA
HETATM   33  H   UNK N   1      30.112  17.851   7.247  0.00  0.00     0.217 HD
ENDBRANCH   5  32
TORSDOF 5
ENDMDL
MODEL 9
REMARK VINA RESULT:      -7.2      3.045      4.644
REMARK  5 active torsions:
REMARK  status: ('A' for Active; 'I' for Inactive)
REMARK    1  A    between atoms: C_5  and  O_7 
REMARK    2  A    between atoms: C_11  and  O_27 
REMARK    3  A    between atoms: C_12  and  O_26 
REMARK    4  A    between atoms: C_18  and  O_25 
REMARK    5  A    between atoms: C_19  and  C_22 
REMARK       I    between atoms: C_22  and  N_24 
ROOT
HETATM    1  C   UNK N   1      32.981  17.452   5.838  0.00  0.00     0.003 A 
HETATM    2  C   UNK N   1      33.891  17.419   6.893  0.00  0.00     0.008 A 
HETATM    3  C   UNK N   1      33.908  16.336   7.775  0.00  0.00    -0.041 A 
HETATM    4  C   UNK N   1      33.000  15.260   7.604  0.00  0.00     0.054 A 
HETATM    5  C   UNK N   1      32.090  15.302   6.523  0.00  0.00     0.080 A 
HETATM    6  C   UNK N   1      32.088  16.398   5.652  0.00  0.00     0.037 A 
HETATM    7  C   UNK N   1      33.059  14.105   8.555  0.00  0.00     0.194 C 
HETATM    8  O   UNK N   1      32.428  13.082   8.331  0.00  0.00    -0.287 OA
HETATM    9  C   UNK N   1      33.954  14.211   9.747  0.00  0.00     0.030 C 
HETATM   10  C   UNK N   1      34.355  13.125  10.468  0.00  0.00     0.096 C 
HETATM   11  C   UNK N   1      35.359  13.274  11.609  0.00  0.00     0.175 C 
HETATM   12  C   UNK N   1      35.255  14.653  12.264  0.00  0.00     0.042 C 
HETATM   13  C   UNK N   1      35.444  15.723  11.209  0.00  0.00     0.018 C 
HETATM   14  C   UNK N   1      34.407  15.618  10.100  0.00  0.00     0.030 C 
HETATM   15  C   UNK N   1      34.939  16.318   8.864  0.00  0.00     0.049 C 
HETATM   16  C   UNK N   1      36.358  14.845  13.313  0.00  0.00     0.074 C 
HETATM   17  C   UNK N   1      36.654  13.640  14.180  0.00  0.00     0.063 C 
HETATM   18  C   UNK N   1      36.118  12.413  13.927  0.00  0.00     0.110 C 
HETATM   19  C   UNK N   1      35.243  12.251  12.721  0.00  0.00     0.208 C 
HETATM   20  O   UNK N   1      34.484  11.299  12.625  0.00  0.00    -0.288 OA
ENDROOT
BRANCH  18  21
HETATM   21  C   UNK N   1      36.396  11.237  14.820  0.00  0.00     0.255 C 
HETATM   22  O   UNK N   1      37.529  10.790  14.928  0.00  0.00    -0.268 OA
HETATM   23  N   UNK N   1      35.396  10.630  15.488  0.00  0.00    -0.366 N 
HETATM   24  H   UNK N   1      34.463  10.917  15.354  0.00  0.00     0.159 HD
HETATM   25  H   UNK N   1      35.598   9.897  16.112  0.00  0.00     0.159 HD
ENDBRANCH  18  21
BRANCH  17  26
HETATM   26  O   UNK N   1      37.473  13.829  15.235  0.00  0.00    -0.364 OA
HETATM   27  H   UNK N   1      38.190  13.244  15.381  0.00  0.00     0.217 HD
ENDBRANCH  17  26
BRANCH  11  28
HETATM   28  O   UNK N   1      36.635  13.136  11.048  0.00  0.00    -0.374 OA
HETATM   29  H   UNK N   1      37.425  12.780  10.611  0.00  0.00     0.211 HD
ENDBRANCH  11  28
BRANCH  10  30
HETATM   30  O   UNK N   1      33.951  11.890  10.103  0.00  0.00    -0.361 OA
HETATM   31  H   UNK N   1      34.563  11.241   9.817  0.00  0.00     0.217 HD
ENDBRANCH  10  30
BRANCH   5  32
HETATM   32  O   UNK N   1      31.216  14.303   6.312  0.00  0.00    -0.360 OA
HETATM   33  H   UNK N   1      31.051  13.656   6.969  0.00  0.00     0.217 HD
ENDBRANCH   5  32
TORSDOF 5
ENDMDL
