REMARK  18 active torsions:
REMARK  status: ('A' for Active; 'I' for Inactive)
REMARK    1  A    between atoms: C_4  and  O_59 
REMARK    2  A    between atoms: C_8  and  O_57 
REMARK    3  A    between atoms: C_11  and  O_53 
REMARK    4  A    between atoms: C_13  and  O_42 
REMARK    5  A    between atoms: C_19  and  O_20 
REMARK    6  A    between atoms: O_20  and  C_21 
REMARK    7  A    between atoms: C_21  and  C_23 
REMARK    8  A    between atoms: C_23  and  C_24 
REMARK    9  A    between atoms: C_23  and  O_37 
REMARK   10  A    between atoms: C_24  and  C_25 
REMARK   11  A    between atoms: C_24  and  N_29 
REMARK   12  A    between atoms: C_25  and  C_26 
REMARK       I    between atoms: N_29  and  C_30 
REMARK   13  A    between atoms: C_30  and  O_32 
REMARK   14  A    between atoms: O_32  and  C_33 
REMARK   15  A    between atoms: O_42  and  C_43 
REMARK   16  A    between atoms: C_43  and  C_45 
REMARK   17  A    between atoms: O_53  and  C_54 
REMARK   18  A    between atoms: O_59  and  C_60 
ROOT
HETATM    1  C   UNK N   1      -0.606   2.562   1.913  0.00  0.00     0.046 C 
HETATM    2  C   UNK N   1      -0.102   1.643   0.842  0.00  0.00    -0.046 C 
HETATM    3  C   UNK N   1       0.829   2.026  -0.070  0.00  0.00    -0.028 C 
HETATM    4  C   UNK N   1       1.409   3.397   0.035  0.00  0.00     0.232 C 
HETATM    5  C   UNK N   1       2.908   3.400  -0.148  0.00  0.00     0.171 C 
HETATM    6  O   UNK N   1       3.373   4.137  -1.010  0.00  0.00    -0.294 OA
HETATM    7  C   UNK N   1       3.862   2.542   0.716  0.00  0.00     0.055 C 
HETATM    8  C   UNK N   1       5.209   3.309   0.792  0.00  0.00     0.137 C 
HETATM    9  C   UNK N   1       6.054   3.068  -0.442  0.00  0.00     0.068 C 
HETATM   10  C   UNK N   1       6.624   1.654  -0.339  0.00  0.00     0.161 C 
HETATM   11  C   UNK N   1       5.636   0.604   0.154  0.00  0.00     0.125 C 
HETATM   12  C   UNK N   1       4.114   1.040   0.169  0.00  0.00     0.076 C 
HETATM   13  C   UNK N   1       3.068  -0.104   0.572  0.00  0.00     0.179 C 
HETATM   14  C   UNK N   1       1.763  -0.265  -0.329  0.00  0.00     0.140 A 
HETATM   15  C   UNK N   1       1.311   1.005  -1.115  0.00  0.00     0.016 C 
HETATM   16  C   UNK N   1       0.174   0.673  -2.069  0.00  0.00     0.023 C 
HETATM   17  C   UNK N   1       2.391   1.469  -2.089  0.00  0.00     0.023 C 
HETATM   18  C   UNK N   1       0.583  -0.794   0.593  0.00  0.00     0.207 A 
HETATM   19  C   UNK N   1      -0.542   0.213   0.847  0.00  0.00     0.194 C 
HETATM   20  O   UNK N   1       0.145  -1.942  -0.021  0.00  0.00    -0.286 OA
HETATM   21  C   UNK N   1       0.944  -2.209  -1.045  0.00  0.00     0.408 A 
HETATM   22  O   UNK N   1       0.805  -3.199  -1.751  0.00  0.00    -0.229 OA
HETATM   23  O   UNK N   1       1.908  -1.303  -1.240  0.00  0.00    -0.280 OA
HETATM   24  C   UNK N   1       6.412   0.737   1.448  0.00  0.00     0.210 C 
HETATM   25  O   UNK N   1       7.382   1.566   0.847  0.00  0.00    -0.380 OA
HETATM   26  C   UNK N   1       3.363   2.503   2.154  0.00  0.00     0.027 C 
ENDROOT
BRANCH  19  27
HETATM   27  O   UNK N   1      -1.831  -0.153   0.483  0.00  0.00    -0.307 OA
BRANCH  27  28
HETATM   28  C   UNK N   1      -2.568   0.366  -0.536  0.00  0.00     0.290 C 
HETATM   29  O   UNK N   1      -2.215   1.378  -1.118  0.00  0.00    -0.262 OA
BRANCH  28  30
HETATM   30  C   UNK N   1      -3.826  -0.324  -0.969  0.00  0.00     0.240 C 
BRANCH  30  31
HETATM   31  C   UNK N   1      -4.828  -0.410   0.208  0.00  0.00     0.125 C 
BRANCH  31  32
HETATM   32  C   UNK N   1      -5.506   0.948   0.483  0.00  0.00     0.032 C 
BRANCH  32  33
HETATM   33  C   UNK N   1      -4.632   2.172   0.726  0.00  0.00    -0.021 C 
HETATM   34  C   UNK N   1      -5.361   3.097   1.675  0.00  0.00     0.009 C 
HETATM   35  C   UNK N   1      -4.451   2.931  -0.576  0.00  0.00     0.009 C 
ENDBRANCH  32  33
ENDBRANCH  31  32
BRANCH  31  36
HETATM   36  N   UNK N   1      -5.932  -1.325  -0.027  0.00  0.00    -0.329 N 
HETATM   37  C   UNK N   1      -5.905  -2.677  -0.186  0.00  0.00     0.361 C 
HETATM   38  O   UNK N   1      -6.958  -3.264  -0.371  0.00  0.00    -0.238 OA
HETATM   39  H   UNK N   1      -6.824  -0.910  -0.078  0.00  0.00     0.165 HD
BRANCH  37  40
HETATM   40  O   UNK N   1      -4.747  -3.387  -0.231  0.00  0.00    -0.294 OA
BRANCH  40  41
HETATM   41  C   UNK N   1      -4.037  -3.859   0.859  0.00  0.00     0.061 C 
HETATM   42  C   UNK N   1      -3.453  -2.727   1.681  0.00  0.00     0.046 C 
HETATM   43  C   UNK N   1      -2.892  -4.706   0.341  0.00  0.00     0.046 C 
HETATM   44  C   UNK N   1      -4.911  -4.731   1.743  0.00  0.00     0.046 C 
ENDBRANCH  40  41
ENDBRANCH  37  40
ENDBRANCH  31  36
ENDBRANCH  30  31
BRANCH  30  45
HETATM   45  O   UNK N   1      -3.461  -1.580  -1.448  0.00  0.00    -0.383 OA
HETATM   46  H   UNK N   1      -4.092  -2.237  -1.782  0.00  0.00     0.210 HD
ENDBRANCH  30  45
ENDBRANCH  28  30
ENDBRANCH  27  28
ENDBRANCH  19  27
BRANCH  13  47
HETATM   47  O   UNK N   1       3.704  -1.350   0.652  0.00  0.00    -0.308 OA
BRANCH  47  48
HETATM   48  C   UNK N   1       3.173  -2.501   1.170  0.00  0.00     0.293 C 
HETATM   49  O   UNK N   1       2.266  -2.450   1.988  0.00  0.00    -0.259 OA
BRANCH  48  50
HETATM   50  C   UNK N   1       3.647  -3.827   0.689  0.00  0.00     0.039 A 
HETATM   51  C   UNK N   1       4.734  -3.917  -0.186  0.00  0.00     0.017 A 
HETATM   52  C   UNK N   1       5.183  -5.156  -0.652  0.00  0.00     0.001 A 
HETATM   53  C   UNK N   1       4.525  -6.324  -0.266  0.00  0.00     0.000 A 
HETATM   54  C   UNK N   1       3.422  -6.250   0.589  0.00  0.00     0.001 A 
HETATM   55  C   UNK N   1       2.988  -5.008   1.070  0.00  0.00     0.017 A 
ENDBRANCH  48  50
ENDBRANCH  47  48
ENDBRANCH  13  47
BRANCH   4  56
HETATM   56  O   UNK N   1       0.766   4.249  -0.840  0.00  0.00    -0.304 OA
BRANCH  56  57
HETATM   57  C   UNK N   1      -0.021   5.267  -0.407  0.00  0.00     0.255 C 
HETATM   58  O   UNK N   1      -0.166   5.485   0.788  0.00  0.00    -0.266 OA
HETATM   59  C   UNK N   1      -0.737   6.116  -1.398  0.00  0.00     0.126 C 
ENDBRANCH  56  57
ENDBRANCH   4  56
BRANCH  11  60
HETATM   60  O   UNK N   1       5.910  -0.551  -0.575  0.00  0.00    -0.305 OA
BRANCH  60  61
HETATM   61  C   UNK N   1       6.646  -1.642  -0.201  0.00  0.00     0.255 C 
HETATM   62  O   UNK N   1       7.067  -2.392  -1.065  0.00  0.00    -0.266 OA
HETATM   63  C   UNK N   1       6.930  -1.987   1.232  0.00  0.00     0.126 C 
ENDBRANCH  60  61
ENDBRANCH  11  60
BRANCH   8  64
HETATM   64  O   UNK N   1       5.069   4.676   1.055  0.00  0.00    -0.394 OA
HETATM   65  H   UNK N   1       5.841   5.235   1.237  0.00  0.00     0.210 HD
ENDBRANCH   8  64
TORSDOF 18
