REMARK  3 active torsions:
REMARK  status: ('A' for Active; 'I' for Inactive)
REMARK    1  A    between atoms: C_14  and  C_7 
REMARK    2  A    between atoms: C_13  and  C_8 
REMARK    3  A    between atoms: O_20  and  C_14 
ROOT
HETATM    1  C   UNK N   1       5.642   1.091   0.137  0.00  0.00     0.021 A 
HETATM    2  C   UNK N   1       4.460   1.855   0.010  0.00  0.00     0.033 A 
HETATM    3  C   UNK N   1       4.334  -0.978   0.197  0.00  0.00     0.058 A 
HETATM    4  C   UNK N   1       5.582  -0.328   0.232  0.00  0.00     0.040 A 
HETATM    5  C   UNK N   1       3.253   1.163  -0.022  0.00  0.00     0.068 A 
HETATM    6  C   UNK N   1       3.202  -0.192   0.066  0.00  0.00     0.105 A 
HETATM    7  C   UNK N   1       1.233   0.528  -0.128  0.00  0.00     0.159 A 
HETATM    8  N   UNK N   1       2.003   1.651  -0.144  0.00  0.00    -0.334 N 
ATOM      9  HN  UNK N   1       1.706   2.623  -0.228  1.00  0.00     0.168 HD
HETATM   10  O   UNK N   1       1.959  -0.569  -0.001  0.00  0.00    -0.291 OA
ENDROOT
BRANCH   7  11
HETATM   11  C   UNK N   1      -0.229   0.499  -0.241  0.00  0.00     0.018 A 
HETATM   12  C   UNK N   1      -0.876  -0.742  -0.266  0.00  0.00     0.039 A 
HETATM   13  C   UNK N   1      -2.263  -0.815  -0.371  0.00  0.00     0.036 A 
HETATM   14  C   UNK N   1      -3.018   0.357  -0.444  0.00  0.00     0.047 A 
HETATM   15 Cl   UNK N   1      -3.048  -2.378  -0.407  0.00  0.00    -0.084 Cl
HETATM   16  C   UNK N   1      -2.381   1.603  -0.417  0.00  0.00     0.036 A 
HETATM   17  C   UNK N   1      -0.985   1.676  -0.319  0.00  0.00     0.039 A 
HETATM   18 Cl   UNK N   1      -3.336   3.067  -0.496  0.00  0.00    -0.084 Cl
ENDBRANCH   7  11
BRANCH   4  19
HETATM   19  C   UNK N   1       6.811  -1.134   0.356  0.00  0.00     0.176 C 
HETATM   20  O   UNK N   1       7.906  -0.596   0.358  0.00  0.00    -0.646 OA
BRANCH  19  21
HETATM   21  O   UNK N   1       6.730  -2.476   0.462  0.00  0.00    -0.773 OA
HETATM   22  H   UNK N   1       5.895  -2.894   0.535  0.00  0.00     0.167 HD
ENDBRANCH  19  21
ENDBRANCH   4  19
TORSDOF 3
