MODEL 1
REMARK VINA RESULT:      -8.9      0.000      0.000
REMARK  2 active torsions:
REMARK  status: ('A' for Active; 'I' for Inactive)
REMARK    1  A    between atoms: C_23  and  C_24 
REMARK    2  A    between atoms: C_33  and  O_41 
ROOT
HETATM    1  C   UNK N   1      33.679  18.314   8.006  0.00  0.00     0.153 C 
HETATM    2  N   UNK N   1      33.643  17.026   8.674  0.00  0.00    -0.350 N 
HETATM    3  C   UNK N   1      32.531  16.149   8.396  0.00  0.00     0.151 C 
HETATM    4  C   UNK N   1      32.294  15.963   6.894  0.00  0.00     0.187 C 
HETATM    5  O   UNK N   1      33.426  15.451   6.256  0.00  0.00    -0.388 OA
HETATM    6  C   UNK N   1      33.533  16.174   5.061  0.00  0.00     0.183 C 
HETATM    7  C   UNK N   1      33.126  15.317   3.865  0.00  0.00     0.134 C 
HETATM    8  N   UNK N   1      33.941  14.116   3.816  0.00  0.00    -0.195 NA
HETATM    9  S   UNK N   1      32.900  12.702   3.620  0.00  0.00     0.305 S 
HETATM   10  O   UNK N   1      31.538  13.051   2.998  0.00  0.00    -0.188 OA
HETATM   11  O   UNK N   1      33.569  11.634   2.733  0.00  0.00    -0.188 OA
HETATM   12  N   UNK N   1      32.692  12.105   5.245  0.00  0.00    -0.237 N 
HETATM   13  C   UNK N   1      33.595  11.250   5.761  0.00  0.00     0.266 C 
HETATM   14  O   UNK N   1      34.422  10.714   5.035  0.00  0.00    -0.267 OA
HETATM   15  C   UNK N   1      33.737  11.090   7.202  0.00  0.00     0.035 A 
HETATM   16  C   UNK N   1      34.383   9.924   7.650  0.00  0.00     0.018 A 
HETATM   17  C   UNK N   1      34.843   9.823   8.950  0.00  0.00     0.015 A 
HETATM   18  C   UNK N   1      34.716  10.935   9.761  0.00  0.00    -0.000 A 
HETATM   19  C   UNK N   1      34.086  12.088   9.366  0.00  0.00     0.047 A 
HETATM   20  C   UNK N   1      33.541  12.195   8.079  0.00  0.00     0.047 A 
HETATM   21  N   UNK N   1      34.198  13.033  10.332  0.00  0.00    -0.340 N 
HETATM   22  C   UNK N   1      34.941  12.472  11.327  0.00  0.00     0.054 A 
HETATM   23  C   UNK N   1      35.253  11.149  10.993  0.00  0.00    -0.014 A 
HETATM   24  C   UNK N   1      35.467  13.148  12.536  0.00  0.00     0.002 A 
HETATM   25  C   UNK N   1      35.868  12.338  13.611  0.00  0.00     0.017 A 
HETATM   26  C   UNK N   1      36.522  12.860  14.718  0.00  0.00     0.037 A 
HETATM   27  C   UNK N   1      36.818  14.213  14.772  0.00  0.00     0.069 A 
HETATM   28  C   UNK N   1      36.415  15.047  13.715  0.00  0.00     0.049 A 
HETATM   29  C   UNK N   1      35.729  14.539  12.600  0.00  0.00    -0.020 A 
HETATM   30  C   UNK N   1      35.467  15.516  11.523  0.00  0.00     0.027 C 
HETATM   31  C   UNK N   1      34.620  15.494  10.476  0.00  0.00     0.029 C 
HETATM   32  C   UNK N   1      33.623  14.379  10.317  0.00  0.00     0.174 C 
HETATM   33  C   UNK N   1      34.609  16.745   9.616  0.00  0.00     0.251 C 
HETATM   34  O   UNK N   1      35.485  17.571   9.817  0.00  0.00    -0.268 OA
HETATM   35  C   UNK N   1      34.930  14.199   2.759  0.00  0.00     0.131 C 
HETATM   36  H   UNK N   1      31.920  12.391   5.782  0.00  0.00     0.183 HD
ENDROOT
BRANCH  23  37
HETATM   37  C   UNK N   1      36.163  10.200  11.726  0.00  0.00     0.022 C 
HETATM   38  C   UNK N   1      37.585  10.152  11.128  0.00  0.00     0.009 C 
HETATM   39  C   UNK N   1      37.886   8.784  10.514  0.00  0.00     0.001 C 
HETATM   40  C   UNK N   1      37.755   7.676  11.567  0.00  0.00     0.000 C 
HETATM   41  C   UNK N   1      36.606   7.906  12.564  0.00  0.00     0.001 C 
HETATM   42  C   UNK N   1      35.541   8.828  11.977  0.00  0.00     0.009 C 
ENDBRANCH  23  37
BRANCH  27  43
HETATM   43  O   UNK N   1      37.512  14.686  15.832  0.00  0.00    -0.356 OA
HETATM   44  C   UNK N   1      37.519  16.012  16.198  0.00  0.00     0.210 C 
ENDBRANCH  27  43
TORSDOF 2
ENDMDL
MODEL 2
REMARK VINA RESULT:      -8.7      2.576      6.163
REMARK  2 active torsions:
REMARK  status: ('A' for Active; 'I' for Inactive)
REMARK    1  A    between atoms: C_23  and  C_24 
REMARK    2  A    between atoms: C_33  and  O_41 
ROOT
HETATM    1  C   UNK N   1      31.758  10.742   4.895  0.00  0.00     0.153 C 
HETATM    2  N   UNK N   1      32.719  10.734   5.982  0.00  0.00    -0.350 N 
HETATM    3  C   UNK N   1      33.921  11.519   5.830  0.00  0.00     0.151 C 
HETATM    4  C   UNK N   1      33.629  12.960   5.403  0.00  0.00     0.187 C 
HETATM    5  O   UNK N   1      32.797  13.607   6.321  0.00  0.00    -0.388 OA
HETATM    6  C   UNK N   1      31.880  14.325   5.542  0.00  0.00     0.183 C 
HETATM    7  C   UNK N   1      32.188  15.820   5.574  0.00  0.00     0.134 C 
HETATM    8  N   UNK N   1      32.184  16.296   6.946  0.00  0.00    -0.195 NA
HETATM    9  S   UNK N   1      33.647  17.240   7.249  0.00  0.00     0.305 S 
HETATM   10  O   UNK N   1      34.261  17.811   5.960  0.00  0.00    -0.188 OA
HETATM   11  O   UNK N   1      33.366  18.417   8.203  0.00  0.00    -0.188 OA
HETATM   12  N   UNK N   1      34.737  16.098   7.989  0.00  0.00    -0.237 N 
HETATM   13  C   UNK N   1      34.699  15.909   9.321  0.00  0.00     0.266 C 
HETATM   14  O   UNK N   1      34.078  16.684  10.037  0.00  0.00    -0.267 OA
HETATM   15  C   UNK N   1      35.223  14.688   9.920  0.00  0.00     0.035 A 
HETATM   16  C   UNK N   1      35.518  14.732  11.294  0.00  0.00     0.018 A 
HETATM   17  C   UNK N   1      35.716  13.567  12.014  0.00  0.00     0.015 A 
HETATM   18  C   UNK N   1      35.533  12.368  11.353  0.00  0.00    -0.000 A 
HETATM   19  C   UNK N   1      35.252  12.282  10.013  0.00  0.00     0.047 A 
HETATM   20  C   UNK N   1      35.121  13.442   9.237  0.00  0.00     0.047 A 
HETATM   21  N   UNK N   1      35.035  10.988   9.666  0.00  0.00    -0.340 N 
HETATM   22  C   UNK N   1      35.146  10.265  10.815  0.00  0.00     0.054 A 
HETATM   23  C   UNK N   1      35.480  11.113  11.876  0.00  0.00    -0.014 A 
HETATM   24  C   UNK N   1      34.848   8.824  10.991  0.00  0.00     0.002 A 
HETATM   25  C   UNK N   1      35.379   8.185  12.124  0.00  0.00     0.017 A 
HETATM   26  C   UNK N   1      35.028   6.887  12.466  0.00  0.00     0.037 A 
HETATM   27  C   UNK N   1      34.108   6.194  11.694  0.00  0.00     0.069 A 
HETATM   28  C   UNK N   1      33.573   6.806  10.549  0.00  0.00     0.049 A 
HETATM   29  C   UNK N   1      33.939   8.109  10.174  0.00  0.00    -0.020 A 
HETATM   30  C   UNK N   1      33.213   8.656   9.009  0.00  0.00     0.027 C 
HETATM   31  C   UNK N   1      33.470   9.702   8.200  0.00  0.00     0.029 C 
HETATM   32  C   UNK N   1      34.756  10.473   8.324  0.00  0.00     0.174 C 
HETATM   33  C   UNK N   1      32.491   9.901   7.057  0.00  0.00     0.251 C 
HETATM   34  O   UNK N   1      31.466   9.240   7.074  0.00  0.00    -0.268 OA
HETATM   35  C   UNK N   1      30.987  17.065   7.229  0.00  0.00     0.131 C 
HETATM   36  H   UNK N   1      35.377  15.596   7.437  0.00  0.00     0.183 HD
ENDROOT
BRANCH  23  37
HETATM   37  C   UNK N   1      35.568  10.773  13.340  0.00  0.00     0.022 C 
HETATM   38  C   UNK N   1      34.273  11.103  14.110  0.00  0.00     0.009 C 
HETATM   39  C   UNK N   1      34.497  12.226  15.125  0.00  0.00     0.001 C 
HETATM   40  C   UNK N   1      35.586  11.837  16.133  0.00  0.00     0.000 C 
HETATM   41  C   UNK N   1      36.741  11.033  15.512  0.00  0.00     0.001 C 
HETATM   42  C   UNK N   1      36.844  11.281  14.009  0.00  0.00     0.009 C 
ENDBRANCH  23  37
BRANCH  27  43
HETATM   43  O   UNK N   1      33.734   4.953  12.084  0.00  0.00    -0.356 OA
HETATM   44  C   UNK N   1      32.476   4.442  11.867  0.00  0.00     0.210 C 
ENDBRANCH  27  43
TORSDOF 2
ENDMDL
MODEL 3
REMARK VINA RESULT:      -8.4      6.394      9.694
REMARK  2 active torsions:
REMARK  status: ('A' for Active; 'I' for Inactive)
REMARK    1  A    between atoms: C_23  and  C_24 
REMARK    2  A    between atoms: C_33  and  O_41 
ROOT
HETATM    1  C   UNK N   1      24.917  12.759   1.024  0.00  0.00     0.153 C 
HETATM    2  N   UNK N   1      25.708  13.168   2.170  0.00  0.00    -0.350 N 
HETATM    3  C   UNK N   1      26.110  12.152   3.113  0.00  0.00     0.151 C 
HETATM    4  C   UNK N   1      26.763  10.946   2.432  0.00  0.00     0.187 C 
HETATM    5  O   UNK N   1      27.886  11.322   1.691  0.00  0.00    -0.388 OA
HETATM    6  C   UNK N   1      27.799  10.594   0.497  0.00  0.00     0.183 C 
HETATM    7  C   UNK N   1      28.822   9.461   0.472  0.00  0.00     0.134 C 
HETATM    8  N   UNK N   1      30.160   9.999   0.653  0.00  0.00    -0.195 NA
HETATM    9  S   UNK N   1      31.002   9.081   1.905  0.00  0.00     0.305 S 
HETATM   10  O   UNK N   1      30.422   7.670   2.097  0.00  0.00    -0.188 OA
HETATM   11  O   UNK N   1      32.502   8.940   1.582  0.00  0.00    -0.188 OA
HETATM   12  N   UNK N   1      30.774  10.033   3.348  0.00  0.00    -0.237 N 
HETATM   13  C   UNK N   1      31.635  11.028   3.633  0.00  0.00     0.266 C 
HETATM   14  O   UNK N   1      32.692  11.122   3.022  0.00  0.00    -0.267 OA
HETATM   15  C   UNK N   1      31.255  12.117   4.523  0.00  0.00     0.035 A 
HETATM   16  C   UNK N   1      32.300  12.872   5.083  0.00  0.00     0.018 A 
HETATM   17  C   UNK N   1      32.052  14.097   5.675  0.00  0.00     0.015 A 
HETATM   18  C   UNK N   1      30.759  14.581   5.623  0.00  0.00    -0.000 A 
HETATM   19  C   UNK N   1      29.710  13.874   5.094  0.00  0.00     0.047 A 
HETATM   20  C   UNK N   1      29.914  12.596   4.554  0.00  0.00     0.047 A 
HETATM   21  N   UNK N   1      28.587  14.635   5.095  0.00  0.00    -0.340 N 
HETATM   22  C   UNK N   1      28.953  15.847   5.598  0.00  0.00     0.054 A 
HETATM   23  C   UNK N   1      30.306  15.821   5.955  0.00  0.00    -0.014 A 
HETATM   24  C   UNK N   1      28.121  17.071   5.665  0.00  0.00     0.002 A 
HETATM   25  C   UNK N   1      28.527  18.086   6.548  0.00  0.00     0.017 A 
HETATM   26  C   UNK N   1      27.914  19.330   6.567  0.00  0.00     0.037 A 
HETATM   27  C   UNK N   1      26.886  19.608   5.679  0.00  0.00     0.069 A 
HETATM   28  C   UNK N   1      26.452  18.605   4.795  0.00  0.00     0.049 A 
HETATM   29  C   UNK N   1      27.044  17.332   4.782  0.00  0.00    -0.020 A 
HETATM   30  C   UNK N   1      26.554  16.421   3.727  0.00  0.00     0.027 C 
HETATM   31  C   UNK N   1      26.654  15.086   3.575  0.00  0.00     0.029 C 
HETATM   32  C   UNK N   1      27.250  14.231   4.659  0.00  0.00     0.174 C 
HETATM   33  C   UNK N   1      25.949  14.512   2.359  0.00  0.00     0.251 C 
HETATM   34  O   UNK N   1      25.529  15.302   1.529  0.00  0.00    -0.268 OA
HETATM   35  C   UNK N   1      30.897   9.995  -0.596  0.00  0.00     0.131 C 
HETATM   36  H   UNK N   1      30.020   9.845   3.952  0.00  0.00     0.183 HD
ENDROOT
BRANCH  23  37
HETATM   37  C   UNK N   1      31.163  16.968   6.420  0.00  0.00     0.022 C 
HETATM   38  C   UNK N   1      32.187  17.419   5.359  0.00  0.00     0.009 C 
HETATM   39  C   UNK N   1      33.621  17.142   5.814  0.00  0.00     0.001 C 
HETATM   40  C   UNK N   1      33.922  17.869   7.131  0.00  0.00     0.000 C 
HETATM   41  C   UNK N   1      32.731  17.899   8.104  0.00  0.00     0.001 C 
HETATM   42  C   UNK N   1      31.751  16.765   7.815  0.00  0.00     0.009 C 
ENDBRANCH  23  37
BRANCH  27  43
HETATM   43  O   UNK N   1      26.347  20.849   5.673  0.00  0.00    -0.356 OA
HETATM   44  C   UNK N   1      26.417  21.706   6.746  0.00  0.00     0.210 C 
ENDBRANCH  27  43
TORSDOF 2
ENDMDL
MODEL 4
REMARK VINA RESULT:      -8.2      6.558     11.315
REMARK  2 active torsions:
REMARK  status: ('A' for Active; 'I' for Inactive)
REMARK    1  A    between atoms: C_23  and  C_24 
REMARK    2  A    between atoms: C_33  and  O_41 
ROOT
HETATM    1  C   UNK N   1      29.133   9.526   2.287  0.00  0.00     0.153 C 
HETATM    2  N   UNK N   1      29.085  10.976   2.255  0.00  0.00    -0.350 N 
HETATM    3  C   UNK N   1      28.313  11.605   1.209  0.00  0.00     0.151 C 
HETATM    4  C   UNK N   1      26.896  11.034   1.102  0.00  0.00     0.187 C 
HETATM    5  O   UNK N   1      26.197  11.169   2.304  0.00  0.00    -0.388 OA
HETATM    6  C   UNK N   1      25.521   9.955   2.475  0.00  0.00     0.183 C 
HETATM    7  C   UNK N   1      24.027  10.118   2.204  0.00  0.00     0.134 C 
HETATM    8  N   UNK N   1      23.475  11.142   3.074  0.00  0.00    -0.195 NA
HETATM    9  S   UNK N   1      22.521  12.280   2.116  0.00  0.00     0.305 S 
HETATM   10  O   UNK N   1      22.024  11.671   0.794  0.00  0.00    -0.188 OA
HETATM   11  O   UNK N   1      21.293  12.779   2.902  0.00  0.00    -0.188 OA
HETATM   12  N   UNK N   1      23.623  13.595   1.805  0.00  0.00    -0.237 N 
HETATM   13  C   UNK N   1      23.739  14.593   2.700  0.00  0.00     0.266 C 
HETATM   14  O   UNK N   1      22.924  14.707   3.606  0.00  0.00    -0.267 OA
HETATM   15  C   UNK N   1      24.927  15.437   2.733  0.00  0.00     0.035 A 
HETATM   16  C   UNK N   1      24.808  16.673   3.391  0.00  0.00     0.018 A 
HETATM   17  C   UNK N   1      25.931  17.397   3.749  0.00  0.00     0.015 A 
HETATM   18  C   UNK N   1      27.165  16.822   3.508  0.00  0.00    -0.000 A 
HETATM   19  C   UNK N   1      27.324  15.623   2.861  0.00  0.00     0.047 A 
HETATM   20  C   UNK N   1      26.208  14.901   2.417  0.00  0.00     0.047 A 
HETATM   21  N   UNK N   1      28.634  15.271   2.852  0.00  0.00    -0.340 N 
HETATM   22  C   UNK N   1      29.293  16.247   3.536  0.00  0.00     0.054 A 
HETATM   23  C   UNK N   1      28.389  17.238   3.933  0.00  0.00    -0.014 A 
HETATM   24  C   UNK N   1      30.721  16.247   3.932  0.00  0.00     0.002 A 
HETATM   25  C   UNK N   1      31.298  17.479   4.281  0.00  0.00     0.017 A 
HETATM   26  C   UNK N   1      32.574  17.565   4.819  0.00  0.00     0.037 A 
HETATM   27  C   UNK N   1      33.307  16.411   5.049  0.00  0.00     0.069 A 
HETATM   28  C   UNK N   1      32.757  15.167   4.696  0.00  0.00     0.049 A 
HETATM   29  C   UNK N   1      31.478  15.065   4.126  0.00  0.00    -0.020 A 
HETATM   30  C   UNK N   1      30.994  13.686   3.908  0.00  0.00     0.027 C 
HETATM   31  C   UNK N   1      29.994  13.194   3.150  0.00  0.00     0.029 C 
HETATM   32  C   UNK N   1      29.222  14.088   2.220  0.00  0.00     0.174 C 
HETATM   33  C   UNK N   1      29.856  11.682   3.153  0.00  0.00     0.251 C 
HETATM   34  O   UNK N   1      30.512  11.060   3.972  0.00  0.00    -0.268 OA
HETATM   35  C   UNK N   1      22.689  10.554   4.141  0.00  0.00     0.131 C 
HETATM   36  H   UNK N   1      24.158  13.607   0.979  0.00  0.00     0.183 HD
ENDROOT
BRANCH  23  37
HETATM   37  C   UNK N   1      28.648  18.424   4.822  0.00  0.00     0.022 C 
HETATM   38  C   UNK N   1      28.605  18.069   6.323  0.00  0.00     0.009 C 
HETATM   39  C   UNK N   1      27.426  18.747   7.024  0.00  0.00     0.001 C 
HETATM   40  C   UNK N   1      27.514  20.272   6.880  0.00  0.00     0.000 C 
HETATM   41  C   UNK N   1      28.046  20.731   5.511  0.00  0.00     0.001 C 
HETATM   42  C   UNK N   1      27.832  19.659   4.446  0.00  0.00     0.009 C 
ENDBRANCH  23  37
BRANCH  27  43
HETATM   43  O   UNK N   1      34.522  16.516   5.634  0.00  0.00    -0.356 OA
HETATM   44  C   UNK N   1      34.926  15.723   6.682  0.00  0.00     0.210 C 
ENDBRANCH  27  43
TORSDOF 2
ENDMDL
MODEL 5
REMARK VINA RESULT:      -8.2      8.255     12.812
REMARK  2 active torsions:
REMARK  status: ('A' for Active; 'I' for Inactive)
REMARK    1  A    between atoms: C_23  and  C_24 
REMARK    2  A    between atoms: C_33  and  O_41 
ROOT
HETATM    1  C   UNK N   1      22.060  11.967   1.237  0.00  0.00     0.153 C 
HETATM    2  N   UNK N   1      23.268  12.767   1.327  0.00  0.00    -0.350 N 
HETATM    3  C   UNK N   1      23.235  14.106   0.790  0.00  0.00     0.151 C 
HETATM    4  C   UNK N   1      22.037  14.912   1.300  0.00  0.00     0.187 C 
HETATM    5  O   UNK N   1      22.035  15.000   2.695  0.00  0.00    -0.388 OA
HETATM    6  C   UNK N   1      20.700  14.804   3.073  0.00  0.00     0.183 C 
HETATM    7  C   UNK N   1      20.062  16.117   3.522  0.00  0.00     0.134 C 
HETATM    8  N   UNK N   1      20.829  16.693   4.613  0.00  0.00    -0.195 NA
HETATM    9  S   UNK N   1      21.157  18.395   4.271  0.00  0.00     0.305 S 
HETATM   10  O   UNK N   1      20.151  19.006   3.281  0.00  0.00    -0.188 OA
HETATM   11  O   UNK N   1      21.130  19.240   5.559  0.00  0.00    -0.188 OA
HETATM   12  N   UNK N   1      22.758  18.383   3.580  0.00  0.00    -0.237 N 
HETATM   13  C   UNK N   1      23.833  18.437   4.389  0.00  0.00     0.266 C 
HETATM   14  O   UNK N   1      23.701  18.724   5.572  0.00  0.00    -0.267 OA
HETATM   15  C   UNK N   1      25.137  17.974   3.935  0.00  0.00     0.035 A 
HETATM   16  C   UNK N   1      26.257  18.425   4.655  0.00  0.00     0.018 A 
HETATM   17  C   UNK N   1      27.488  17.811   4.511  0.00  0.00     0.015 A 
HETATM   18  C   UNK N   1      27.554  16.696   3.698  0.00  0.00    -0.000 A 
HETATM   19  C   UNK N   1      26.488  16.228   2.972  0.00  0.00     0.047 A 
HETATM   20  C   UNK N   1      25.245  16.874   3.037  0.00  0.00     0.047 A 
HETATM   21  N   UNK N   1      26.824  15.073   2.346  0.00  0.00    -0.340 N 
HETATM   22  C   UNK N   1      28.105  14.798   2.719  0.00  0.00     0.054 A 
HETATM   23  C   UNK N   1      28.584  15.819   3.547  0.00  0.00    -0.014 A 
HETATM   24  C   UNK N   1      28.874  13.567   2.422  0.00  0.00     0.002 A 
HETATM   25  C   UNK N   1      30.271  13.627   2.551  0.00  0.00     0.017 A 
HETATM   26  C   UNK N   1      31.067  12.494   2.456  0.00  0.00     0.037 A 
HETATM   27  C   UNK N   1      30.481  11.254   2.251  0.00  0.00     0.069 A 
HETATM   28  C   UNK N   1      29.086  11.169   2.105  0.00  0.00     0.049 A 
HETATM   29  C   UNK N   1      28.270  12.310   2.172  0.00  0.00    -0.020 A 
HETATM   30  C   UNK N   1      26.817  12.050   2.107  0.00  0.00     0.027 C 
HETATM   31  C   UNK N   1      25.769  12.859   1.856  0.00  0.00     0.029 C 
HETATM   32  C   UNK N   1      25.984  14.288   1.439  0.00  0.00     0.174 C 
HETATM   33  C   UNK N   1      24.412  12.179   1.821  0.00  0.00     0.251 C 
HETATM   34  O   UNK N   1      24.353  11.024   2.210  0.00  0.00    -0.268 OA
HETATM   35  C   UNK N   1      20.142  16.528   5.879  0.00  0.00     0.131 C 
HETATM   36  H   UNK N   1      22.876  18.337   2.605  0.00  0.00     0.183 HD
ENDROOT
BRANCH  23  37
HETATM   37  C   UNK N   1      29.887  15.866   4.298  0.00  0.00     0.022 C 
HETATM   38  C   UNK N   1      29.746  15.427   5.771  0.00  0.00     0.009 C 
HETATM   39  C   UNK N   1      30.014  16.590   6.728  0.00  0.00     0.001 C 
HETATM   40  C   UNK N   1      31.425  17.155   6.514  0.00  0.00     0.000 C 
HETATM   41  C   UNK N   1      31.864  17.172   5.039  0.00  0.00     0.001 C 
HETATM   42  C   UNK N   1      30.659  17.169   4.103  0.00  0.00     0.009 C 
ENDBRANCH  23  37
BRANCH  27  43
HETATM   43  O   UNK N   1      31.271  10.156   2.226  0.00  0.00    -0.356 OA
HETATM   44  C   UNK N   1      32.604  10.195   1.891  0.00  0.00     0.210 C 
ENDBRANCH  27  43
TORSDOF 2
ENDMDL
MODEL 6
REMARK VINA RESULT:      -8.2      2.978      5.888
REMARK  2 active torsions:
REMARK  status: ('A' for Active; 'I' for Inactive)
REMARK    1  A    between atoms: C_23  and  C_24 
REMARK    2  A    between atoms: C_33  and  O_41 
ROOT
HETATM    1  C   UNK N   1      37.772  11.535   4.426  0.00  0.00     0.153 C 
HETATM    2  N   UNK N   1      37.866  11.713   5.863  0.00  0.00    -0.350 N 
HETATM    3  C   UNK N   1      38.150  13.037   6.364  0.00  0.00     0.151 C 
HETATM    4  C   UNK N   1      37.226  14.101   5.766  0.00  0.00     0.187 C 
HETATM    5  O   UNK N   1      35.882  13.815   6.023  0.00  0.00    -0.388 OA
HETATM    6  C   UNK N   1      35.212  14.095   4.825  0.00  0.00     0.183 C 
HETATM    7  C   UNK N   1      34.407  15.388   4.938  0.00  0.00     0.134 C 
HETATM    8  N   UNK N   1      33.470  15.292   6.044  0.00  0.00    -0.195 NA
HETATM    9  S   UNK N   1      33.602  16.733   7.057  0.00  0.00     0.305 S 
HETATM   10  O   UNK N   1      34.188  17.937   6.302  0.00  0.00    -0.188 OA
HETATM   11  O   UNK N   1      32.230  17.147   7.623  0.00  0.00    -0.188 OA
HETATM   12  N   UNK N   1      34.672  16.244   8.345  0.00  0.00    -0.237 N 
HETATM   13  C   UNK N   1      34.168  15.639   9.436  0.00  0.00     0.266 C 
HETATM   14  O   UNK N   1      32.960  15.636   9.637  0.00  0.00    -0.267 OA
HETATM   15  C   UNK N   1      35.010  14.816  10.294  0.00  0.00     0.035 A 
HETATM   16  C   UNK N   1      34.537  14.563  11.593  0.00  0.00     0.018 A 
HETATM   17  C   UNK N   1      35.090  13.558  12.366  0.00  0.00     0.015 A 
HETATM   18  C   UNK N   1      36.063  12.767  11.785  0.00  0.00    -0.000 A 
HETATM   19  C   UNK N   1      36.558  12.986  10.525  0.00  0.00     0.047 A 
HETATM   20  C   UNK N   1      36.073  14.044   9.744  0.00  0.00     0.047 A 
HETATM   21  N   UNK N   1      37.429  12.001  10.191  0.00  0.00    -0.340 N 
HETATM   22  C   UNK N   1      37.447  11.138  11.244  0.00  0.00     0.054 A 
HETATM   23  C   UNK N   1      36.613  11.617  12.260  0.00  0.00    -0.014 A 
HETATM   24  C   UNK N   1      38.127   9.823  11.306  0.00  0.00     0.002 A 
HETATM   25  C   UNK N   1      38.352   9.267  12.577  0.00  0.00     0.017 A 
HETATM   26  C   UNK N   1      38.831   7.975  12.738  0.00  0.00     0.037 A 
HETATM   27  C   UNK N   1      39.078   7.186  11.625  0.00  0.00     0.069 A 
HETATM   28  C   UNK N   1      38.874   7.723  10.343  0.00  0.00     0.049 A 
HETATM   29  C   UNK N   1      38.415   9.038  10.163  0.00  0.00    -0.020 A 
HETATM   30  C   UNK N   1      38.148   9.425   8.762  0.00  0.00     0.027 C 
HETATM   31  C   UNK N   1      37.987  10.628   8.177  0.00  0.00     0.029 C 
HETATM   32  C   UNK N   1      38.206  11.897   8.954  0.00  0.00     0.174 C 
HETATM   33  C   UNK N   1      37.783  10.601   6.673  0.00  0.00     0.251 C 
HETATM   34  O   UNK N   1      37.587   9.515   6.152  0.00  0.00    -0.268 OA
HETATM   35  C   UNK N   1      32.114  15.101   5.565  0.00  0.00     0.131 C 
HETATM   36  H   UNK N   1      35.639  16.409   8.274  0.00  0.00     0.183 HD
ENDROOT
BRANCH  23  37
HETATM   37  C   UNK N   1      36.224  10.927  13.540  0.00  0.00     0.022 C 
HETATM   38  C   UNK N   1      34.879  10.178  13.432  0.00  0.00     0.009 C 
HETATM   39  C   UNK N   1      33.813  10.813  14.327  0.00  0.00     0.001 C 
HETATM   40  C   UNK N   1      34.264  10.809  15.794  0.00  0.00     0.000 C 
HETATM   41  C   UNK N   1      35.768  11.072  15.976  0.00  0.00     0.001 C 
HETATM   42  C   UNK N   1      36.350  11.815  14.777  0.00  0.00     0.009 C 
ENDBRANCH  23  37
BRANCH  27  43
HETATM   43  O   UNK N   1      39.484   5.909  11.810  0.00  0.00    -0.356 OA
HETATM   44  C   UNK N   1      40.234   5.504  12.889  0.00  0.00     0.210 C 
ENDBRANCH  27  43
TORSDOF 2
ENDMDL
MODEL 7
REMARK VINA RESULT:      -8.1      2.753      6.023
REMARK  2 active torsions:
REMARK  status: ('A' for Active; 'I' for Inactive)
REMARK    1  A    between atoms: C_23  and  C_24 
REMARK    2  A    between atoms: C_33  and  O_41 
ROOT
HETATM    1  C   UNK N   1      36.719   9.323   6.112  0.00  0.00     0.153 C 
HETATM    2  N   UNK N   1      37.083  10.021   7.331  0.00  0.00    -0.350 N 
HETATM    3  C   UNK N   1      37.652  11.342   7.210  0.00  0.00     0.151 C 
HETATM    4  C   UNK N   1      36.817  12.260   6.313  0.00  0.00     0.187 C 
HETATM    5  O   UNK N   1      35.510  12.389   6.788  0.00  0.00    -0.388 OA
HETATM    6  C   UNK N   1      34.697  12.317   5.650  0.00  0.00     0.183 C 
HETATM    7  C   UNK N   1      34.134  13.691   5.291  0.00  0.00     0.134 C 
HETATM    8  N   UNK N   1      33.397  14.233   6.419  0.00  0.00    -0.195 NA
HETATM    9  S   UNK N   1      33.924  15.891   6.728  0.00  0.00     0.305 S 
HETATM   10  O   UNK N   1      34.553  16.554   5.491  0.00  0.00    -0.188 OA
HETATM   11  O   UNK N   1      32.751  16.773   7.196  0.00  0.00    -0.188 OA
HETATM   12  N   UNK N   1      35.109  15.725   7.998  0.00  0.00    -0.237 N 
HETATM   13  C   UNK N   1      34.710  15.714   9.283  0.00  0.00     0.266 C 
HETATM   14  O   UNK N   1      33.569  16.046   9.578  0.00  0.00    -0.267 OA
HETATM   15  C   UNK N   1      35.548  15.130  10.323  0.00  0.00     0.035 A 
HETATM   16  C   UNK N   1      35.269  15.508  11.648  0.00  0.00     0.018 A 
HETATM   17  C   UNK N   1      35.782  14.790  12.713  0.00  0.00     0.015 A 
HETATM   18  C   UNK N   1      36.506  13.649  12.424  0.00  0.00    -0.000 A 
HETATM   19  C   UNK N   1      36.806  13.250  11.146  0.00  0.00     0.047 A 
HETATM   20  C   UNK N   1      36.367  13.998  10.046  0.00  0.00     0.047 A 
HETATM   21  N   UNK N   1      37.443  12.052  11.171  0.00  0.00    -0.340 N 
HETATM   22  C   UNK N   1      37.505  11.683  12.481  0.00  0.00     0.054 A 
HETATM   23  C   UNK N   1      36.943  12.685  13.280  0.00  0.00    -0.014 A 
HETATM   24  C   UNK N   1      37.972  10.384  13.018  0.00  0.00     0.002 A 
HETATM   25  C   UNK N   1      38.321  10.332  14.378  0.00  0.00     0.017 A 
HETATM   26  C   UNK N   1      38.613   9.134  15.015  0.00  0.00     0.037 A 
HETATM   27  C   UNK N   1      38.540   7.941  14.311  0.00  0.00     0.069 A 
HETATM   28  C   UNK N   1      38.206   7.969  12.946  0.00  0.00     0.049 A 
HETATM   29  C   UNK N   1      37.934   9.175  12.281  0.00  0.00    -0.020 A 
HETATM   30  C   UNK N   1      37.495   9.035  10.877  0.00  0.00     0.027 C 
HETATM   31  C   UNK N   1      37.427   9.920   9.864  0.00  0.00     0.029 C 
HETATM   32  C   UNK N   1      37.971  11.314  10.022  0.00  0.00     0.174 C 
HETATM   33  C   UNK N   1      36.968   9.356   8.532  0.00  0.00     0.251 C 
HETATM   34  O   UNK N   1      36.518   8.221   8.528  0.00  0.00    -0.268 OA
HETATM   35  C   UNK N   1      31.967  14.164   6.190  0.00  0.00     0.131 C 
HETATM   36  H   UNK N   1      36.063  15.641   7.775  0.00  0.00     0.183 HD
ENDROOT
BRANCH  23  37
HETATM   37  C   UNK N   1      36.674  12.646  14.760  0.00  0.00     0.022 C 
HETATM   38  C   UNK N   1      35.383  11.880  15.115  0.00  0.00     0.009 C 
HETATM   39  C   UNK N   1      34.325  12.813  15.707  0.00  0.00     0.001 C 
HETATM   40  C   UNK N   1      34.855  13.501  16.972  0.00  0.00     0.000 C 
HETATM   41  C   UNK N   1      36.345  13.876  16.891  0.00  0.00     0.001 C 
HETATM   42  C   UNK N   1      36.805  14.006  15.441  0.00  0.00     0.009 C 
ENDBRANCH  23  37
BRANCH  27  43
HETATM   43  O   UNK N   1      38.766   6.781  14.969  0.00  0.00    -0.356 OA
HETATM   44  C   UNK N   1      38.241   6.503  16.209  0.00  0.00     0.210 C 
ENDBRANCH  27  43
TORSDOF 2
ENDMDL
MODEL 8
REMARK VINA RESULT:      -8.0      4.903      9.877
REMARK  2 active torsions:
REMARK  status: ('A' for Active; 'I' for Inactive)
REMARK    1  A    between atoms: C_23  and  C_24 
REMARK    2  A    between atoms: C_33  and  O_41 
ROOT
HETATM    1  C   UNK N   1      34.361  16.581   7.443  0.00  0.00     0.153 C 
HETATM    2  N   UNK N   1      33.370  16.571   6.383  0.00  0.00    -0.350 N 
HETATM    3  C   UNK N   1      33.808  16.233   5.050  0.00  0.00     0.151 C 
HETATM    4  C   UNK N   1      34.625  14.938   5.012  0.00  0.00     0.187 C 
HETATM    5  O   UNK N   1      33.898  13.859   5.521  0.00  0.00    -0.388 OA
HETATM    6  C   UNK N   1      34.806  13.146   6.315  0.00  0.00     0.183 C 
HETATM    7  C   UNK N   1      35.232  11.850   5.630  0.00  0.00     0.134 C 
HETATM    8  N   UNK N   1      34.062  11.041   5.331  0.00  0.00    -0.195 NA
HETATM    9  S   UNK N   1      34.127  10.509   3.647  0.00  0.00     0.305 S 
HETATM   10  O   UNK N   1      35.556  10.507   3.080  0.00  0.00    -0.188 OA
HETATM   11  O   UNK N   1      33.548   9.090   3.486  0.00  0.00    -0.188 OA
HETATM   12  N   UNK N   1      33.139  11.672   2.802  0.00  0.00    -0.237 N 
HETATM   13  C   UNK N   1      31.810  11.477   2.712  0.00  0.00     0.266 C 
HETATM   14  O   UNK N   1      31.324  10.395   3.012  0.00  0.00    -0.267 OA
HETATM   15  C   UNK N   1      30.906  12.589   2.448  0.00  0.00     0.035 A 
HETATM   16  C   UNK N   1      29.623  12.263   1.974  0.00  0.00     0.018 A 
HETATM   17  C   UNK N   1      28.602  13.197   1.992  0.00  0.00     0.015 A 
HETATM   18  C   UNK N   1      28.871  14.426   2.564  0.00  0.00    -0.000 A 
HETATM   19  C   UNK N   1      30.110  14.786   3.030  0.00  0.00     0.047 A 
HETATM   20  C   UNK N   1      31.185  13.889   2.957  0.00  0.00     0.047 A 
HETATM   21  N   UNK N   1      30.048  16.007   3.617  0.00  0.00    -0.340 N 
HETATM   22  C   UNK N   1      28.744  16.395   3.548  0.00  0.00     0.054 A 
HETATM   23  C   UNK N   1      27.999  15.425   2.870  0.00  0.00    -0.014 A 
HETATM   24  C   UNK N   1      28.136  17.588   4.183  0.00  0.00     0.002 A 
HETATM   25  C   UNK N   1      26.894  18.023   3.691  0.00  0.00     0.017 A 
HETATM   26  C   UNK N   1      26.167  19.025   4.318  0.00  0.00     0.037 A 
HETATM   27  C   UNK N   1      26.652  19.608   5.478  0.00  0.00     0.069 A 
HETATM   28  C   UNK N   1      27.899  19.200   5.983  0.00  0.00     0.049 A 
HETATM   29  C   UNK N   1      28.659  18.207   5.345  0.00  0.00    -0.020 A 
HETATM   30  C   UNK N   1      29.895  17.810   6.051  0.00  0.00     0.027 C 
HETATM   31  C   UNK N   1      30.988  17.138   5.640  0.00  0.00     0.029 C 
HETATM   32  C   UNK N   1      31.162  16.762   4.194  0.00  0.00     0.174 C 
HETATM   33  C   UNK N   1      32.088  16.982   6.676  0.00  0.00     0.251 C 
HETATM   34  O   UNK N   1      31.824  17.294   7.826  0.00  0.00    -0.268 OA
HETATM   35  C   UNK N   1      33.958   9.917   6.240  0.00  0.00     0.131 C 
HETATM   36  H   UNK N   1      33.551  12.465   2.392  0.00  0.00     0.183 HD
ENDROOT
BRANCH  23  37
HETATM   37  C   UNK N   1      26.507  15.369   2.681  0.00  0.00     0.022 C 
HETATM   38  C   UNK N   1      25.799  14.514   3.753  0.00  0.00     0.009 C 
HETATM   39  C   UNK N   1      25.171  13.260   3.143  0.00  0.00     0.001 C 
HETATM   40  C   UNK N   1      24.151  13.637   2.059  0.00  0.00     0.000 C 
HETATM   41  C   UNK N   1      24.570  14.854   1.216  0.00  0.00     0.001 C 
HETATM   42  C   UNK N   1      26.083  15.056   1.248  0.00  0.00     0.009 C 
ENDBRANCH  23  37
BRANCH  27  43
HETATM   43  O   UNK N   1      25.895  20.537   6.106  0.00  0.00    -0.356 OA
HETATM   44  C   UNK N   1      26.381  21.366   7.090  0.00  0.00     0.210 C 
ENDBRANCH  27  43
TORSDOF 2
ENDMDL
MODEL 9
REMARK VINA RESULT:      -8.0      3.321      4.396
REMARK  2 active torsions:
REMARK  status: ('A' for Active; 'I' for Inactive)
REMARK    1  A    between atoms: C_23  and  C_24 
REMARK    2  A    between atoms: C_33  and  O_41 
ROOT
HETATM    1  C   UNK N   1      34.600  15.864   9.561  0.00  0.00     0.153 C 
HETATM    2  N   UNK N   1      34.766  14.598  10.251  0.00  0.00    -0.350 N 
HETATM    3  C   UNK N   1      34.385  13.392   9.554  0.00  0.00     0.151 C 
HETATM    4  C   UNK N   1      34.997  13.307   8.153  0.00  0.00     0.187 C 
HETATM    5  O   UNK N   1      36.392  13.363   8.199  0.00  0.00    -0.388 OA
HETATM    6  C   UNK N   1      36.761  14.206   7.143  0.00  0.00     0.183 C 
HETATM    7  C   UNK N   1      37.363  13.406   5.990  0.00  0.00     0.134 C 
HETATM    8  N   UNK N   1      38.503  12.639   6.462  0.00  0.00    -0.195 NA
HETATM    9  S   UNK N   1      38.352  10.963   5.923  0.00  0.00     0.305 S 
HETATM   10  O   UNK N   1      37.450  10.816   4.687  0.00  0.00    -0.188 OA
HETATM   11  O   UNK N   1      39.728  10.359   5.583  0.00  0.00    -0.188 OA
HETATM   12  N   UNK N   1      37.647  10.145   7.292  0.00  0.00    -0.237 N 
HETATM   13  C   UNK N   1      38.444   9.661   8.263  0.00  0.00     0.266 C 
HETATM   14  O   UNK N   1      39.653   9.585   8.087  0.00  0.00    -0.267 OA
HETATM   15  C   UNK N   1      37.925   9.401   9.599  0.00  0.00     0.035 A 
HETATM   16  C   UNK N   1      38.680   8.541  10.416  0.00  0.00     0.018 A 
HETATM   17  C   UNK N   1      38.453   8.477  11.779  0.00  0.00     0.015 A 
HETATM   18  C   UNK N   1      37.519   9.344  12.312  0.00  0.00    -0.000 A 
HETATM   19  C   UNK N   1      36.756  10.192  11.550  0.00  0.00     0.047 A 
HETATM   20  C   UNK N   1      36.908  10.227  10.157  0.00  0.00     0.047 A 
HETATM   21  N   UNK N   1      35.999  10.983  12.351  0.00  0.00    -0.340 N 
HETATM   22  C   UNK N   1      36.324  10.647  13.631  0.00  0.00     0.054 A 
HETATM   23  C   UNK N   1      37.258   9.605  13.622  0.00  0.00    -0.014 A 
HETATM   24  C   UNK N   1      35.881  11.328  14.870  0.00  0.00     0.002 A 
HETATM   25  C   UNK N   1      36.001  10.621  16.078  0.00  0.00     0.017 A 
HETATM   26  C   UNK N   1      35.768  11.223  17.306  0.00  0.00     0.037 A 
HETATM   27  C   UNK N   1      35.431  12.567  17.364  0.00  0.00     0.069 A 
HETATM   28  C   UNK N   1      35.293  13.293  16.169  0.00  0.00     0.049 A 
HETATM   29  C   UNK N   1      35.498  12.691  14.917  0.00  0.00    -0.020 A 
HETATM   30  C   UNK N   1      35.420  13.605  13.759  0.00  0.00     0.027 C 
HETATM   31  C   UNK N   1      35.274  13.374  12.440  0.00  0.00     0.029 C 
HETATM   32  C   UNK N   1      35.019  11.984  11.926  0.00  0.00     0.174 C 
HETATM   33  C   UNK N   1      35.178  14.612  11.566  0.00  0.00     0.251 C 
HETATM   34  O   UNK N   1      35.433  15.687  12.085  0.00  0.00    -0.268 OA
HETATM   35  C   UNK N   1      39.750  13.231   6.016  0.00  0.00     0.131 C 
HETATM   36  H   UNK N   1      36.671  10.037   7.355  0.00  0.00     0.183 HD
ENDROOT
BRANCH  23  37
HETATM   37  C   UNK N   1      37.994   9.013  14.793  0.00  0.00     0.022 C 
HETATM   38  C   UNK N   1      39.461   9.484  14.879  0.00  0.00     0.009 C 
HETATM   39  C   UNK N   1      40.434   8.328  14.641  0.00  0.00     0.001 C 
HETATM   40  C   UNK N   1      40.213   7.213  15.671  0.00  0.00     0.000 C 
HETATM   41  C   UNK N   1      38.734   6.995  16.035  0.00  0.00     0.001 C 
HETATM   42  C   UNK N   1      37.811   7.503  14.931  0.00  0.00     0.009 C 
ENDBRANCH  23  37
BRANCH  27  43
HETATM   43  O   UNK N   1      35.272  13.147  18.576  0.00  0.00    -0.356 OA
HETATM   44  C   UNK N   1      35.145  12.432  19.744  0.00  0.00     0.210 C 
ENDBRANCH  27  43
TORSDOF 2
ENDMDL
