MODEL 1
REMARK VINA RESULT:      -7.0      0.000      0.000
REMARK  3 active torsions:
REMARK  status: ('A' for Active; 'I' for Inactive)
REMARK    1  A    between atoms: C_13  and  O_21 
REMARK    2  A    between atoms: C_17  and  C_15 
REMARK    3  A    between atoms: O_21  and  C_17 
ROOT
HETATM    1  C   UNK N   1      34.545  17.970   8.207  0.00  0.00     0.296 C 
HETATM    2  O   UNK N   1      34.878  19.136   8.314  0.00  0.00    -0.259 OA
ENDROOT
BRANCH   1   3
HETATM    3  C   UNK N   1      33.535  17.610   7.209  0.00  0.00     0.067 A 
HETATM    4  C   UNK N   1      33.703  17.397   5.847  0.00  0.00     0.107 A 
HETATM    5  N   UNK N   1      32.489  17.167   5.275  0.00  0.00    -0.364 N 
HETATM    6  C   UNK N   1      31.585  17.274   6.265  0.00  0.00     0.043 A 
HETATM    7  H   UNK N   1      32.310  16.966   4.328  0.00  0.00     0.165 HD
HETATM    8  C   UNK N   1      30.197  17.196   6.153  0.00  0.00     0.030 A 
HETATM    9  C   UNK N   1      32.188  17.538   7.456  0.00  0.00     0.008 A 
HETATM   10  C   UNK N   1      29.431  17.413   7.316  0.00  0.00     0.002 A 
HETATM   11  C   UNK N   1      30.063  17.696   8.548  0.00  0.00     0.001 A 
HETATM   12  C   UNK N   1      31.463  17.760   8.625  0.00  0.00     0.015 A 
ENDBRANCH   1   3
BRANCH   1  13
HETATM   13  O   UNK N   1      35.231  16.992   8.851  0.00  0.00    -0.312 OA
BRANCH  13  14
HETATM   14  C   UNK N   1      34.753  16.365   9.997  0.00  0.00     0.136 C 
HETATM   15  C   UNK N   1      35.811  16.275  11.126  0.00  0.00     0.068 C 
HETATM   16  C   UNK N   1      36.066  14.857  11.684  0.00  0.00     0.225 C 
HETATM   17  C   UNK N   1      36.956  14.079  10.725  0.00  0.00     0.038 C 
HETATM   18  N   UNK N   1      34.802  14.121  11.750  0.00  0.00     0.093 N 
HETATM   19  C   UNK N   1      35.972  13.407   9.783  0.00  0.00     0.038 C 
HETATM   20  C   UNK N   1      34.603  13.785  10.340  0.00  0.00     0.225 C 
HETATM   21  C   UNK N   1      34.055  15.029   9.626  0.00  0.00     0.068 C 
HETATM   22  C   UNK N   1      34.976  12.894  12.533  0.00  0.00     0.310 C 
ENDBRANCH  13  14
ENDBRANCH   1  13
TORSDOF 3
ENDMDL
MODEL 2
REMARK VINA RESULT:      -6.9     14.031     16.541
REMARK  3 active torsions:
REMARK  status: ('A' for Active; 'I' for Inactive)
REMARK    1  A    between atoms: C_13  and  O_21 
REMARK    2  A    between atoms: C_17  and  C_15 
REMARK    3  A    between atoms: O_21  and  C_17 
ROOT
HETATM    1  C   UNK N   1      27.701  24.002  -3.206  0.00  0.00     0.296 C 
HETATM    2  O   UNK N   1      27.310  23.431  -2.206  0.00  0.00    -0.259 OA
ENDROOT
BRANCH   1   3
HETATM    3  C   UNK N   1      26.717  24.503  -4.168  0.00  0.00     0.067 A 
HETATM    4  C   UNK N   1      26.185  23.857  -5.277  0.00  0.00     0.107 A 
HETATM    5  N   UNK N   1      25.369  24.714  -5.948  0.00  0.00    -0.364 N 
HETATM    6  C   UNK N   1      25.426  25.882  -5.283  0.00  0.00     0.043 A 
HETATM    7  H   UNK N   1      24.844  24.520  -6.759  0.00  0.00     0.165 HD
HETATM    8  C   UNK N   1      24.816  27.085  -5.634  0.00  0.00     0.030 A 
HETATM    9  C   UNK N   1      26.234  25.786  -4.191  0.00  0.00     0.008 A 
HETATM   10  C   UNK N   1      25.073  28.211  -4.828  0.00  0.00     0.002 A 
HETATM   11  C   UNK N   1      25.921  28.109  -3.701  0.00  0.00     0.001 A 
HETATM   12  C   UNK N   1      26.513  26.879  -3.373  0.00  0.00     0.015 A 
ENDBRANCH   1   3
BRANCH   1  13
HETATM   13  O   UNK N   1      29.007  24.349  -3.340  0.00  0.00    -0.312 OA
BRANCH  13  14
HETATM   14  C   UNK N   1      29.799  23.915  -4.397  0.00  0.00     0.136 C 
HETATM   15  C   UNK N   1      29.403  22.509  -4.916  0.00  0.00     0.068 C 
HETATM   16  C   UNK N   1      30.547  21.472  -4.962  0.00  0.00     0.225 C 
HETATM   17  C   UNK N   1      30.809  20.932  -3.563  0.00  0.00     0.038 C 
HETATM   18  N   UNK N   1      31.787  22.129  -5.382  0.00  0.00     0.093 N 
HETATM   19  C   UNK N   1      31.849  21.885  -2.997  0.00  0.00     0.038 C 
HETATM   20  C   UNK N   1      32.158  22.832  -4.153  0.00  0.00     0.225 C 
HETATM   21  C   UNK N   1      31.301  24.102  -4.054  0.00  0.00     0.068 C 
HETATM   22  C   UNK N   1      32.803  21.122  -5.705  0.00  0.00     0.310 C 
ENDBRANCH  13  14
ENDBRANCH   1  13
TORSDOF 3
ENDMDL
MODEL 3
REMARK VINA RESULT:      -6.9      0.994      1.977
REMARK  3 active torsions:
REMARK  status: ('A' for Active; 'I' for Inactive)
REMARK    1  A    between atoms: C_13  and  O_21 
REMARK    2  A    between atoms: C_17  and  C_15 
REMARK    3  A    between atoms: O_21  and  C_17 
ROOT
HETATM    1  C   UNK N   1      34.319  17.950   8.408  0.00  0.00     0.296 C 
HETATM    2  O   UNK N   1      34.889  19.017   8.287  0.00  0.00    -0.259 OA
ENDROOT
BRANCH   1   3
HETATM    3  C   UNK N   1      32.982  17.790   7.832  0.00  0.00     0.067 A 
HETATM    4  C   UNK N   1      31.757  17.752   8.486  0.00  0.00     0.107 A 
HETATM    5  N   UNK N   1      30.772  17.500   7.581  0.00  0.00    -0.364 N 
HETATM    6  C   UNK N   1      31.386  17.348   6.394  0.00  0.00     0.043 A 
HETATM    7  H   UNK N   1      29.806  17.438   7.760  0.00  0.00     0.165 HD
HETATM    8  C   UNK N   1      30.799  17.001   5.178  0.00  0.00     0.030 A 
HETATM    9  C   UNK N   1      32.731  17.524   6.510  0.00  0.00     0.008 A 
HETATM   10  C   UNK N   1      31.647  16.822   4.067  0.00  0.00     0.002 A 
HETATM   11  C   UNK N   1      33.044  16.995   4.195  0.00  0.00     0.001 A 
HETATM   12  C   UNK N   1      33.600  17.352   5.434  0.00  0.00     0.015 A 
ENDBRANCH   1   3
BRANCH   1  13
HETATM   13  O   UNK N   1      34.977  16.864   8.889  0.00  0.00    -0.312 OA
BRANCH  13  14
HETATM   14  C   UNK N   1      34.604  16.213  10.061  0.00  0.00     0.136 C 
HETATM   15  C   UNK N   1      35.731  16.180  11.123  0.00  0.00     0.068 C 
HETATM   16  C   UNK N   1      36.095  14.778  11.661  0.00  0.00     0.225 C 
HETATM   17  C   UNK N   1      36.964  14.047  10.648  0.00  0.00     0.038 C 
HETATM   18  N   UNK N   1      34.877  13.977  11.802  0.00  0.00     0.093 N 
HETATM   19  C   UNK N   1      35.960  13.323   9.765  0.00  0.00     0.038 C 
HETATM   20  C   UNK N   1      34.609  13.629  10.406  0.00  0.00     0.225 C 
HETATM   21  C   UNK N   1      33.955  14.843   9.731  0.00  0.00     0.068 C 
HETATM   22  C   UNK N   1      35.162  12.762  12.571  0.00  0.00     0.310 C 
ENDBRANCH  13  14
ENDBRANCH   1  13
TORSDOF 3
ENDMDL
MODEL 4
REMARK VINA RESULT:      -6.8      3.427      5.082
REMARK  3 active torsions:
REMARK  status: ('A' for Active; 'I' for Inactive)
REMARK    1  A    between atoms: C_13  and  O_21 
REMARK    2  A    between atoms: C_17  and  C_15 
REMARK    3  A    between atoms: O_21  and  C_17 
ROOT
HETATM    1  C   UNK N   1      29.251  16.791   6.450  0.00  0.00     0.296 C 
HETATM    2  O   UNK N   1      28.603  15.815   6.120  0.00  0.00    -0.259 OA
ENDROOT
BRANCH   1   3
HETATM    3  C   UNK N   1      28.549  17.965   6.972  0.00  0.00     0.067 A 
HETATM    4  C   UNK N   1      28.160  18.230   8.279  0.00  0.00     0.107 A 
HETATM    5  N   UNK N   1      27.456  19.394   8.312  0.00  0.00    -0.364 N 
HETATM    6  C   UNK N   1      27.382  19.821   7.039  0.00  0.00     0.043 A 
HETATM    7  H   UNK N   1      27.076  19.834   9.107  0.00  0.00     0.165 HD
HETATM    8  C   UNK N   1      26.693  20.934   6.560  0.00  0.00     0.030 A 
HETATM    9  C   UNK N   1      28.041  18.977   6.198  0.00  0.00     0.008 A 
HETATM   10  C   UNK N   1      26.688  21.155   5.168  0.00  0.00     0.002 A 
HETATM   11  C   UNK N   1      27.365  20.270   4.299  0.00  0.00     0.001 A 
HETATM   12  C   UNK N   1      28.055  19.162   4.817  0.00  0.00     0.015 A 
ENDBRANCH   1   3
BRANCH   1  13
HETATM   13  O   UNK N   1      30.605  16.731   6.524  0.00  0.00    -0.312 OA
BRANCH  13  14
HETATM   14  C   UNK N   1      31.283  16.418   7.697  0.00  0.00     0.136 C 
HETATM   15  C   UNK N   1      31.907  17.657   8.388  0.00  0.00     0.068 C 
HETATM   16  C   UNK N   1      33.419  17.559   8.687  0.00  0.00     0.225 C 
HETATM   17  C   UNK N   1      34.213  17.813   7.413  0.00  0.00     0.038 C 
HETATM   18  N   UNK N   1      33.749  16.195   9.104  0.00  0.00     0.093 N 
HETATM   19  C   UNK N   1      34.361  16.431   6.798  0.00  0.00     0.038 C 
HETATM   20  C   UNK N   1      33.719  15.496   7.819  0.00  0.00     0.225 C 
HETATM   21  C   UNK N   1      32.251  15.229   7.457  0.00  0.00     0.068 C 
HETATM   22  C   UNK N   1      35.105  16.155   9.660  0.00  0.00     0.310 C 
ENDBRANCH  13  14
ENDBRANCH   1  13
TORSDOF 3
ENDMDL
MODEL 5
REMARK VINA RESULT:      -6.7     16.117     18.991
REMARK  3 active torsions:
REMARK  status: ('A' for Active; 'I' for Inactive)
REMARK    1  A    between atoms: C_13  and  O_21 
REMARK    2  A    between atoms: C_17  and  C_15 
REMARK    3  A    between atoms: O_21  and  C_17 
ROOT
HETATM    1  C   UNK N   1      25.626  26.302  -6.209  0.00  0.00     0.296 C 
HETATM    2  O   UNK N   1      25.603  26.425  -7.419  0.00  0.00    -0.259 OA
ENDROOT
BRANCH   1   3
HETATM    3  C   UNK N   1      25.964  27.463  -5.384  0.00  0.00     0.067 A 
HETATM    4  C   UNK N   1      25.329  27.924  -4.237  0.00  0.00     0.107 A 
HETATM    5  N   UNK N   1      25.915  29.085  -3.835  0.00  0.00    -0.364 N 
HETATM    6  C   UNK N   1      26.872  29.354  -4.741  0.00  0.00     0.043 A 
HETATM    7  H   UNK N   1      25.683  29.621  -3.042  0.00  0.00     0.165 HD
HETATM    8  C   UNK N   1      27.690  30.480  -4.796  0.00  0.00     0.030 A 
HETATM    9  C   UNK N   1      26.932  28.384  -5.695  0.00  0.00     0.008 A 
HETATM   10  C   UNK N   1      28.580  30.594  -5.883  0.00  0.00     0.002 A 
HETATM   11  C   UNK N   1      28.631  29.589  -6.876  0.00  0.00     0.001 A 
HETATM   12  C   UNK N   1      27.796  28.464  -6.785  0.00  0.00     0.015 A 
ENDBRANCH   1   3
BRANCH   1  13
HETATM   13  O   UNK N   1      25.155  25.174  -5.619  0.00  0.00    -0.312 OA
BRANCH  13  14
HETATM   14  C   UNK N   1      25.982  24.127  -5.225  0.00  0.00     0.136 C 
HETATM   15  C   UNK N   1      26.640  24.360  -3.841  0.00  0.00     0.068 C 
HETATM   16  C   UNK N   1      28.180  24.244  -3.811  0.00  0.00     0.225 C 
HETATM   17  C   UNK N   1      28.804  25.514  -4.374  0.00  0.00     0.038 C 
HETATM   18  N   UNK N   1      28.607  23.157  -4.696  0.00  0.00     0.093 N 
HETATM   19  C   UNK N   1      28.925  25.229  -5.862  0.00  0.00     0.038 C 
HETATM   20  C   UNK N   1      28.446  23.787  -6.007  0.00  0.00     0.225 C 
HETATM   21  C   UNK N   1      26.955  23.749  -6.373  0.00  0.00     0.068 C 
HETATM   22  C   UNK N   1      30.021  22.848  -4.465  0.00  0.00     0.310 C 
ENDBRANCH  13  14
ENDBRANCH   1  13
TORSDOF 3
ENDMDL
MODEL 6
REMARK VINA RESULT:      -6.7     10.639     13.358
REMARK  3 active torsions:
REMARK  status: ('A' for Active; 'I' for Inactive)
REMARK    1  A    between atoms: C_13  and  O_21 
REMARK    2  A    between atoms: C_17  and  C_15 
REMARK    3  A    between atoms: O_21  and  C_17 
ROOT
HETATM    1  C   UNK N   1      20.736  14.487   8.793  0.00  0.00     0.296 C 
HETATM    2  O   UNK N   1      20.976  15.659   9.009  0.00  0.00    -0.259 OA
ENDROOT
BRANCH   1   3
HETATM    3  C   UNK N   1      21.109  13.489   9.799  0.00  0.00     0.067 A 
HETATM    4  C   UNK N   1      20.301  12.870  10.744  0.00  0.00     0.107 A 
HETATM    5  N   UNK N   1      21.068  12.075  11.539  0.00  0.00    -0.364 N 
HETATM    6  C   UNK N   1      22.334  12.230  11.111  0.00  0.00     0.043 A 
HETATM    7  H   UNK N   1      20.758  11.502  12.278  0.00  0.00     0.165 HD
HETATM    8  C   UNK N   1      23.486  11.675  11.666  0.00  0.00     0.030 A 
HETATM    9  C   UNK N   1      22.394  13.081  10.050  0.00  0.00     0.008 A 
HETATM   10  C   UNK N   1      24.726  12.034  11.099  0.00  0.00     0.002 A 
HETATM   11  C   UNK N   1      24.783  12.925  10.004  0.00  0.00     0.001 A 
HETATM   12  C   UNK N   1      23.601  13.459   9.467  0.00  0.00     0.015 A 
ENDBRANCH   1   3
BRANCH   1  13
HETATM   13  O   UNK N   1      19.961  14.120   7.741  0.00  0.00    -0.312 OA
BRANCH  13  14
HETATM   14  C   UNK N   1      20.451  14.017   6.443  0.00  0.00     0.136 C 
HETATM   15  C   UNK N   1      21.918  13.523   6.384  0.00  0.00     0.068 C 
HETATM   16  C   UNK N   1      22.891  14.426   5.595  0.00  0.00     0.225 C 
HETATM   17  C   UNK N   1      23.281  15.629   6.444  0.00  0.00     0.038 C 
HETATM   18  N   UNK N   1      22.211  14.967   4.416  0.00  0.00     0.093 N 
HETATM   19  C   UNK N   1      22.223  16.667   6.107  0.00  0.00     0.038 C 
HETATM   20  C   UNK N   1      21.375  16.001   5.027  0.00  0.00     0.225 C 
HETATM   21  C   UNK N   1      20.150  15.316   5.650  0.00  0.00     0.068 C 
HETATM   22  C   UNK N   1      23.187  15.586   3.514  0.00  0.00     0.310 C 
ENDBRANCH  13  14
ENDBRANCH   1  13
TORSDOF 3
ENDMDL
MODEL 7
REMARK VINA RESULT:      -6.6      3.288      4.959
REMARK  3 active torsions:
REMARK  status: ('A' for Active; 'I' for Inactive)
REMARK    1  A    between atoms: C_13  and  O_21 
REMARK    2  A    between atoms: C_17  and  C_15 
REMARK    3  A    between atoms: O_21  and  C_17 
ROOT
HETATM    1  C   UNK N   1      29.481  17.646   7.717  0.00  0.00     0.296 C 
HETATM    2  O   UNK N   1      28.738  17.112   8.519  0.00  0.00    -0.259 OA
ENDROOT
BRANCH   1   3
HETATM    3  C   UNK N   1      28.990  17.915   6.364  0.00  0.00     0.067 A 
HETATM    4  C   UNK N   1      29.340  17.286   5.176  0.00  0.00     0.107 A 
HETATM    5  N   UNK N   1      28.713  17.904   4.138  0.00  0.00    -0.364 N 
HETATM    6  C   UNK N   1      28.017  18.922   4.677  0.00  0.00     0.043 A 
HETATM    7  H   UNK N   1      28.762  17.658   3.186  0.00  0.00     0.165 HD
HETATM    8  C   UNK N   1      27.275  19.888   3.999  0.00  0.00     0.030 A 
HETATM    9  C   UNK N   1      28.159  18.954   6.030  0.00  0.00     0.008 A 
HETATM   10  C   UNK N   1      26.683  20.915   4.762  0.00  0.00     0.002 A 
HETATM   11  C   UNK N   1      26.843  20.949   6.166  0.00  0.00     0.001 A 
HETATM   12  C   UNK N   1      27.591  19.955   6.815  0.00  0.00     0.015 A 
ENDBRANCH   1   3
BRANCH   1  13
HETATM   13  O   UNK N   1      30.670  18.165   8.116  0.00  0.00    -0.312 OA
BRANCH  13  14
HETATM   14  C   UNK N   1      31.777  17.377   8.413  0.00  0.00     0.136 C 
HETATM   15  C   UNK N   1      33.124  18.088   8.133  0.00  0.00     0.068 C 
HETATM   16  C   UNK N   1      34.099  17.325   7.210  0.00  0.00     0.225 C 
HETATM   17  C   UNK N   1      33.663  17.479   5.760  0.00  0.00     0.038 C 
HETATM   18  N   UNK N   1      34.030  15.891   7.504  0.00  0.00     0.093 N 
HETATM   19  C   UNK N   1      32.718  16.309   5.540  0.00  0.00     0.038 C 
HETATM   20  C   UNK N   1      32.767  15.536   6.855  0.00  0.00     0.225 C 
HETATM   21  C   UNK N   1      31.619  15.969   7.778  0.00  0.00     0.068 C 
HETATM   22  C   UNK N   1      35.139  15.191   6.849  0.00  0.00     0.310 C 
ENDBRANCH  13  14
ENDBRANCH   1  13
TORSDOF 3
ENDMDL
MODEL 8
REMARK VINA RESULT:      -6.6      1.182      1.958
REMARK  3 active torsions:
REMARK  status: ('A' for Active; 'I' for Inactive)
REMARK    1  A    between atoms: C_13  and  O_21 
REMARK    2  A    between atoms: C_17  and  C_15 
REMARK    3  A    between atoms: O_21  and  C_17 
ROOT
HETATM    1  C   UNK N   1      33.429  17.801   8.263  0.00  0.00     0.296 C 
HETATM    2  O   UNK N   1      34.168  18.632   7.769  0.00  0.00    -0.259 OA
ENDROOT
BRANCH   1   3
HETATM    3  C   UNK N   1      32.184  17.459   7.572  0.00  0.00     0.067 A 
HETATM    4  C   UNK N   1      32.017  16.948   6.291  0.00  0.00     0.107 A 
HETATM    5  N   UNK N   1      30.688  16.858   6.012  0.00  0.00    -0.364 N 
HETATM    6  C   UNK N   1      30.047  17.340   7.092  0.00  0.00     0.043 A 
HETATM    7  H   UNK N   1      30.279  16.512   5.186  0.00  0.00     0.165 HD
HETATM    8  C   UNK N   1      28.674  17.522   7.247  0.00  0.00     0.030 A 
HETATM    9  C   UNK N   1      30.927  17.710   8.062  0.00  0.00     0.008 A 
HETATM   10  C   UNK N   1      28.221  18.117   8.441  0.00  0.00     0.002 A 
HETATM   11  C   UNK N   1      29.140  18.508   9.441  0.00  0.00     0.001 A 
HETATM   12  C   UNK N   1      30.516  18.303   9.254  0.00  0.00     0.015 A 
ENDBRANCH   1   3
BRANCH   1  13
HETATM   13  O   UNK N   1      33.834  17.057   9.324  0.00  0.00    -0.312 OA
BRANCH  13  14
HETATM   14  C   UNK N   1      35.105  16.502   9.415  0.00  0.00     0.136 C 
HETATM   15  C   UNK N   1      35.239  15.159   8.652  0.00  0.00     0.068 C 
HETATM   16  C   UNK N   1      35.766  13.972   9.487  0.00  0.00     0.225 C 
HETATM   17  C   UNK N   1      34.648  13.418  10.359  0.00  0.00     0.038 C 
HETATM   18  N   UNK N   1      36.803  14.442  10.408  0.00  0.00     0.093 N 
HETATM   19  C   UNK N   1      34.760  14.223  11.644  0.00  0.00     0.038 C 
HETATM   20  C   UNK N   1      35.989  15.102  11.429  0.00  0.00     0.225 C 
HETATM   21  C   UNK N   1      35.578  16.481  10.893  0.00  0.00     0.068 C 
HETATM   22  C   UNK N   1      37.508  13.299  10.997  0.00  0.00     0.310 C 
ENDBRANCH  13  14
ENDBRANCH   1  13
TORSDOF 3
ENDMDL
MODEL 9
REMARK VINA RESULT:      -6.2      6.458      9.809
REMARK  3 active torsions:
REMARK  status: ('A' for Active; 'I' for Inactive)
REMARK    1  A    between atoms: C_13  and  O_21 
REMARK    2  A    between atoms: C_17  and  C_15 
REMARK    3  A    between atoms: O_21  and  C_17 
ROOT
HETATM    1  C   UNK N   1      36.160  13.790  15.691  0.00  0.00     0.296 C 
HETATM    2  O   UNK N   1      37.135  14.494  15.509  0.00  0.00    -0.259 OA
ENDROOT
BRANCH   1   3
HETATM    3  C   UNK N   1      35.700  13.556  17.062  0.00  0.00     0.067 A 
HETATM    4  C   UNK N   1      35.466  14.486  18.067  0.00  0.00     0.107 A 
HETATM    5  N   UNK N   1      35.132  13.834  19.214  0.00  0.00    -0.364 N 
HETATM    6  C   UNK N   1      35.194  12.521  18.928  0.00  0.00     0.043 A 
HETATM    7  H   UNK N   1      34.894  14.241  20.078  0.00  0.00     0.165 HD
HETATM    8  C   UNK N   1      35.009  11.456  19.808  0.00  0.00     0.030 A 
HETATM    9  C   UNK N   1      35.532  12.317  17.625  0.00  0.00     0.008 A 
HETATM   10  C   UNK N   1      35.197  10.152  19.309  0.00  0.00     0.002 A 
HETATM   11  C   UNK N   1      35.558   9.945  17.958  0.00  0.00     0.001 A 
HETATM   12  C   UNK N   1      35.729  11.042  17.098  0.00  0.00     0.015 A 
ENDBRANCH   1   3
BRANCH   1  13
HETATM   13  O   UNK N   1      35.390  13.390  14.647  0.00  0.00    -0.312 OA
BRANCH  13  14
HETATM   14  C   UNK N   1      35.919  12.823  13.493  0.00  0.00     0.136 C 
HETATM   15  C   UNK N   1      34.868  12.636  12.370  0.00  0.00     0.068 C 
HETATM   16  C   UNK N   1      34.752  11.205  11.801  0.00  0.00     0.225 C 
HETATM   17  C   UNK N   1      33.952  10.333  12.759  0.00  0.00     0.038 C 
HETATM   18  N   UNK N   1      36.084  10.600  11.720  0.00  0.00     0.093 N 
HETATM   19  C   UNK N   1      35.005   9.756  13.689  0.00  0.00     0.038 C 
HETATM   20  C   UNK N   1      36.326  10.274  13.126  0.00  0.00     0.225 C 
HETATM   21  C   UNK N   1      36.751  11.561  13.847  0.00  0.00     0.068 C 
HETATM   22  C   UNK N   1      36.028   9.368  10.927  0.00  0.00     0.310 C 
ENDBRANCH  13  14
ENDBRANCH   1  13
TORSDOF 3
ENDMDL
