MODEL 1
REMARK VINA RESULT:      -8.1      0.000      0.000
REMARK  3 active torsions:
REMARK  status: ('A' for Active; 'I' for Inactive)
REMARK    1  A    between atoms: N_21  and  C_22 
REMARK    2  A    between atoms: C_22  and  C_23 
REMARK    3  A    between atoms: C_26  and  C_28 
ROOT
HETATM    1  C   UNK N   1      25.590  19.959   3.590  0.00  0.00     0.001 A 
HETATM    2  C   UNK N   1      26.735  20.505   4.207  0.00  0.00     0.002 A 
HETATM    3  C   UNK N   1      27.801  19.672   4.587  0.00  0.00     0.030 A 
HETATM    4  C   UNK N   1      27.675  18.302   4.362  0.00  0.00     0.045 A 
HETATM    5  C   UNK N   1      26.567  17.768   3.766  0.00  0.00    -0.006 A 
HETATM    6  C   UNK N   1      25.503  18.579   3.360  0.00  0.00     0.011 A 
HETATM    7  C   UNK N   1      26.672  16.263   3.713  0.00  0.00     0.122 A 
HETATM    8  C   UNK N   1      26.616  15.661   2.276  0.00  0.00     0.205 C 
HETATM    9  O   UNK N   1      25.380  15.033   2.184  0.00  0.00    -0.349 OA
HETATM   10  C   UNK N   1      24.697  15.141   3.324  0.00  0.00     0.079 A 
HETATM   11  C   UNK N   1      25.426  15.760   4.306  0.00  0.00     0.003 A 
HETATM   12  C   UNK N   1      24.855  16.131   5.535  0.00  0.00     0.051 A 
HETATM   13  C   UNK N   1      23.498  15.846   5.679  0.00  0.00     0.105 A 
HETATM   14  C   UNK N   1      22.780  15.234   4.715  0.00  0.00     0.107 A 
HETATM   15  C   UNK N   1      23.342  14.829   3.499  0.00  0.00     0.077 A 
HETATM   16  O   UNK N   1      21.508  15.167   5.099  0.00  0.00    -0.323 OA
HETATM   17  C   UNK N   1      21.392  15.774   6.356  0.00  0.00     0.352 A 
HETATM   18  O   UNK N   1      22.693  16.173   6.685  0.00  0.00    -0.323 OA
HETATM   19  C   UNK N   1      28.047  16.102   4.346  0.00  0.00     0.245 A 
HETATM   20  O   UNK N   1      28.651  15.046   4.433  0.00  0.00    -0.271 OA
HETATM   21  N   UNK N   1      28.592  17.300   4.660  0.00  0.00    -0.310 N 
ENDROOT
BRANCH  21  22
HETATM   22  C   UNK N   1      30.010  17.529   4.820  0.00  0.00     0.197 C 
BRANCH  22  23
HETATM   23  C   UNK N   1      30.240  17.461   6.302  0.00  0.00     0.072 A 
HETATM   24  C   UNK N   1      31.146  16.611   6.918  0.00  0.00     0.037 A 
HETATM   25  C   UNK N   1      30.845  16.653   8.264  0.00  0.00     0.045 A 
HETATM   26  C   UNK N   1      29.779  17.525   8.375  0.00  0.00     0.159 A 
HETATM   27  O   UNK N   1      29.440  17.985   7.194  0.00  0.00    -0.308 OA
BRANCH  26  28
HETATM   28  C   UNK N   1      29.061  17.842   9.642  0.00  0.00     0.439 C 
HETATM   29  F   UNK N   1      29.126  16.763  10.503  0.00  0.00    -0.164 F 
HETATM   30  F   UNK N   1      27.739  18.133   9.369  0.00  0.00    -0.164 F 
HETATM   31  F   UNK N   1      29.657  18.936  10.242  0.00  0.00    -0.164 F 
ENDBRANCH  26  28
ENDBRANCH  22  23
ENDBRANCH  21  22
TORSDOF 3
ENDMDL
MODEL 2
REMARK VINA RESULT:      -7.9      5.141      7.488
REMARK  3 active torsions:
REMARK  status: ('A' for Active; 'I' for Inactive)
REMARK    1  A    between atoms: N_21  and  C_22 
REMARK    2  A    between atoms: C_22  and  C_23 
REMARK    3  A    between atoms: C_26  and  C_28 
ROOT
HETATM    1  C   UNK N   1      22.646  14.566   1.663  0.00  0.00     0.001 A 
HETATM    2  C   UNK N   1      22.748  13.399   2.449  0.00  0.00     0.002 A 
HETATM    3  C   UNK N   1      22.161  13.350   3.725  0.00  0.00     0.030 A 
HETATM    4  C   UNK N   1      21.508  14.490   4.190  0.00  0.00     0.045 A 
HETATM    5  C   UNK N   1      21.408  15.623   3.434  0.00  0.00    -0.006 A 
HETATM    6  C   UNK N   1      21.966  15.689   2.154  0.00  0.00     0.011 A 
HETATM    7  C   UNK N   1      20.714  16.716   4.212  0.00  0.00     0.122 A 
HETATM    8  C   UNK N   1      19.409  17.253   3.550  0.00  0.00     0.205 C 
HETATM    9  O   UNK N   1      19.721  18.527   3.093  0.00  0.00    -0.349 OA
HETATM   10  C   UNK N   1      20.982  18.850   3.384  0.00  0.00     0.079 A 
HETATM   11  C   UNK N   1      21.603  17.882   4.130  0.00  0.00     0.003 A 
HETATM   12  C   UNK N   1      22.979  17.929   4.412  0.00  0.00     0.051 A 
HETATM   13  C   UNK N   1      23.669  19.010   3.868  0.00  0.00     0.105 A 
HETATM   14  C   UNK N   1      23.058  19.965   3.136  0.00  0.00     0.107 A 
HETATM   15  C   UNK N   1      21.684  19.950   2.873  0.00  0.00     0.077 A 
HETATM   16  O   UNK N   1      23.975  20.818   2.686  0.00  0.00    -0.323 OA
HETATM   17  C   UNK N   1      25.233  20.392   3.131  0.00  0.00     0.352 A 
HETATM   18  O   UNK N   1      24.977  19.246   3.892  0.00  0.00    -0.323 OA
HETATM   19  C   UNK N   1      20.429  15.945   5.493  0.00  0.00     0.245 A 
HETATM   20  O   UNK N   1      19.766  16.370   6.424  0.00  0.00    -0.271 OA
HETATM   21  N   UNK N   1      20.867  14.667   5.412  0.00  0.00    -0.310 N 
ENDROOT
BRANCH  21  22
HETATM   22  C   UNK N   1      20.354  13.582   6.217  0.00  0.00     0.197 C 
BRANCH  22  23
HETATM   23  C   UNK N   1      21.261  13.538   7.413  0.00  0.00     0.072 A 
HETATM   24  C   UNK N   1      22.587  13.944   7.409  0.00  0.00     0.037 A 
HETATM   25  C   UNK N   1      23.125  13.480   8.592  0.00  0.00     0.045 A 
HETATM   26  C   UNK N   1      22.092  12.824   9.233  0.00  0.00     0.159 A 
HETATM   27  O   UNK N   1      21.000  12.873   8.508  0.00  0.00    -0.308 OA
BRANCH  26  28
HETATM   28  C   UNK N   1      22.213  12.098  10.528  0.00  0.00     0.439 C 
HETATM   29  F   UNK N   1      22.769  10.850  10.318  0.00  0.00    -0.164 F 
HETATM   30  F   UNK N   1      20.965  11.954  11.102  0.00  0.00    -0.164 F 
HETATM   31  F   UNK N   1      23.029  12.818  11.381  0.00  0.00    -0.164 F 
ENDBRANCH  26  28
ENDBRANCH  22  23
ENDBRANCH  21  22
TORSDOF 3
ENDMDL
MODEL 3
REMARK VINA RESULT:      -7.8     12.707     15.174
REMARK  3 active torsions:
REMARK  status: ('A' for Active; 'I' for Inactive)
REMARK    1  A    between atoms: N_21  and  C_22 
REMARK    2  A    between atoms: C_22  and  C_23 
REMARK    3  A    between atoms: C_26  and  C_28 
ROOT
HETATM    1  C   UNK N   1      28.187  28.440  -7.778  0.00  0.00     0.001 A 
HETATM    2  C   UNK N   1      28.255  27.239  -8.514  0.00  0.00     0.002 A 
HETATM    3  C   UNK N   1      27.839  26.027  -7.936  0.00  0.00     0.030 A 
HETATM    4  C   UNK N   1      27.391  26.051  -6.616  0.00  0.00     0.045 A 
HETATM    5  C   UNK N   1      27.324  27.212  -5.898  0.00  0.00    -0.006 A 
HETATM    6  C   UNK N   1      27.713  28.432  -6.459  0.00  0.00     0.011 A 
HETATM    7  C   UNK N   1      26.872  26.931  -4.485  0.00  0.00     0.122 A 
HETATM    8  C   UNK N   1      25.562  27.666  -4.068  0.00  0.00     0.205 C 
HETATM    9  O   UNK N   1      25.958  28.646  -3.166  0.00  0.00    -0.349 OA
HETATM   10  C   UNK N   1      27.274  28.610  -2.959  0.00  0.00     0.079 A 
HETATM   11  C   UNK N   1      27.872  27.566  -3.617  0.00  0.00     0.003 A 
HETATM   12  C   UNK N   1      29.269  27.428  -3.681  0.00  0.00     0.051 A 
HETATM   13  C   UNK N   1      30.003  28.431  -3.049  0.00  0.00     0.105 A 
HETATM   14  C   UNK N   1      29.416  29.457  -2.398  0.00  0.00     0.107 A 
HETATM   15  C   UNK N   1      28.026  29.591  -2.298  0.00  0.00     0.077 A 
HETATM   16  O   UNK N   1      30.359  30.292  -1.968  0.00  0.00    -0.323 OA
HETATM   17  C   UNK N   1      31.606  29.796  -2.368  0.00  0.00     0.352 A 
HETATM   18  O   UNK N   1      31.320  28.601  -3.039  0.00  0.00    -0.323 OA
HETATM   19  C   UNK N   1      26.671  25.426  -4.599  0.00  0.00     0.245 A 
HETATM   20  O   UNK N   1      26.190  24.723  -3.726  0.00  0.00    -0.271 OA
HETATM   21  N   UNK N   1      26.942  24.982  -5.848  0.00  0.00    -0.310 N 
ENDROOT
BRANCH  21  22
HETATM   22  C   UNK N   1      26.417  23.756  -6.405  0.00  0.00     0.197 C 
BRANCH  22  23
HETATM   23  C   UNK N   1      27.627  22.899  -6.639  0.00  0.00     0.072 A 
HETATM   24  C   UNK N   1      27.772  22.018  -7.701  0.00  0.00     0.037 A 
HETATM   25  C   UNK N   1      28.868  21.238  -7.394  0.00  0.00     0.045 A 
HETATM   26  C   UNK N   1      29.313  21.695  -6.169  0.00  0.00     0.159 A 
HETATM   27  O   UNK N   1      28.555  22.678  -5.745  0.00  0.00    -0.308 OA
BRANCH  26  28
HETATM   28  C   UNK N   1      30.445  21.110  -5.397  0.00  0.00     0.439 C 
HETATM   29  F   UNK N   1      30.802  19.889  -5.937  0.00  0.00    -0.164 F 
HETATM   30  F   UNK N   1      30.072  20.938  -4.078  0.00  0.00    -0.164 F 
HETATM   31  F   UNK N   1      31.530  21.966  -5.459  0.00  0.00    -0.164 F 
ENDBRANCH  26  28
ENDBRANCH  22  23
ENDBRANCH  21  22
TORSDOF 3
ENDMDL
MODEL 4
REMARK VINA RESULT:      -7.7      3.242      5.502
REMARK  3 active torsions:
REMARK  status: ('A' for Active; 'I' for Inactive)
REMARK    1  A    between atoms: N_21  and  C_22 
REMARK    2  A    between atoms: C_22  and  C_23 
REMARK    3  A    between atoms: C_26  and  C_28 
ROOT
HETATM    1  C   UNK N   1      20.254  15.306   3.396  0.00  0.00     0.001 A 
HETATM    2  C   UNK N   1      21.046  16.108   2.548  0.00  0.00     0.002 A 
HETATM    3  C   UNK N   1      22.355  16.457   2.920  0.00  0.00     0.030 A 
HETATM    4  C   UNK N   1      22.826  16.012   4.154  0.00  0.00     0.045 A 
HETATM    5  C   UNK N   1      22.063  15.236   4.980  0.00  0.00    -0.006 A 
HETATM    6  C   UNK N   1      20.765  14.858   4.622  0.00  0.00     0.011 A 
HETATM    7  C   UNK N   1      22.796  14.962   6.271  0.00  0.00     0.122 A 
HETATM    8  C   UNK N   1      23.034  13.451   6.572  0.00  0.00     0.205 C 
HETATM    9  O   UNK N   1      22.182  13.144   7.626  0.00  0.00    -0.349 OA
HETATM   10  C   UNK N   1      21.491  14.215   8.017  0.00  0.00     0.079 A 
HETATM   11  C   UNK N   1      21.867  15.347   7.341  0.00  0.00     0.003 A 
HETATM   12  C   UNK N   1      21.164  16.557   7.468  0.00  0.00     0.051 A 
HETATM   13  C   UNK N   1      20.052  16.523   8.309  0.00  0.00     0.105 A 
HETATM   14  C   UNK N   1      19.683  15.410   8.977  0.00  0.00     0.107 A 
HETATM   15  C   UNK N   1      20.392  14.206   8.887  0.00  0.00     0.077 A 
HETATM   16  O   UNK N   1      18.551  15.654   9.631  0.00  0.00    -0.323 OA
HETATM   17  C   UNK N   1      18.160  16.972   9.364  0.00  0.00     0.352 A 
HETATM   18  O   UNK N   1      19.162  17.483   8.531  0.00  0.00    -0.323 OA
HETATM   19  C   UNK N   1      24.095  15.694   5.962  0.00  0.00     0.245 A 
HETATM   20  O   UNK N   1      25.087  15.675   6.672  0.00  0.00    -0.271 OA
HETATM   21  N   UNK N   1      24.074  16.240   4.724  0.00  0.00    -0.310 N 
ENDROOT
BRANCH  21  22
HETATM   22  C   UNK N   1      25.258  16.571   3.964  0.00  0.00     0.197 C 
BRANCH  22  23
HETATM   23  C   UNK N   1      25.492  18.027   4.243  0.00  0.00     0.072 A 
HETATM   24  C   UNK N   1      25.452  19.028   3.283  0.00  0.00     0.037 A 
HETATM   25  C   UNK N   1      25.993  20.146   3.882  0.00  0.00     0.045 A 
HETATM   26  C   UNK N   1      26.327  19.750   5.163  0.00  0.00     0.159 A 
HETATM   27  O   UNK N   1      26.021  18.488   5.346  0.00  0.00    -0.308 OA
BRANCH  26  28
HETATM   28  C   UNK N   1      27.008  20.608   6.174  0.00  0.00     0.439 C 
HETATM   29  F   UNK N   1      26.107  21.509   6.711  0.00  0.00    -0.164 F 
HETATM   30  F   UNK N   1      28.046  21.297   5.579  0.00  0.00    -0.164 F 
HETATM   31  F   UNK N   1      27.508  19.810   7.187  0.00  0.00    -0.164 F 
ENDBRANCH  26  28
ENDBRANCH  22  23
ENDBRANCH  21  22
TORSDOF 3
ENDMDL
MODEL 5
REMARK VINA RESULT:      -7.7      5.880      8.618
REMARK  3 active torsions:
REMARK  status: ('A' for Active; 'I' for Inactive)
REMARK    1  A    between atoms: N_21  and  C_22 
REMARK    2  A    between atoms: C_22  and  C_23 
REMARK    3  A    between atoms: C_26  and  C_28 
ROOT
HETATM    1  C   UNK N   1      24.089  15.537   5.392  0.00  0.00     0.001 A 
HETATM    2  C   UNK N   1      24.141  15.098   4.053  0.00  0.00     0.002 A 
HETATM    3  C   UNK N   1      23.002  14.544   3.443  0.00  0.00     0.030 A 
HETATM    4  C   UNK N   1      21.844  14.419   4.209  0.00  0.00     0.045 A 
HETATM    5  C   UNK N   1      21.789  14.841   5.507  0.00  0.00    -0.006 A 
HETATM    6  C   UNK N   1      22.902  15.415   6.128  0.00  0.00     0.011 A 
HETATM    7  C   UNK N   1      20.441  14.520   6.107  0.00  0.00     0.122 A 
HETATM    8  C   UNK N   1      19.652  15.761   6.626  0.00  0.00     0.205 C 
HETATM    9  O   UNK N   1      19.684  15.669   8.012  0.00  0.00    -0.349 OA
HETATM   10  C   UNK N   1      20.339  14.578   8.409  0.00  0.00     0.079 A 
HETATM   11  C   UNK N   1      20.728  13.796   7.353  0.00  0.00     0.003 A 
HETATM   12  C   UNK N   1      21.574  12.687   7.520  0.00  0.00     0.051 A 
HETATM   13  C   UNK N   1      22.005  12.448   8.824  0.00  0.00     0.105 A 
HETATM   14  C   UNK N   1      21.621  13.216   9.865  0.00  0.00     0.107 A 
HETATM   15  C   UNK N   1      20.753  14.304   9.720  0.00  0.00     0.077 A 
HETATM   16  O   UNK N   1      22.249  12.801  10.962  0.00  0.00    -0.323 OA
HETATM   17  C   UNK N   1      23.086  11.733  10.618  0.00  0.00     0.352 A 
HETATM   18  O   UNK N   1      22.878  11.540   9.247  0.00  0.00    -0.323 OA
HETATM   19  C   UNK N   1      19.784  13.895   4.886  0.00  0.00     0.245 A 
HETATM   20  O   UNK N   1      18.613  13.560   4.824  0.00  0.00    -0.271 OA
HETATM   21  N   UNK N   1      20.615  13.899   3.818  0.00  0.00    -0.310 N 
ENDROOT
BRANCH  21  22
HETATM   22  C   UNK N   1      20.170  13.830   2.444  0.00  0.00     0.197 C 
BRANCH  22  23
HETATM   23  C   UNK N   1      19.992  15.263   2.032  0.00  0.00     0.072 A 
HETATM   24  C   UNK N   1      20.176  15.737   0.741  0.00  0.00     0.037 A 
HETATM   25  C   UNK N   1      20.198  17.113   0.847  0.00  0.00     0.045 A 
HETATM   26  C   UNK N   1      20.028  17.381   2.191  0.00  0.00     0.159 A 
HETATM   27  O   UNK N   1      19.912  16.264   2.869  0.00  0.00    -0.308 OA
BRANCH  26  28
HETATM   28  C   UNK N   1      20.049  18.740   2.802  0.00  0.00     0.439 C 
HETATM   29  F   UNK N   1      20.464  18.658   4.118  0.00  0.00    -0.164 F 
HETATM   30  F   UNK N   1      18.784  19.294   2.753  0.00  0.00    -0.164 F 
HETATM   31  F   UNK N   1      20.928  19.543   2.099  0.00  0.00    -0.164 F 
ENDBRANCH  26  28
ENDBRANCH  22  23
ENDBRANCH  21  22
TORSDOF 3
ENDMDL
MODEL 6
REMARK VINA RESULT:      -7.7      5.348      6.841
REMARK  3 active torsions:
REMARK  status: ('A' for Active; 'I' for Inactive)
REMARK    1  A    between atoms: N_21  and  C_22 
REMARK    2  A    between atoms: C_22  and  C_23 
REMARK    3  A    between atoms: C_26  and  C_28 
ROOT
HETATM    1  C   UNK N   1      29.326  17.632   7.259  0.00  0.00     0.001 A 
HETATM    2  C   UNK N   1      29.911  17.872   8.520  0.00  0.00     0.002 A 
HETATM    3  C   UNK N   1      31.300  17.752   8.691  0.00  0.00     0.030 A 
HETATM    4  C   UNK N   1      32.065  17.364   7.592  0.00  0.00     0.045 A 
HETATM    5  C   UNK N   1      31.503  17.129   6.369  0.00  0.00    -0.006 A 
HETATM    6  C   UNK N   1      30.126  17.263   6.169  0.00  0.00     0.011 A 
HETATM    7  C   UNK N   1      32.552  16.660   5.390  0.00  0.00     0.122 A 
HETATM    8  C   UNK N   1      32.710  17.563   4.129  0.00  0.00     0.205 C 
HETATM    9  O   UNK N   1      32.179  16.829   3.076  0.00  0.00    -0.349 OA
HETATM   10  C   UNK N   1      31.748  15.636   3.487  0.00  0.00     0.079 A 
HETATM   11  C   UNK N   1      32.023  15.417   4.813  0.00  0.00     0.003 A 
HETATM   12  C   UNK N   1      31.517  14.302   5.503  0.00  0.00     0.051 A 
HETATM   13  C   UNK N   1      30.704  13.449   4.757  0.00  0.00     0.105 A 
HETATM   14  C   UNK N   1      30.436  13.663   3.452  0.00  0.00     0.107 A 
HETATM   15  C   UNK N   1      30.959  14.750   2.742  0.00  0.00     0.077 A 
HETATM   16  O   UNK N   1      29.577  12.738   3.031  0.00  0.00    -0.323 OA
HETATM   17  C   UNK N   1      29.263  11.900   4.109  0.00  0.00     0.352 A 
HETATM   18  O   UNK N   1      30.022  12.390   5.178  0.00  0.00    -0.323 OA
HETATM   19  C   UNK N   1      33.769  16.729   6.299  0.00  0.00     0.245 A 
HETATM   20  O   UNK N   1      34.919  16.547   5.934  0.00  0.00    -0.271 OA
HETATM   21  N   UNK N   1      33.442  17.177   7.534  0.00  0.00    -0.310 N 
ENDROOT
BRANCH  21  22
HETATM   22  C   UNK N   1      34.377  17.793   8.448  0.00  0.00     0.197 C 
BRANCH  22  23
HETATM   23  C   UNK N   1      34.641  16.740   9.485  0.00  0.00     0.072 A 
HETATM   24  C   UNK N   1      35.343  16.956  10.662  0.00  0.00     0.037 A 
HETATM   25  C   UNK N   1      35.603  15.703  11.178  0.00  0.00     0.045 A 
HETATM   26  C   UNK N   1      35.044  14.813  10.282  0.00  0.00     0.159 A 
HETATM   27  O   UNK N   1      34.484  15.457   9.287  0.00  0.00    -0.308 OA
BRANCH  26  28
HETATM   28  C   UNK N   1      35.129  13.329  10.385  0.00  0.00     0.439 C 
HETATM   29  F   UNK N   1      36.439  12.919  10.221  0.00  0.00    -0.164 F 
HETATM   30  F   UNK N   1      34.341  12.747   9.411  0.00  0.00    -0.164 F 
HETATM   31  F   UNK N   1      34.683  12.931  11.632  0.00  0.00    -0.164 F 
ENDBRANCH  26  28
ENDBRANCH  22  23
ENDBRANCH  21  22
TORSDOF 3
ENDMDL
MODEL 7
REMARK VINA RESULT:      -7.6      4.063      7.590
REMARK  3 active torsions:
REMARK  status: ('A' for Active; 'I' for Inactive)
REMARK    1  A    between atoms: N_21  and  C_22 
REMARK    2  A    between atoms: C_22  and  C_23 
REMARK    3  A    between atoms: C_26  and  C_28 
ROOT
HETATM    1  C   UNK N   1      27.666  20.618   5.167  0.00  0.00     0.001 A 
HETATM    2  C   UNK N   1      26.587  20.384   4.290  0.00  0.00     0.002 A 
HETATM    3  C   UNK N   1      25.933  19.139   4.287  0.00  0.00     0.030 A 
HETATM    4  C   UNK N   1      26.403  18.150   5.149  0.00  0.00     0.045 A 
HETATM    5  C   UNK N   1      27.449  18.372   6.000  0.00  0.00    -0.006 A 
HETATM    6  C   UNK N   1      28.101  19.608   6.036  0.00  0.00     0.011 A 
HETATM    7  C   UNK N   1      27.784  17.111   6.761  0.00  0.00     0.122 A 
HETATM    8  C   UNK N   1      27.681  17.245   8.310  0.00  0.00     0.205 C 
HETATM    9  O   UNK N   1      28.991  17.222   8.773  0.00  0.00    -0.349 OA
HETATM   10  C   UNK N   1      29.856  17.080   7.769  0.00  0.00     0.079 A 
HETATM   11  C   UNK N   1      29.225  16.905   6.564  0.00  0.00     0.003 A 
HETATM   12  C   UNK N   1      29.929  16.901   5.349  0.00  0.00     0.051 A 
HETATM   13  C   UNK N   1      31.305  17.105   5.448  0.00  0.00     0.105 A 
HETATM   14  C   UNK N   1      31.928  17.275   6.633  0.00  0.00     0.107 A 
HETATM   15  C   UNK N   1      31.245  17.249   7.855  0.00  0.00     0.077 A 
HETATM   16  O   UNK N   1      33.215  17.527   6.412  0.00  0.00    -0.323 OA
HETATM   17  C   UNK N   1      33.435  17.537   5.029  0.00  0.00     0.352 A 
HETATM   18  O   UNK N   1      32.187  17.246   4.465  0.00  0.00    -0.323 OA
HETATM   19  C   UNK N   1      26.705  16.201   6.193  0.00  0.00     0.245 A 
HETATM   20  O   UNK N   1      26.477  15.068   6.584  0.00  0.00    -0.271 OA
HETATM   21  N   UNK N   1      25.918  16.856   5.308  0.00  0.00    -0.310 N 
ENDROOT
BRANCH  21  22
HETATM   22  C   UNK N   1      24.573  16.453   4.965  0.00  0.00     0.197 C 
BRANCH  22  23
HETATM   23  C   UNK N   1      24.727  15.663   3.698  0.00  0.00     0.072 A 
HETATM   24  C   UNK N   1      25.821  15.744   2.849  0.00  0.00     0.037 A 
HETATM   25  C   UNK N   1      25.446  15.096   1.690  0.00  0.00     0.045 A 
HETATM   26  C   UNK N   1      24.152  14.666   1.912  0.00  0.00     0.159 A 
HETATM   27  O   UNK N   1      23.752  15.020   3.110  0.00  0.00    -0.308 OA
BRANCH  26  28
HETATM   28  C   UNK N   1      23.299  13.967   0.910  0.00  0.00     0.439 C 
HETATM   29  F   UNK N   1      23.981  13.846  -0.287  0.00  0.00    -0.164 F 
HETATM   30  F   UNK N   1      22.136  14.683   0.705  0.00  0.00    -0.164 F 
HETATM   31  F   UNK N   1      22.983  12.705   1.380  0.00  0.00    -0.164 F 
ENDBRANCH  26  28
ENDBRANCH  22  23
ENDBRANCH  21  22
TORSDOF 3
ENDMDL
MODEL 8
REMARK VINA RESULT:      -7.6      9.079     12.465
REMARK  3 active torsions:
REMARK  status: ('A' for Active; 'I' for Inactive)
REMARK    1  A    between atoms: N_21  and  C_22 
REMARK    2  A    between atoms: C_22  and  C_23 
REMARK    3  A    between atoms: C_26  and  C_28 
ROOT
HETATM    1  C   UNK N   1      38.615  11.621   9.707  0.00  0.00     0.001 A 
HETATM    2  C   UNK N   1      38.475  12.934   9.211  0.00  0.00     0.002 A 
HETATM    3  C   UNK N   1      37.659  13.862   9.882  0.00  0.00     0.030 A 
HETATM    4  C   UNK N   1      36.981  13.434  11.022  0.00  0.00     0.045 A 
HETATM    5  C   UNK N   1      37.112  12.163  11.505  0.00  0.00    -0.006 A 
HETATM    6  C   UNK N   1      37.934  11.228  10.867  0.00  0.00     0.011 A 
HETATM    7  C   UNK N   1      36.214  11.959  12.701  0.00  0.00     0.122 A 
HETATM    8  C   UNK N   1      36.961  11.557  14.009  0.00  0.00     0.205 C 
HETATM    9  O   UNK N   1      36.639  10.223  14.227  0.00  0.00    -0.349 OA
HETATM   10  C   UNK N   1      35.815   9.765  13.284  0.00  0.00     0.079 A 
HETATM   11  C   UNK N   1      35.435  10.749  12.408  0.00  0.00     0.003 A 
HETATM   12  C   UNK N   1      34.706  10.465  11.241  0.00  0.00     0.051 A 
HETATM   13  C   UNK N   1      34.413   9.119  11.026  0.00  0.00     0.105 A 
HETATM   14  C   UNK N   1      34.784   8.150  11.889  0.00  0.00     0.107 A 
HETATM   15  C   UNK N   1      35.482   8.420  13.071  0.00  0.00     0.077 A 
HETATM   16  O   UNK N   1      34.440   6.968  11.385  0.00  0.00    -0.323 OA
HETATM   17  C   UNK N   1      33.837   7.175  10.139  0.00  0.00     0.352 A 
HETATM   18  O   UNK N   1      33.831   8.565   9.968  0.00  0.00    -0.323 OA
HETATM   19  C   UNK N   1      35.620  13.358  12.789  0.00  0.00     0.245 A 
HETATM   20  O   UNK N   1      34.894  13.747  13.688  0.00  0.00    -0.271 OA
HETATM   21  N   UNK N   1      36.123  14.171  11.832  0.00  0.00    -0.310 N 
ENDROOT
BRANCH  21  22
HETATM   22  C   UNK N   1      36.143  15.614  11.921  0.00  0.00     0.197 C 
BRANCH  22  23
HETATM   23  C   UNK N   1      35.164  16.071  10.879  0.00  0.00     0.072 A 
HETATM   24  C   UNK N   1      34.182  15.267  10.318  0.00  0.00     0.037 A 
HETATM   25  C   UNK N   1      33.703  15.965   9.228  0.00  0.00     0.045 A 
HETATM   26  C   UNK N   1      34.425  17.143   9.201  0.00  0.00     0.159 A 
HETATM   27  O   UNK N   1      35.285  17.175  10.190  0.00  0.00    -0.308 OA
BRANCH  26  28
HETATM   28  C   UNK N   1      34.303  18.197   8.154  0.00  0.00     0.439 C 
HETATM   29  F   UNK N   1      33.057  18.791   8.227  0.00  0.00    -0.164 F 
HETATM   30  F   UNK N   1      34.472  17.635   6.904  0.00  0.00    -0.164 F 
HETATM   31  F   UNK N   1      35.276  19.158   8.360  0.00  0.00    -0.164 F 
ENDBRANCH  26  28
ENDBRANCH  22  23
ENDBRANCH  21  22
TORSDOF 3
ENDMDL
MODEL 9
REMARK VINA RESULT:      -7.6      7.718     12.179
REMARK  3 active torsions:
REMARK  status: ('A' for Active; 'I' for Inactive)
REMARK    1  A    between atoms: N_21  and  C_22 
REMARK    2  A    between atoms: C_22  and  C_23 
REMARK    3  A    between atoms: C_26  and  C_28 
ROOT
HETATM    1  C   UNK N   1      33.451   9.488  11.249  0.00  0.00     0.001 A 
HETATM    2  C   UNK N   1      32.695   9.962  10.158  0.00  0.00     0.002 A 
HETATM    3  C   UNK N   1      33.156  11.048   9.393  0.00  0.00     0.030 A 
HETATM    4  C   UNK N   1      34.357  11.649   9.766  0.00  0.00     0.045 A 
HETATM    5  C   UNK N   1      35.093  11.194  10.824  0.00  0.00    -0.006 A 
HETATM    6  C   UNK N   1      34.665  10.103  11.586  0.00  0.00     0.011 A 
HETATM    7  C   UNK N   1      36.302  12.072  11.039  0.00  0.00     0.122 A 
HETATM    8  C   UNK N   1      37.668  11.327  10.941  0.00  0.00     0.205 C 
HETATM    9  O   UNK N   1      38.155  11.271  12.241  0.00  0.00    -0.349 OA
HETATM   10  C   UNK N   1      37.324  11.871  13.095  0.00  0.00     0.079 A 
HETATM   11  C   UNK N   1      36.262  12.457  12.456  0.00  0.00     0.003 A 
HETATM   12  C   UNK N   1      35.176  13.001  13.163  0.00  0.00     0.051 A 
HETATM   13  C   UNK N   1      35.243  12.886  14.551  0.00  0.00     0.105 A 
HETATM   14  C   UNK N   1      36.289  12.312  15.181  0.00  0.00     0.107 A 
HETATM   15  C   UNK N   1      37.393  11.795  14.493  0.00  0.00     0.077 A 
HETATM   16  O   UNK N   1      36.039  12.275  16.487  0.00  0.00    -0.323 OA
HETATM   17  C   UNK N   1      34.775  12.832  16.713  0.00  0.00     0.352 A 
HETATM   18  O   UNK N   1      34.320  13.220  15.447  0.00  0.00    -0.323 OA
HETATM   19  C   UNK N   1      36.096  13.041   9.884  0.00  0.00     0.245 A 
HETATM   20  O   UNK N   1      36.892  13.904   9.552  0.00  0.00    -0.271 OA
HETATM   21  N   UNK N   1      34.993  12.729   9.165  0.00  0.00    -0.310 N 
ENDROOT
BRANCH  21  22
HETATM   22  C   UNK N   1      34.783  13.124   7.790  0.00  0.00     0.197 C 
BRANCH  22  23
HETATM   23  C   UNK N   1      33.964  14.379   7.878  0.00  0.00     0.072 A 
HETATM   24  C   UNK N   1      32.580  14.421   7.797  0.00  0.00     0.037 A 
HETATM   25  C   UNK N   1      32.254  15.752   7.634  0.00  0.00     0.045 A 
HETATM   26  C   UNK N   1      33.459  16.427   7.627  0.00  0.00     0.159 A 
HETATM   27  O   UNK N   1      34.455  15.586   7.771  0.00  0.00    -0.308 OA
BRANCH  26  28
HETATM   28  C   UNK N   1      33.618  17.893   7.411  0.00  0.00     0.439 C 
HETATM   29  F   UNK N   1      32.677  18.583   8.153  0.00  0.00    -0.164 F 
HETATM   30  F   UNK N   1      33.453  18.188   6.072  0.00  0.00    -0.164 F 
HETATM   31  F   UNK N   1      34.883  18.279   7.814  0.00  0.00    -0.164 F 
ENDBRANCH  26  28
ENDBRANCH  22  23
ENDBRANCH  21  22
TORSDOF 3
ENDMDL
