MODEL 1
REMARK VINA RESULT:      -7.7      0.000      0.000
REMARK  6 active torsions:
REMARK  status: ('A' for Active; 'I' for Inactive)
REMARK    1  A    between atoms: C_7  and  C_8 
REMARK    2  A    between atoms: C_8  and  C_9 
REMARK    3  A    between atoms: C_9  and  C_10 
REMARK    4  A    between atoms: C_15  and  N_16 
REMARK       I    between atoms: N_16  and  C_17 
REMARK    5  A    between atoms: C_17  and  C_19 
REMARK    6  A    between atoms: C_20  and  C_21 
ROOT
HETATM    1  C   UNK N   1      26.334  25.809  -5.537  0.00  0.00    -0.031 A 
HETATM    2  C   UNK N   1      25.287  26.680  -5.858  0.00  0.00     0.009 A 
HETATM    3  C   UNK N   1      24.949  27.721  -4.988  0.00  0.00     0.001 A 
HETATM    4  C   UNK N   1      25.660  27.898  -3.798  0.00  0.00     0.002 A 
HETATM    5  C   UNK N   1      26.707  27.030  -3.471  0.00  0.00     0.030 A 
HETATM    6  C   UNK N   1      27.051  25.982  -4.340  0.00  0.00     0.041 A 
ENDROOT
BRANCH   6   7
HETATM    7  N   UNK N   1      28.091  25.060  -4.040  0.00  0.00    -0.323 N 
HETATM    8  C   UNK N   1      28.061  24.007  -3.188  0.00  0.00     0.245 C 
HETATM    9  O   UNK N   1      27.083  23.764  -2.499  0.00  0.00    -0.268 OA
HETATM   10  H   UNK N   1      28.943  25.206  -4.512  0.00  0.00     0.169 HD
BRANCH   8  11
HETATM   11  C   UNK N   1      29.259  23.161  -3.138  0.00  0.00     0.075 C 
HETATM   12  C   UNK N   1      29.741  22.446  -4.155  0.00  0.00     0.017 C 
BRANCH  12  13
HETATM   13  C   UNK N   1      30.987  21.675  -3.977  0.00  0.00    -0.036 A 
HETATM   14  C   UNK N   1      31.297  20.638  -4.862  0.00  0.00     0.011 A 
HETATM   15  C   UNK N   1      32.482  19.910  -4.703  0.00  0.00     0.001 A 
HETATM   16  C   UNK N   1      33.363  20.218  -3.660  0.00  0.00     0.000 A 
HETATM   17  C   UNK N   1      33.060  21.253  -2.774  0.00  0.00     0.001 A 
HETATM   18  C   UNK N   1      31.878  21.977  -2.929  0.00  0.00     0.011 A 
ENDBRANCH  12  13
ENDBRANCH   8  11
ENDBRANCH   6   7
BRANCH   1  19
HETATM   19  C   UNK N   1      26.736  24.725  -6.489  0.00  0.00     0.043 C 
BRANCH  19  20
HETATM   20  C   UNK N   1      26.038  24.811  -7.836  0.00  0.00     0.040 C 
BRANCH  20  21
HETATM   21  C   UNK N   1      25.505  23.424  -8.196  0.00  0.00     0.223 C 
HETATM   22  C   UNK N   1      25.348  22.619  -6.907  0.00  0.00     0.036 C 
HETATM   23  C   UNK N   1      24.757  21.251  -7.223  0.00  0.00     0.004 C 
HETATM   24  C   UNK N   1      25.632  20.537  -8.243  0.00  0.00     0.030 C 
HETATM   25  C   UNK N   1      25.786  21.415  -9.479  0.00  0.00     0.272 C 
HETATM   26  N   UNK N   1      26.392  22.703  -9.131  0.00  0.00     0.088 N 
HETATM   27  C   UNK N   1      26.500  23.432 -10.387  0.00  0.00     0.310 C 
ENDBRANCH  20  21
ENDBRANCH  19  20
ENDBRANCH   1  19
TORSDOF 6
ENDMDL
MODEL 2
REMARK VINA RESULT:      -7.3     20.116     24.447
REMARK  6 active torsions:
REMARK  status: ('A' for Active; 'I' for Inactive)
REMARK    1  A    between atoms: C_7  and  C_8 
REMARK    2  A    between atoms: C_8  and  C_9 
REMARK    3  A    between atoms: C_9  and  C_10 
REMARK    4  A    between atoms: C_15  and  N_16 
REMARK       I    between atoms: N_16  and  C_17 
REMARK    5  A    between atoms: C_17  and  C_19 
REMARK    6  A    between atoms: C_20  and  C_21 
ROOT
HETATM    1  C   UNK N   1      35.872  11.380  17.142  0.00  0.00    -0.031 A 
HETATM    2  C   UNK N   1      35.851  10.833  18.431  0.00  0.00     0.009 A 
HETATM    3  C   UNK N   1      35.456  11.617  19.518  0.00  0.00     0.001 A 
HETATM    4  C   UNK N   1      35.075  12.947  19.322  0.00  0.00     0.002 A 
HETATM    5  C   UNK N   1      35.095  13.500  18.037  0.00  0.00     0.030 A 
HETATM    6  C   UNK N   1      35.491  12.718  16.940  0.00  0.00     0.041 A 
ENDROOT
BRANCH   6   7
HETATM    7  N   UNK N   1      35.552  13.242  15.619  0.00  0.00    -0.323 N 
HETATM    8  C   UNK N   1      36.511  14.024  15.068  0.00  0.00     0.245 C 
HETATM    9  O   UNK N   1      37.459  14.435  15.718  0.00  0.00    -0.268 OA
HETATM   10  H   UNK N   1      34.799  13.005  15.030  0.00  0.00     0.169 HD
BRANCH   8  11
HETATM   11  C   UNK N   1      36.363  14.349  13.644  0.00  0.00     0.075 C 
HETATM   12  C   UNK N   1      35.448  13.828  12.826  0.00  0.00     0.017 C 
BRANCH  12  13
HETATM   13  C   UNK N   1      35.383  14.283  11.423  0.00  0.00    -0.036 A 
HETATM   14  C   UNK N   1      35.796  13.430  10.395  0.00  0.00     0.011 A 
HETATM   15  C   UNK N   1      35.728  13.851   9.062  0.00  0.00     0.001 A 
HETATM   16  C   UNK N   1      35.243  15.127   8.752  0.00  0.00     0.000 A 
HETATM   17  C   UNK N   1      34.827  15.983   9.773  0.00  0.00     0.001 A 
HETATM   18  C   UNK N   1      34.898  15.565  11.102  0.00  0.00     0.011 A 
ENDBRANCH  12  13
ENDBRANCH   8  11
ENDBRANCH   6   7
BRANCH   1  19
HETATM   19  C   UNK N   1      36.243  10.531  15.965  0.00  0.00     0.043 C 
BRANCH  19  20
HETATM   20  C   UNK N   1      35.098   9.678  15.448  0.00  0.00     0.040 C 
BRANCH  20  21
HETATM   21  C   UNK N   1      35.152   9.666  13.920  0.00  0.00     0.223 C 
HETATM   22  C   UNK N   1      33.918  10.396  13.390  0.00  0.00     0.036 C 
HETATM   23  C   UNK N   1      33.972  10.459  11.869  0.00  0.00     0.004 C 
HETATM   24  C   UNK N   1      34.097   9.053  11.300  0.00  0.00     0.030 C 
HETATM   25  C   UNK N   1      35.317   8.369  11.908  0.00  0.00     0.272 C 
HETATM   26  N   UNK N   1      35.201   8.298  13.366  0.00  0.00     0.088 N 
HETATM   27  C   UNK N   1      36.406   7.615  13.818  0.00  0.00     0.310 C 
ENDBRANCH  20  21
ENDBRANCH  19  20
ENDBRANCH   1  19
TORSDOF 6
ENDMDL
MODEL 3
REMARK VINA RESULT:      -7.2     13.436     14.696
REMARK  6 active torsions:
REMARK  status: ('A' for Active; 'I' for Inactive)
REMARK    1  A    between atoms: C_7  and  C_8 
REMARK    2  A    between atoms: C_8  and  C_9 
REMARK    3  A    between atoms: C_9  and  C_10 
REMARK    4  A    between atoms: C_15  and  N_16 
REMARK       I    between atoms: N_16  and  C_17 
REMARK    5  A    between atoms: C_17  and  C_19 
REMARK    6  A    between atoms: C_20  and  C_21 
ROOT
HETATM    1  C   UNK N   1      22.942  19.152   3.946  0.00  0.00    -0.031 A 
HETATM    2  C   UNK N   1      23.278  20.162   3.037  0.00  0.00     0.009 A 
HETATM    3  C   UNK N   1      24.620  20.482   2.809  0.00  0.00     0.001 A 
HETATM    4  C   UNK N   1      25.629  19.790   3.484  0.00  0.00     0.002 A 
HETATM    5  C   UNK N   1      25.300  18.781   4.395  0.00  0.00     0.030 A 
HETATM    6  C   UNK N   1      23.954  18.454   4.628  0.00  0.00     0.041 A 
ENDROOT
BRANCH   6   7
HETATM    7  N   UNK N   1      23.568  17.454   5.562  0.00  0.00    -0.323 N 
HETATM    8  C   UNK N   1      23.388  16.128   5.349  0.00  0.00     0.245 C 
HETATM    9  O   UNK N   1      23.490  15.636   4.236  0.00  0.00    -0.268 OA
HETATM   10  H   UNK N   1      23.412  17.766   6.484  0.00  0.00     0.169 HD
BRANCH   8  11
HETATM   11  C   UNK N   1      23.073  15.305   6.522  0.00  0.00     0.075 C 
HETATM   12  C   UNK N   1      21.932  15.350   7.211  0.00  0.00     0.017 C 
BRANCH  12  13
HETATM   13  C   UNK N   1      21.731  14.428   8.346  0.00  0.00    -0.036 A 
HETATM   14  C   UNK N   1      22.741  13.527   8.699  0.00  0.00     0.011 A 
HETATM   15  C   UNK N   1      22.559  12.657   9.781  0.00  0.00     0.001 A 
HETATM   16  C   UNK N   1      21.369  12.688  10.516  0.00  0.00     0.000 A 
HETATM   17  C   UNK N   1      20.358  13.586  10.170  0.00  0.00     0.001 A 
HETATM   18  C   UNK N   1      20.537  14.451   9.090  0.00  0.00     0.011 A 
ENDBRANCH  12  13
ENDBRANCH   8  11
ENDBRANCH   6   7
BRANCH   1  19
HETATM   19  C   UNK N   1      21.509  18.768   4.156  0.00  0.00     0.043 C 
BRANCH  19  20
HETATM   20  C   UNK N   1      20.796  18.368   2.876  0.00  0.00     0.040 C 
BRANCH  20  21
HETATM   21  C   UNK N   1      19.967  17.113   3.153  0.00  0.00     0.223 C 
HETATM   22  C   UNK N   1      19.845  16.942   4.666  0.00  0.00     0.036 C 
HETATM   23  C   UNK N   1      18.970  15.735   4.979  0.00  0.00     0.004 C 
HETATM   24  C   UNK N   1      19.544  14.497   4.305  0.00  0.00     0.030 C 
HETATM   25  C   UNK N   1      19.684  14.755   2.809  0.00  0.00     0.272 C 
HETATM   26  N   UNK N   1      20.563  15.899   2.558  0.00  0.00     0.088 N 
HETATM   27  C   UNK N   1      20.628  16.028   1.109  0.00  0.00     0.310 C 
ENDBRANCH  20  21
ENDBRANCH  19  20
ENDBRANCH   1  19
TORSDOF 6
ENDMDL
MODEL 4
REMARK VINA RESULT:      -7.2      1.788      6.603
REMARK  6 active torsions:
REMARK  status: ('A' for Active; 'I' for Inactive)
REMARK    1  A    between atoms: C_7  and  C_8 
REMARK    2  A    between atoms: C_8  and  C_9 
REMARK    3  A    between atoms: C_9  and  C_10 
REMARK    4  A    between atoms: C_15  and  N_16 
REMARK       I    between atoms: N_16  and  C_17 
REMARK    5  A    between atoms: C_17  and  C_19 
REMARK    6  A    between atoms: C_20  and  C_21 
ROOT
HETATM    1  C   UNK N   1      31.323  20.783  -4.951  0.00  0.00    -0.031 A 
HETATM    2  C   UNK N   1      32.318  19.802  -4.870  0.00  0.00     0.009 A 
HETATM    3  C   UNK N   1      33.334  19.912  -3.917  0.00  0.00     0.001 A 
HETATM    4  C   UNK N   1      33.357  20.999  -3.038  0.00  0.00     0.002 A 
HETATM    5  C   UNK N   1      32.366  21.984  -3.116  0.00  0.00     0.030 A 
HETATM    6  C   UNK N   1      31.342  21.879  -4.071  0.00  0.00     0.041 A 
ENDROOT
BRANCH   6   7
HETATM    7  N   UNK N   1      30.328  22.867  -4.205  0.00  0.00    -0.323 N 
HETATM    8  C   UNK N   1      29.372  23.218  -3.311  0.00  0.00     0.245 C 
HETATM    9  O   UNK N   1      29.243  22.635  -2.246  0.00  0.00    -0.268 OA
HETATM   10  H   UNK N   1      30.319  23.359  -5.058  0.00  0.00     0.169 HD
BRANCH   8  11
HETATM   11  C   UNK N   1      28.502  24.341  -3.677  0.00  0.00     0.075 C 
HETATM   12  C   UNK N   1      27.185  24.263  -3.875  0.00  0.00     0.017 C 
BRANCH  12  13
HETATM   13  C   UNK N   1      26.424  25.487  -4.195  0.00  0.00    -0.036 A 
HETATM   14  C   UNK N   1      26.458  26.577  -3.320  0.00  0.00     0.011 A 
HETATM   15  C   UNK N   1      25.746  27.744  -3.623  0.00  0.00     0.001 A 
HETATM   16  C   UNK N   1      25.000  27.825  -4.805  0.00  0.00     0.000 A 
HETATM   17  C   UNK N   1      24.963  26.741  -5.683  0.00  0.00     0.001 A 
HETATM   18  C   UNK N   1      25.670  25.577  -5.380  0.00  0.00     0.011 A 
ENDBRANCH  12  13
ENDBRANCH   8  11
ENDBRANCH   6   7
BRANCH   1  19
HETATM   19  C   UNK N   1      30.201  20.644  -5.934  0.00  0.00     0.043 C 
BRANCH  19  20
HETATM   20  C   UNK N   1      30.505  21.256  -7.291  0.00  0.00     0.040 C 
BRANCH  20  21
HETATM   21  C   UNK N   1      29.188  21.695  -7.933  0.00  0.00     0.223 C 
HETATM   22  C   UNK N   1      28.270  22.223  -6.831  0.00  0.00     0.036 C 
HETATM   23  C   UNK N   1      26.971  22.730  -7.444  0.00  0.00     0.004 C 
HETATM   24  C   UNK N   1      26.317  21.620  -8.254  0.00  0.00     0.030 C 
HETATM   25  C   UNK N   1      27.304  21.107  -9.298  0.00  0.00     0.272 C 
HETATM   26  N   UNK N   1      28.519  20.597  -8.659  0.00  0.00     0.088 N 
HETATM   27  C   UNK N   1      29.362  20.127  -9.749  0.00  0.00     0.310 C 
ENDBRANCH  20  21
ENDBRANCH  19  20
ENDBRANCH   1  19
TORSDOF 6
ENDMDL
MODEL 5
REMARK VINA RESULT:      -7.1     12.835     15.316
REMARK  6 active torsions:
REMARK  status: ('A' for Active; 'I' for Inactive)
REMARK    1  A    between atoms: C_7  and  C_8 
REMARK    2  A    between atoms: C_8  and  C_9 
REMARK    3  A    between atoms: C_9  and  C_10 
REMARK    4  A    between atoms: C_15  and  N_16 
REMARK       I    between atoms: N_16  and  C_17 
REMARK    5  A    between atoms: C_17  and  C_19 
REMARK    6  A    between atoms: C_20  and  C_21 
ROOT
HETATM    1  C   UNK N   1      25.770  18.784   4.504  0.00  0.00    -0.031 A 
HETATM    2  C   UNK N   1      26.473  19.599   3.608  0.00  0.00     0.009 A 
HETATM    3  C   UNK N   1      25.781  20.477   2.769  0.00  0.00     0.001 A 
HETATM    4  C   UNK N   1      24.387  20.548   2.825  0.00  0.00     0.002 A 
HETATM    5  C   UNK N   1      23.679  19.735   3.716  0.00  0.00     0.030 A 
HETATM    6  C   UNK N   1      24.367  18.851   4.563  0.00  0.00     0.041 A 
ENDROOT
BRANCH   6   7
HETATM    7  N   UNK N   1      23.690  17.988   5.468  0.00  0.00    -0.323 N 
HETATM    8  C   UNK N   1      23.065  16.815   5.204  0.00  0.00     0.245 C 
HETATM    9  O   UNK N   1      22.963  16.382   4.067  0.00  0.00    -0.268 OA
HETATM   10  H   UNK N   1      23.674  18.281   6.408  0.00  0.00     0.169 HD
BRANCH   8  11
HETATM   11  C   UNK N   1      22.522  16.081   6.352  0.00  0.00     0.075 C 
HETATM   12  C   UNK N   1      22.952  14.894   6.782  0.00  0.00     0.017 C 
BRANCH  12  13
HETATM   13  C   UNK N   1      22.343  14.290   7.984  0.00  0.00    -0.036 A 
HETATM   14  C   UNK N   1      23.002  13.255   8.653  0.00  0.00     0.011 A 
HETATM   15  C   UNK N   1      22.433  12.686   9.799  0.00  0.00     0.001 A 
HETATM   16  C   UNK N   1      21.205  13.152  10.281  0.00  0.00     0.000 A 
HETATM   17  C   UNK N   1      20.543  14.187   9.618  0.00  0.00     0.001 A 
HETATM   18  C   UNK N   1      21.107  14.753   8.474  0.00  0.00     0.011 A 
ENDBRANCH  12  13
ENDBRANCH   8  11
ENDBRANCH   6   7
BRANCH   1  19
HETATM   19  C   UNK N   1      26.507  17.880   5.444  0.00  0.00     0.043 C 
BRANCH  19  20
HETATM   20  C   UNK N   1      28.009  18.110   5.453  0.00  0.00     0.040 C 
BRANCH  20  21
HETATM   21  C   UNK N   1      28.550  17.732   6.833  0.00  0.00     0.223 C 
HETATM   22  C   UNK N   1      28.235  18.872   7.801  0.00  0.00     0.036 C 
HETATM   23  C   UNK N   1      28.703  18.500   9.202  0.00  0.00     0.004 C 
HETATM   24  C   UNK N   1      30.187  18.162   9.175  0.00  0.00     0.030 C 
HETATM   25  C   UNK N   1      30.435  17.056   8.155  0.00  0.00     0.272 C 
HETATM   26  N   UNK N   1      30.004  17.474   6.819  0.00  0.00     0.088 N 
HETATM   27  C   UNK N   1      30.307  16.350   5.945  0.00  0.00     0.310 C 
ENDBRANCH  20  21
ENDBRANCH  19  20
ENDBRANCH   1  19
TORSDOF 6
ENDMDL
MODEL 6
REMARK VINA RESULT:      -7.1     20.358     23.949
REMARK  6 active torsions:
REMARK  status: ('A' for Active; 'I' for Inactive)
REMARK    1  A    between atoms: C_7  and  C_8 
REMARK    2  A    between atoms: C_8  and  C_9 
REMARK    3  A    between atoms: C_9  and  C_10 
REMARK    4  A    between atoms: C_15  and  N_16 
REMARK       I    between atoms: N_16  and  C_17 
REMARK    5  A    between atoms: C_17  and  C_19 
REMARK    6  A    between atoms: C_20  and  C_21 
ROOT
HETATM    1  C   UNK N   1      36.175  12.949  10.306  0.00  0.00    -0.031 A 
HETATM    2  C   UNK N   1      36.287  13.138   8.923  0.00  0.00     0.009 A 
HETATM    3  C   UNK N   1      37.519  13.487   8.362  0.00  0.00     0.001 A 
HETATM    4  C   UNK N   1      38.643  13.643   9.178  0.00  0.00     0.002 A 
HETATM    5  C   UNK N   1      38.537  13.457  10.560  0.00  0.00     0.030 A 
HETATM    6  C   UNK N   1      37.302  13.106  11.131  0.00  0.00     0.041 A 
ENDROOT
BRANCH   6   7
HETATM    7  N   UNK N   1      37.139  12.931  12.533  0.00  0.00    -0.323 N 
HETATM    8  C   UNK N   1      36.583  13.782  13.428  0.00  0.00     0.245 C 
HETATM    9  O   UNK N   1      36.191  14.891  13.103  0.00  0.00    -0.268 OA
HETATM   10  H   UNK N   1      37.474  12.080  12.900  0.00  0.00     0.169 HD
BRANCH   8  11
HETATM   11  C   UNK N   1      36.463  13.304  14.810  0.00  0.00     0.075 C 
HETATM   12  C   UNK N   1      35.334  13.271  15.520  0.00  0.00     0.017 C 
BRANCH  12  13
HETATM   13  C   UNK N   1      35.350  12.719  16.889  0.00  0.00    -0.036 A 
HETATM   14  C   UNK N   1      35.232  13.576  17.987  0.00  0.00     0.011 A 
HETATM   15  C   UNK N   1      35.236  13.057  19.287  0.00  0.00     0.001 A 
HETATM   16  C   UNK N   1      35.356  11.678  19.493  0.00  0.00     0.000 A 
HETATM   17  C   UNK N   1      35.473  10.816  18.400  0.00  0.00     0.001 A 
HETATM   18  C   UNK N   1      35.471  11.333  17.105  0.00  0.00     0.011 A 
ENDBRANCH  12  13
ENDBRANCH   8  11
ENDBRANCH   6   7
BRANCH   1  19
HETATM   19  C   UNK N   1      34.872  12.524  10.908  0.00  0.00     0.043 C 
BRANCH  19  20
HETATM   20  C   UNK N   1      34.416  11.147  10.455  0.00  0.00     0.040 C 
BRANCH  20  21
HETATM   21  C   UNK N   1      34.688  10.149  11.583  0.00  0.00     0.223 C 
HETATM   22  C   UNK N   1      34.319  10.811  12.910  0.00  0.00     0.036 C 
HETATM   23  C   UNK N   1      34.517   9.822  14.050  0.00  0.00     0.004 C 
HETATM   24  C   UNK N   1      35.949   9.309  14.043  0.00  0.00     0.030 C 
HETATM   25  C   UNK N   1      36.264   8.708  12.677  0.00  0.00     0.272 C 
HETATM   26  N   UNK N   1      36.096   9.707  11.618  0.00  0.00     0.088 N 
HETATM   27  C   UNK N   1      36.440   9.020  10.380  0.00  0.00     0.310 C 
ENDBRANCH  20  21
ENDBRANCH  19  20
ENDBRANCH   1  19
TORSDOF 6
ENDMDL
MODEL 7
REMARK VINA RESULT:      -7.1      1.729      2.205
REMARK  6 active torsions:
REMARK  status: ('A' for Active; 'I' for Inactive)
REMARK    1  A    between atoms: C_7  and  C_8 
REMARK    2  A    between atoms: C_8  and  C_9 
REMARK    3  A    between atoms: C_9  and  C_10 
REMARK    4  A    between atoms: C_15  and  N_16 
REMARK       I    between atoms: N_16  and  C_17 
REMARK    5  A    between atoms: C_17  and  C_19 
REMARK    6  A    between atoms: C_20  and  C_21 
ROOT
HETATM    1  C   UNK N   1      26.093  25.663  -5.407  0.00  0.00    -0.031 A 
HETATM    2  C   UNK N   1      24.993  26.485  -5.677  0.00  0.00     0.009 A 
HETATM    3  C   UNK N   1      24.800  27.662  -4.948  0.00  0.00     0.001 A 
HETATM    4  C   UNK N   1      25.710  28.024  -3.950  0.00  0.00     0.002 A 
HETATM    5  C   UNK N   1      26.811  27.207  -3.674  0.00  0.00     0.030 A 
HETATM    6  C   UNK N   1      27.010  26.023  -4.403  0.00  0.00     0.041 A 
ENDROOT
BRANCH   6   7
HETATM    7  N   UNK N   1      28.099  25.147  -4.143  0.00  0.00    -0.323 N 
HETATM    8  C   UNK N   1      28.143  24.086  -3.301  0.00  0.00     0.245 C 
HETATM    9  O   UNK N   1      27.198  23.792  -2.586  0.00  0.00    -0.268 OA
HETATM   10  H   UNK N   1      28.929  25.337  -4.638  0.00  0.00     0.169 HD
BRANCH   8  11
HETATM   11  C   UNK N   1      29.380  23.297  -3.294  0.00  0.00     0.075 C 
HETATM   12  C   UNK N   1      30.450  23.535  -4.054  0.00  0.00     0.017 C 
BRANCH  12  13
HETATM   13  C   UNK N   1      31.649  22.685  -3.909  0.00  0.00    -0.036 A 
HETATM   14  C   UNK N   1      31.753  21.806  -2.827  0.00  0.00     0.011 A 
HETATM   15  C   UNK N   1      32.883  20.991  -2.690  0.00  0.00     0.001 A 
HETATM   16  C   UNK N   1      33.911  21.049  -3.638  0.00  0.00     0.000 A 
HETATM   17  C   UNK N   1      33.813  21.924  -4.722  0.00  0.00     0.001 A 
HETATM   18  C   UNK N   1      32.688  22.739  -4.857  0.00  0.00     0.011 A 
ENDBRANCH  12  13
ENDBRANCH   8  11
ENDBRANCH   6   7
BRANCH   1  19
HETATM   19  C   UNK N   1      26.334  24.429  -6.220  0.00  0.00     0.043 C 
BRANCH  19  20
HETATM   20  C   UNK N   1      26.941  24.711  -7.584  0.00  0.00     0.040 C 
BRANCH  20  21
HETATM   21  C   UNK N   1      27.944  23.603  -7.909  0.00  0.00     0.223 C 
HETATM   22  C   UNK N   1      27.355  22.271  -7.445  0.00  0.00     0.036 C 
HETATM   23  C   UNK N   1      28.301  21.135  -7.812  0.00  0.00     0.004 C 
HETATM   24  C   UNK N   1      29.675  21.397  -7.212  0.00  0.00     0.030 C 
HETATM   25  C   UNK N   1      30.178  22.760  -7.676  0.00  0.00     0.272 C 
HETATM   26  N   UNK N   1      29.256  23.822  -7.267  0.00  0.00     0.088 N 
HETATM   27  C   UNK N   1      29.852  25.060  -7.750  0.00  0.00     0.310 C 
ENDBRANCH  20  21
ENDBRANCH  19  20
ENDBRANCH   1  19
TORSDOF 6
ENDMDL
MODEL 8
REMARK VINA RESULT:      -7.1      2.576      5.345
REMARK  6 active torsions:
REMARK  status: ('A' for Active; 'I' for Inactive)
REMARK    1  A    between atoms: C_7  and  C_8 
REMARK    2  A    between atoms: C_8  and  C_9 
REMARK    3  A    between atoms: C_9  and  C_10 
REMARK    4  A    between atoms: C_15  and  N_16 
REMARK       I    between atoms: N_16  and  C_17 
REMARK    5  A    between atoms: C_17  and  C_19 
REMARK    6  A    between atoms: C_20  and  C_21 
ROOT
HETATM    1  C   UNK N   1      26.802  25.431  -4.645  0.00  0.00    -0.031 A 
HETATM    2  C   UNK N   1      26.291  26.501  -3.900  0.00  0.00     0.009 A 
HETATM    3  C   UNK N   1      25.392  27.397  -4.487  0.00  0.00     0.001 A 
HETATM    4  C   UNK N   1      24.996  27.223  -5.816  0.00  0.00     0.002 A 
HETATM    5  C   UNK N   1      25.505  26.157  -6.565  0.00  0.00     0.030 A 
HETATM    6  C   UNK N   1      26.408  25.253  -5.982  0.00  0.00     0.041 A 
ENDROOT
BRANCH   6   7
HETATM    7  N   UNK N   1      26.971  24.170  -6.710  0.00  0.00    -0.323 N 
HETATM    8  C   UNK N   1      26.358  23.046  -7.154  0.00  0.00     0.245 C 
HETATM    9  O   UNK N   1      25.188  22.809  -6.903  0.00  0.00    -0.268 OA
HETATM   10  H   UNK N   1      27.931  24.246  -6.918  0.00  0.00     0.169 HD
BRANCH   8  11
HETATM   11  C   UNK N   1      27.166  22.126  -7.964  0.00  0.00     0.075 C 
HETATM   12  C   UNK N   1      27.980  21.186  -7.481  0.00  0.00     0.017 C 
BRANCH  12  13
HETATM   13  C   UNK N   1      28.699  20.297  -8.414  0.00  0.00    -0.036 A 
HETATM   14  C   UNK N   1      28.717  20.589  -9.781  0.00  0.00     0.011 A 
HETATM   15  C   UNK N   1      29.405  19.755 -10.670  0.00  0.00     0.001 A 
HETATM   16  C   UNK N   1      30.082  18.626 -10.193  0.00  0.00     0.000 A 
HETATM   17  C   UNK N   1      30.070  18.330  -8.829  0.00  0.00     0.001 A 
HETATM   18  C   UNK N   1      29.382  19.159  -7.943  0.00  0.00     0.011 A 
ENDBRANCH  12  13
ENDBRANCH   8  11
ENDBRANCH   6   7
BRANCH   1  19
HETATM   19  C   UNK N   1      27.724  24.438  -4.007  0.00  0.00     0.043 C 
BRANCH  19  20
HETATM   20  C   UNK N   1      29.157  24.929  -3.889  0.00  0.00     0.040 C 
BRANCH  20  21
HETATM   21  C   UNK N   1      30.097  23.737  -4.071  0.00  0.00     0.223 C 
HETATM   22  C   UNK N   1      30.095  23.345  -5.548  0.00  0.00     0.036 C 
HETATM   23  C   UNK N   1      31.072  22.199  -5.777  0.00  0.00     0.004 C 
HETATM   24  C   UNK N   1      30.713  21.029  -4.871  0.00  0.00     0.030 C 
HETATM   25  C   UNK N   1      30.685  21.502  -3.422  0.00  0.00     0.272 C 
HETATM   26  N   UNK N   1      29.705  22.577  -3.244  0.00  0.00     0.088 N 
HETATM   27  C   UNK N   1      29.763  22.924  -1.831  0.00  0.00     0.310 C 
ENDBRANCH  20  21
ENDBRANCH  19  20
ENDBRANCH   1  19
TORSDOF 6
ENDMDL
MODEL 9
REMARK VINA RESULT:      -6.9     12.684     15.398
REMARK  6 active torsions:
REMARK  status: ('A' for Active; 'I' for Inactive)
REMARK    1  A    between atoms: C_7  and  C_8 
REMARK    2  A    between atoms: C_8  and  C_9 
REMARK    3  A    between atoms: C_9  and  C_10 
REMARK    4  A    between atoms: C_15  and  N_16 
REMARK       I    between atoms: N_16  and  C_17 
REMARK    5  A    between atoms: C_17  and  C_19 
REMARK    6  A    between atoms: C_20  and  C_21 
ROOT
HETATM    1  C   UNK N   1      27.540  18.336   5.417  0.00  0.00    -0.031 A 
HETATM    2  C   UNK N   1      28.143  19.426   4.778  0.00  0.00     0.009 A 
HETATM    3  C   UNK N   1      27.416  20.191   3.862  0.00  0.00     0.001 A 
HETATM    4  C   UNK N   1      26.083  19.875   3.586  0.00  0.00     0.002 A 
HETATM    5  C   UNK N   1      25.475  18.787   4.221  0.00  0.00     0.030 A 
HETATM    6  C   UNK N   1      26.200  18.013   5.142  0.00  0.00     0.041 A 
ENDROOT
BRANCH   6   7
HETATM    7  N   UNK N   1      25.633  16.883   5.793  0.00  0.00    -0.323 N 
HETATM    8  C   UNK N   1      25.532  15.612   5.337  0.00  0.00     0.245 C 
HETATM    9  O   UNK N   1      25.893  15.302   4.213  0.00  0.00    -0.268 OA
HETATM   10  H   UNK N   1      25.266  17.047   6.693  0.00  0.00     0.169 HD
BRANCH   8  11
HETATM   11  C   UNK N   1      24.977  14.618   6.262  0.00  0.00     0.075 C 
HETATM   12  C   UNK N   1      25.394  14.410   7.512  0.00  0.00     0.017 C 
BRANCH  12  13
HETATM   13  C   UNK N   1      24.710  13.406   8.350  0.00  0.00    -0.036 A 
HETATM   14  C   UNK N   1      23.724  12.588   7.792  0.00  0.00     0.011 A 
HETATM   15  C   UNK N   1      23.079  11.627   8.579  0.00  0.00     0.001 A 
HETATM   16  C   UNK N   1      23.422  11.477   9.928  0.00  0.00     0.000 A 
HETATM   17  C   UNK N   1      24.408  12.290  10.491  0.00  0.00     0.001 A 
HETATM   18  C   UNK N   1      25.049  13.250   9.708  0.00  0.00     0.011 A 
ENDBRANCH  12  13
ENDBRANCH   8  11
ENDBRANCH   6   7
BRANCH   1  19
HETATM   19  C   UNK N   1      28.296  17.544   6.439  0.00  0.00     0.043 C 
BRANCH  19  20
HETATM   20  C   UNK N   1      29.258  16.536   5.834  0.00  0.00     0.040 C 
BRANCH  20  21
HETATM   21  C   UNK N   1      30.584  16.614   6.591  0.00  0.00     0.223 C 
HETATM   22  C   UNK N   1      30.378  17.481   7.832  0.00  0.00     0.036 C 
HETATM   23  C   UNK N   1      31.665  17.528   8.646  0.00  0.00     0.004 C 
HETATM   24  C   UNK N   1      32.806  18.033   7.775  0.00  0.00     0.030 C 
HETATM   25  C   UNK N   1      32.922  17.154   6.534  0.00  0.00     0.272 C 
HETATM   26  N   UNK N   1      31.675  17.171   5.766  0.00  0.00     0.088 N 
HETATM   27  C   UNK N   1      31.919  16.318   4.612  0.00  0.00     0.310 C 
ENDBRANCH  20  21
ENDBRANCH  19  20
ENDBRANCH   1  19
TORSDOF 6
ENDMDL
