MODEL 1
REMARK VINA RESULT:      -3.3      0.000      0.000
REMARK  5 active torsions:
REMARK  status: ('A' for Active; 'I' for Inactive)
REMARK    1  A    between atoms: C_1  and  C_2 
REMARK    2  A    between atoms: C_2  and  S_3 
REMARK    3  A    between atoms: S_3  and  S_4 
REMARK    4  A    between atoms: S_4  and  C_5 
REMARK    5  A    between atoms: C_5  and  C_6 
ROOT
HETATM    1  S   UNK N   1      35.525  12.769  13.605  0.00  0.00     0.081 S 
HETATM    2  O   UNK N   1      34.455  13.155  14.635  0.00  0.00    -0.246 OA
ENDROOT
BRANCH   1   3
HETATM    3  C   UNK N   1      36.430  14.303  13.959  0.00  0.00     0.147 C 
BRANCH   3   4
HETATM    4  C   UNK N   1      36.901  14.315  15.370  0.00  0.00    -0.024 C 
HETATM    5  C   UNK N   1      37.390  15.435  15.891  0.00  0.00     0.008 C 
ENDBRANCH   3   4
ENDBRANCH   1   3
BRANCH   1   6
HETATM    6  S   UNK N   1      36.731  11.721  15.026  0.00  0.00    -0.062 SA
BRANCH   6   7
HETATM    7  C   UNK N   1      35.337  11.113  16.021  0.00  0.00     0.114 C 
BRANCH   7   8
HETATM    8  C   UNK N   1      35.615  11.330  17.466  0.00  0.00    -0.026 C 
HETATM    9  C   UNK N   1      35.181  12.435  18.062  0.00  0.00     0.007 C 
ENDBRANCH   7   8
ENDBRANCH   6   7
ENDBRANCH   1   6
TORSDOF 5
ENDMDL
MODEL 2
REMARK VINA RESULT:      -3.2     25.184     25.878
REMARK  5 active torsions:
REMARK  status: ('A' for Active; 'I' for Inactive)
REMARK    1  A    between atoms: C_1  and  C_2 
REMARK    2  A    between atoms: C_2  and  S_3 
REMARK    3  A    between atoms: S_3  and  S_4 
REMARK    4  A    between atoms: S_4  and  C_5 
REMARK    5  A    between atoms: C_5  and  C_6 
ROOT
HETATM    1  S   UNK N   1      26.133  24.455  -4.342  0.00  0.00     0.081 S 
HETATM    2  O   UNK N   1      26.562  24.137  -2.903  0.00  0.00    -0.246 OA
ENDROOT
BRANCH   1   3
HETATM    3  C   UNK N   1      26.658  26.180  -4.126  0.00  0.00     0.147 C 
BRANCH   3   4
HETATM    4  C   UNK N   1      25.573  27.109  -4.539  0.00  0.00    -0.024 C 
HETATM    5  C   UNK N   1      24.963  26.932  -5.706  0.00  0.00     0.008 C 
ENDBRANCH   3   4
ENDBRANCH   1   3
BRANCH   1   6
HETATM    6  S   UNK N   1      28.042  23.972  -5.178  0.00  0.00    -0.062 SA
BRANCH   6   7
HETATM    7  C   UNK N   1      27.380  23.069  -6.610  0.00  0.00     0.114 C 
BRANCH   7   8
HETATM    8  C   UNK N   1      25.898  22.981  -6.511  0.00  0.00    -0.026 C 
HETATM    9  C   UNK N   1      25.250  22.027  -7.171  0.00  0.00     0.007 C 
ENDBRANCH   7   8
ENDBRANCH   6   7
ENDBRANCH   1   6
TORSDOF 5
ENDMDL
MODEL 3
REMARK VINA RESULT:      -3.2     24.887     25.770
REMARK  5 active torsions:
REMARK  status: ('A' for Active; 'I' for Inactive)
REMARK    1  A    between atoms: C_1  and  C_2 
REMARK    2  A    between atoms: C_2  and  S_3 
REMARK    3  A    between atoms: S_3  and  S_4 
REMARK    4  A    between atoms: S_4  and  C_5 
REMARK    5  A    between atoms: C_5  and  C_6 
ROOT
HETATM    1  S   UNK N   1      27.435  24.222  -4.013  0.00  0.00     0.081 S 
HETATM    2  O   UNK N   1      26.747  24.338  -2.646  0.00  0.00    -0.246 OA
ENDROOT
BRANCH   1   3
HETATM    3  C   UNK N   1      25.831  24.399  -4.845  0.00  0.00     0.147 C 
BRANCH   3   4
HETATM    4  C   UNK N   1      25.968  24.126  -6.300  0.00  0.00    -0.024 C 
HETATM    5  C   UNK N   1      25.876  22.878  -6.747  0.00  0.00     0.008 C 
ENDBRANCH   3   4
ENDBRANCH   1   3
BRANCH   1   6
HETATM    6  S   UNK N   1      27.768  26.327  -4.192  0.00  0.00    -0.062 SA
BRANCH   6   7
HETATM    7  C   UNK N   1      26.307  26.817  -3.229  0.00  0.00     0.114 C 
BRANCH   7   8
HETATM    8  C   UNK N   1      25.643  27.981  -3.874  0.00  0.00    -0.026 C 
HETATM    9  C   UNK N   1      26.205  29.183  -3.802  0.00  0.00     0.007 C 
ENDBRANCH   7   8
ENDBRANCH   6   7
ENDBRANCH   1   6
TORSDOF 5
ENDMDL
MODEL 4
REMARK VINA RESULT:      -3.2     25.702     26.771
REMARK  5 active torsions:
REMARK  status: ('A' for Active; 'I' for Inactive)
REMARK    1  A    between atoms: C_1  and  C_2 
REMARK    2  A    between atoms: C_2  and  S_3 
REMARK    3  A    between atoms: S_3  and  S_4 
REMARK    4  A    between atoms: S_4  and  C_5 
REMARK    5  A    between atoms: C_5  and  C_6 
ROOT
HETATM    1  S   UNK N   1      27.078  25.551  -4.126  0.00  0.00     0.081 S 
HETATM    2  O   UNK N   1      26.547  24.689  -2.972  0.00  0.00    -0.246 OA
ENDROOT
BRANCH   1   3
HETATM    3  C   UNK N   1      25.615  25.137  -5.119  0.00  0.00     0.147 C 
BRANCH   3   4
HETATM    4  C   UNK N   1      25.212  26.296  -5.959  0.00  0.00    -0.024 C 
HETATM    5  C   UNK N   1      25.796  26.490  -7.137  0.00  0.00     0.008 C 
ENDBRANCH   3   4
ENDBRANCH   1   3
BRANCH   1   6
HETATM    6  S   UNK N   1      26.115  27.333  -3.438  0.00  0.00    -0.062 SA
BRANCH   6   7
HETATM    7  C   UNK N   1      27.495  28.443  -3.842  0.00  0.00     0.114 C 
BRANCH   7   8
HETATM    8  C   UNK N   1      27.118  29.325  -4.980  0.00  0.00    -0.026 C 
HETATM    9  C   UNK N   1      28.014  29.605  -5.921  0.00  0.00     0.007 C 
ENDBRANCH   7   8
ENDBRANCH   6   7
ENDBRANCH   1   6
TORSDOF 5
ENDMDL
MODEL 5
REMARK VINA RESULT:      -3.2     22.747     24.450
REMARK  5 active torsions:
REMARK  status: ('A' for Active; 'I' for Inactive)
REMARK    1  A    between atoms: C_1  and  C_2 
REMARK    2  A    between atoms: C_2  and  S_3 
REMARK    3  A    between atoms: S_3  and  S_4 
REMARK    4  A    between atoms: S_4  and  C_5 
REMARK    5  A    between atoms: C_5  and  C_6 
ROOT
HETATM    1  S   UNK N   1      26.562  24.788  -4.220  0.00  0.00     0.081 S 
HETATM    2  O   UNK N   1      26.515  24.126  -2.836  0.00  0.00    -0.246 OA
ENDROOT
BRANCH   1   3
HETATM    3  C   UNK N   1      26.296  26.415  -3.460  0.00  0.00     0.147 C 
BRANCH   3   4
HETATM    4  C   UNK N   1      25.691  27.355  -4.442  0.00  0.00    -0.024 C 
HETATM    5  C   UNK N   1      24.994  26.877  -5.468  0.00  0.00     0.008 C 
ENDBRANCH   3   4
ENDBRANCH   1   3
BRANCH   1   6
HETATM    6  S   UNK N   1      28.677  25.100  -4.167  0.00  0.00    -0.062 SA
BRANCH   6   7
HETATM    7  C   UNK N   1      29.116  23.356  -4.426  0.00  0.00     0.114 C 
BRANCH   7   8
HETATM    8  C   UNK N   1      30.105  22.927  -3.401  0.00  0.00    -0.026 C 
HETATM    9  C   UNK N   1      29.801  23.020  -2.112  0.00  0.00     0.007 C 
ENDBRANCH   7   8
ENDBRANCH   6   7
ENDBRANCH   1   6
TORSDOF 5
ENDMDL
MODEL 6
REMARK VINA RESULT:      -3.2     23.150     24.963
REMARK  5 active torsions:
REMARK  status: ('A' for Active; 'I' for Inactive)
REMARK    1  A    between atoms: C_1  and  C_2 
REMARK    2  A    between atoms: C_2  and  S_3 
REMARK    3  A    between atoms: S_3  and  S_4 
REMARK    4  A    between atoms: S_4  and  C_5 
REMARK    5  A    between atoms: C_5  and  C_6 
ROOT
HETATM    1  S   UNK N   1      27.423  24.920  -3.772  0.00  0.00     0.081 S 
HETATM    2  O   UNK N   1      26.790  23.984  -2.732  0.00  0.00    -0.246 OA
ENDROOT
BRANCH   1   3
HETATM    3  C   UNK N   1      28.730  23.699  -4.087  0.00  0.00     0.147 C 
BRANCH   3   4
HETATM    4  C   UNK N   1      29.848  23.874  -3.122  0.00  0.00    -0.024 C 
HETATM    5  C   UNK N   1      30.166  22.882  -2.297  0.00  0.00     0.008 C 
ENDBRANCH   3   4
ENDBRANCH   1   3
BRANCH   1   6
HETATM    6  S   UNK N   1      26.282  24.130  -5.400  0.00  0.00    -0.062 SA
BRANCH   6   7
HETATM    7  C   UNK N   1      26.111  25.712  -6.276  0.00  0.00     0.114 C 
BRANCH   7   8
HETATM    8  C   UNK N   1      24.979  26.488  -5.703  0.00  0.00    -0.026 C 
HETATM    9  C   UNK N   1      25.218  27.629  -5.066  0.00  0.00     0.007 C 
ENDBRANCH   7   8
ENDBRANCH   6   7
ENDBRANCH   1   6
TORSDOF 5
ENDMDL
MODEL 7
REMARK VINA RESULT:      -3.2      1.688      2.586
REMARK  5 active torsions:
REMARK  status: ('A' for Active; 'I' for Inactive)
REMARK    1  A    between atoms: C_1  and  C_2 
REMARK    2  A    between atoms: C_2  and  S_3 
REMARK    3  A    between atoms: S_3  and  S_4 
REMARK    4  A    between atoms: S_4  and  C_5 
REMARK    5  A    between atoms: C_5  and  C_6 
ROOT
HETATM    1  S   UNK N   1      36.399  13.391  13.619  0.00  0.00     0.081 S 
HETATM    2  O   UNK N   1      34.902  13.630  13.861  0.00  0.00    -0.246 OA
ENDROOT
BRANCH   1   3
HETATM    3  C   UNK N   1      36.653  13.129  15.398  0.00  0.00     0.147 C 
BRANCH   3   4
HETATM    4  C   UNK N   1      35.426  13.494  16.157  0.00  0.00    -0.024 C 
HETATM    5  C   UNK N   1      35.193  12.935  17.339  0.00  0.00     0.008 C 
ENDBRANCH   3   4
ENDBRANCH   1   3
BRANCH   1   6
HETATM    6  S   UNK N   1      36.171  11.283  13.334  0.00  0.00    -0.062 SA
BRANCH   6   7
HETATM    7  C   UNK N   1      34.354  11.298  13.378  0.00  0.00     0.114 C 
BRANCH   7   8
HETATM    8  C   UNK N   1      33.870  10.511  14.544  0.00  0.00    -0.026 C 
HETATM    9  C   UNK N   1      34.743   9.876  15.318  0.00  0.00     0.007 C 
ENDBRANCH   7   8
ENDBRANCH   6   7
ENDBRANCH   1   6
TORSDOF 5
ENDMDL
MODEL 8
REMARK VINA RESULT:      -3.1      9.652     11.350
REMARK  5 active torsions:
REMARK  status: ('A' for Active; 'I' for Inactive)
REMARK    1  A    between atoms: C_1  and  C_2 
REMARK    2  A    between atoms: C_2  and  S_3 
REMARK    3  A    between atoms: S_3  and  S_4 
REMARK    4  A    between atoms: S_4  and  C_5 
REMARK    5  A    between atoms: C_5  and  C_6 
ROOT
HETATM    1  S   UNK N   1      34.006  16.871   7.634  0.00  0.00     0.081 S 
HETATM    2  O   UNK N   1      34.614  18.230   7.258  0.00  0.00    -0.246 OA
ENDROOT
BRANCH   1   3
HETATM    3  C   UNK N   1      32.340  17.520   7.316  0.00  0.00     0.147 C 
BRANCH   3   4
HETATM    4  C   UNK N   1      31.459  17.290   8.492  0.00  0.00    -0.024 C 
HETATM    5  C   UNK N   1      30.647  18.257   8.906  0.00  0.00     0.008 C 
ENDBRANCH   3   4
ENDBRANCH   1   3
BRANCH   1   6
HETATM    6  S   UNK N   1      34.098  16.107   5.638  0.00  0.00    -0.062 SA
BRANCH   6   7
HETATM    7  C   UNK N   1      33.134  17.455   4.892  0.00  0.00     0.114 C 
BRANCH   7   8
HETATM    8  C   UNK N   1      32.763  17.099   3.497  0.00  0.00    -0.026 C 
HETATM    9  C   UNK N   1      33.297  16.024   2.927  0.00  0.00     0.007 C 
ENDBRANCH   7   8
ENDBRANCH   6   7
ENDBRANCH   1   6
TORSDOF 5
ENDMDL
MODEL 9
REMARK VINA RESULT:      -3.1     15.621     16.243
REMARK  5 active torsions:
REMARK  status: ('A' for Active; 'I' for Inactive)
REMARK    1  A    between atoms: C_1  and  C_2 
REMARK    2  A    between atoms: C_2  and  S_3 
REMARK    3  A    between atoms: S_3  and  S_4 
REMARK    4  A    between atoms: S_4  and  C_5 
REMARK    5  A    between atoms: C_5  and  C_6 
ROOT
HETATM    1  S   UNK N   1      20.770  14.315   7.359  0.00  0.00     0.081 S 
HETATM    2  O   UNK N   1      20.029  14.040   8.674  0.00  0.00    -0.246 OA
ENDROOT
BRANCH   1   3
HETATM    3  C   UNK N   1      21.036  16.039   7.860  0.00  0.00     0.147 C 
BRANCH   3   4
HETATM    4  C   UNK N   1      19.929  16.502   8.740  0.00  0.00    -0.024 C 
HETATM    5  C   UNK N   1      19.623  17.794   8.788  0.00  0.00     0.008 C 
ENDBRANCH   3   4
ENDBRANCH   1   3
BRANCH   1   6
HETATM    6  S   UNK N   1      22.684  13.782   8.150  0.00  0.00    -0.062 SA
BRANCH   6   7
HETATM    7  C   UNK N   1      22.109  13.561   9.860  0.00  0.00     0.114 C 
BRANCH   7   8
HETATM    8  C   UNK N   1      22.492  12.211  10.352  0.00  0.00    -0.026 C 
HETATM    9  C   UNK N   1      22.830  12.045  11.626  0.00  0.00     0.007 C 
ENDBRANCH   7   8
ENDBRANCH   6   7
ENDBRANCH   1   6
TORSDOF 5
ENDMDL
