MODEL 1
REMARK VINA RESULT:      -7.2      0.000      0.000
REMARK  6 active torsions:
REMARK  status: ('A' for Active; 'I' for Inactive)
REMARK    1  A    between atoms: C_4  and  N_7 
REMARK    2  A    between atoms: C_10  and  C_22 
REMARK    3  A    between atoms: N_13  and  C_16 
REMARK       I    between atoms: C_22  and  N_24 
REMARK    4  A    between atoms: N_24  and  C_25 
REMARK    5  A    between atoms: C_25  and  C_26 
REMARK    6  A    between atoms: C_26  and  O_28 
ROOT
HETATM    1  N   UNK N   1      22.439  14.485   7.399  0.00  0.00    -0.264 N 
HETATM    2  C   UNK N   1      21.084  14.619   7.240  0.00  0.00     0.250 A 
HETATM    3  O   UNK N   1      20.324  13.863   7.829  0.00  0.00    -0.271 OA
HETATM    4  C   UNK N   1      20.508  15.668   6.314  0.00  0.00     0.262 A 
HETATM    5  C   UNK N   1      21.569  16.487   5.607  0.00  0.00     0.250 A 
HETATM    6  O   UNK N   1      21.226  17.268   4.739  0.00  0.00    -0.271 OA
HETATM    7  N   UNK N   1      22.910  16.272   5.853  0.00  0.00    -0.264 N 
HETATM    8  C   UNK N   1      23.320  15.298   6.734  0.00  0.00     0.334 A 
HETATM    9  O   UNK N   1      24.524  15.132   6.918  0.00  0.00    -0.246 OA
ENDROOT
BRANCH   4  10
HETATM   10  C   UNK N   1      19.050  16.107   6.616  0.00  0.00     0.240 C 
HETATM   11  O   UNK N   1      18.228  15.972   5.724  0.00  0.00    -0.272 OA
HETATM   12  N   UNK N   1      18.602  16.654   7.781  0.00  0.00    -0.350 N 
HETATM   13  H   UNK N   1      17.644  16.883   7.811  0.00  0.00     0.163 HD
BRANCH  12  14
HETATM   14  C   UNK N   1      19.353  16.938   8.972  0.00  0.00     0.232 C 
BRANCH  14  15
HETATM   15  C   UNK N   1      19.615  18.411   9.052  0.00  0.00     0.158 C 
HETATM   16  O   UNK N   1      20.357  18.950   8.247  0.00  0.00    -0.649 OA
BRANCH  15  17
HETATM   17  O   UNK N   1      19.032  19.144  10.019  0.00  0.00    -0.775 OA
HETATM   18  H   UNK N   1      19.230  19.992  10.366  0.00  0.00     0.167 HD
ENDBRANCH  15  17
ENDBRANCH  14  15
ENDBRANCH  12  14
ENDBRANCH   4  10
BRANCH   1  19
HETATM   19  C   UNK N   1      22.999  13.437   8.253  0.00  0.00     0.097 C 
HETATM   20  C   UNK N   1      22.782  13.569   9.771  0.00  0.00     0.026 C 
HETATM   21  C   UNK N   1      22.144  12.300  10.339  0.00  0.00     0.002 C 
HETATM   22  C   UNK N   1      22.968  11.046  10.004  0.00  0.00     0.000 C 
HETATM   23  C   UNK N   1      23.555  11.037   8.584  0.00  0.00     0.002 C 
HETATM   24  C   UNK N   1      22.855  12.032   7.665  0.00  0.00     0.026 C 
ENDBRANCH   1  19
BRANCH   7  25
HETATM   25  C   UNK N   1      23.972  17.036   5.174  0.00  0.00     0.097 C 
HETATM   26  C   UNK N   1      23.841  18.563   5.100  0.00  0.00     0.026 C 
HETATM   27  C   UNK N   1      25.136  19.161   4.555  0.00  0.00     0.002 C 
HETATM   28  C   UNK N   1      25.473  18.572   3.184  0.00  0.00     0.000 C 
HETATM   29  C   UNK N   1      25.586  17.053   3.265  0.00  0.00     0.002 C 
HETATM   30  C   UNK N   1      24.283  16.457   3.790  0.00  0.00     0.026 C 
ENDBRANCH   7  25
TORSDOF 6
ENDMDL
MODEL 2
REMARK VINA RESULT:      -7.1      7.158     10.508
REMARK  6 active torsions:
REMARK  status: ('A' for Active; 'I' for Inactive)
REMARK    1  A    between atoms: C_4  and  N_7 
REMARK    2  A    between atoms: C_10  and  C_22 
REMARK    3  A    between atoms: N_13  and  C_16 
REMARK       I    between atoms: C_22  and  N_24 
REMARK    4  A    between atoms: N_24  and  C_25 
REMARK    5  A    between atoms: C_25  and  C_26 
REMARK    6  A    between atoms: C_26  and  O_28 
ROOT
HETATM    1  N   UNK N   1      31.209  15.947   4.884  0.00  0.00    -0.264 N 
HETATM    2  C   UNK N   1      31.595  15.668   6.170  0.00  0.00     0.250 A 
HETATM    3  O   UNK N   1      32.542  14.921   6.372  0.00  0.00    -0.271 OA
HETATM    4  C   UNK N   1      30.844  16.243   7.350  0.00  0.00     0.262 A 
HETATM    5  C   UNK N   1      29.661  17.098   6.947  0.00  0.00     0.250 A 
HETATM    6  O   UNK N   1      28.906  17.502   7.812  0.00  0.00    -0.271 OA
HETATM    7  N   UNK N   1      29.370  17.321   5.616  0.00  0.00    -0.264 N 
HETATM    8  C   UNK N   1      30.137  16.759   4.621  0.00  0.00     0.334 A 
HETATM    9  O   UNK N   1      29.839  16.975   3.448  0.00  0.00    -0.246 OA
ENDROOT
BRANCH   4  10
HETATM   10  C   UNK N   1      31.646  16.341   8.677  0.00  0.00     0.240 C 
HETATM   11  O   UNK N   1      31.464  15.465   9.507  0.00  0.00    -0.272 OA
HETATM   12  N   UNK N   1      32.521  17.330   9.014  0.00  0.00    -0.350 N 
HETATM   13  H   UNK N   1      32.946  17.247   9.899  0.00  0.00     0.163 HD
BRANCH  12  14
HETATM   14  C   UNK N   1      32.900  18.479   8.240  0.00  0.00     0.232 C 
BRANCH  14  15
HETATM   15  C   UNK N   1      34.330  18.339   7.814  0.00  0.00     0.158 C 
HETATM   16  O   UNK N   1      35.200  19.004   8.353  0.00  0.00    -0.649 OA
BRANCH  15  17
HETATM   17  O   UNK N   1      34.656  17.480   6.831  0.00  0.00    -0.775 OA
HETATM   18  H   UNK N   1      34.998  17.618   5.969  0.00  0.00     0.167 HD
ENDBRANCH  15  17
ENDBRANCH  14  15
ENDBRANCH  12  14
ENDBRANCH   4  10
BRANCH   1  19
HETATM   19  C   UNK N   1      31.902  15.350   3.741  0.00  0.00     0.097 C 
HETATM   20  C   UNK N   1      33.316  15.865   3.423  0.00  0.00     0.026 C 
HETATM   21  C   UNK N   1      34.312  14.705   3.356  0.00  0.00     0.002 C 
HETATM   22  C   UNK N   1      33.874  13.632   2.347  0.00  0.00     0.000 C 
HETATM   23  C   UNK N   1      32.364  13.344   2.348  0.00  0.00     0.002 C 
HETATM   24  C   UNK N   1      31.684  13.840   3.619  0.00  0.00     0.026 C 
ENDBRANCH   1  19
BRANCH   7  25
HETATM   25  C   UNK N   1      28.219  18.133   5.181  0.00  0.00     0.097 C 
HETATM   26  C   UNK N   1      28.068  19.550   5.751  0.00  0.00     0.026 C 
HETATM   27  C   UNK N   1      26.947  20.280   5.013  0.00  0.00     0.002 C 
HETATM   28  C   UNK N   1      25.633  19.505   5.115  0.00  0.00     0.000 C 
HETATM   29  C   UNK N   1      25.797  18.092   4.562  0.00  0.00     0.002 C 
HETATM   30  C   UNK N   1      26.903  17.359   5.315  0.00  0.00     0.026 C 
ENDBRANCH   7  25
TORSDOF 6
ENDMDL
MODEL 3
REMARK VINA RESULT:      -7.0     15.285     17.091
REMARK  6 active torsions:
REMARK  status: ('A' for Active; 'I' for Inactive)
REMARK    1  A    between atoms: C_4  and  N_7 
REMARK    2  A    between atoms: C_10  and  C_22 
REMARK    3  A    between atoms: N_13  and  C_16 
REMARK       I    between atoms: C_22  and  N_24 
REMARK    4  A    between atoms: N_24  and  C_25 
REMARK    5  A    between atoms: C_25  and  C_26 
REMARK    6  A    between atoms: C_26  and  O_28 
ROOT
HETATM    1  N   UNK N   1      28.167  24.509  -5.587  0.00  0.00    -0.264 N 
HETATM    2  C   UNK N   1      27.519  23.789  -6.556  0.00  0.00     0.250 A 
HETATM    3  O   UNK N   1      26.448  24.184  -6.995  0.00  0.00    -0.271 OA
HETATM    4  C   UNK N   1      28.090  22.486  -7.072  0.00  0.00     0.262 A 
HETATM    5  C   UNK N   1      29.386  22.093  -6.394  0.00  0.00     0.250 A 
HETATM    6  O   UNK N   1      29.866  21.000  -6.632  0.00  0.00    -0.271 OA
HETATM    7  N   UNK N   1      29.957  22.904  -5.434  0.00  0.00    -0.264 N 
HETATM    8  C   UNK N   1      29.356  24.082  -5.056  0.00  0.00     0.334 A 
HETATM    9  O   UNK N   1      29.893  24.771  -4.190  0.00  0.00    -0.246 OA
ENDROOT
BRANCH   4  10
HETATM   10  C   UNK N   1      27.620  22.057  -8.488  0.00  0.00     0.240 C 
HETATM   11  O   UNK N   1      28.239  22.500  -9.442  0.00  0.00    -0.272 OA
HETATM   12  N   UNK N   1      26.561  21.248  -8.771  0.00  0.00    -0.350 N 
HETATM   13  H   UNK N   1      26.391  21.075  -9.726  0.00  0.00     0.163 HD
BRANCH  12  14
HETATM   14  C   UNK N   1      25.660  20.614  -7.849  0.00  0.00     0.232 C 
BRANCH  14  15
HETATM   15  C   UNK N   1      24.533  21.551  -7.534  0.00  0.00     0.158 C 
HETATM   16  O   UNK N   1      23.839  21.370  -6.547  0.00  0.00    -0.649 OA
BRANCH  15  17
HETATM   17  O   UNK N   1      24.283  22.595  -8.346  0.00  0.00    -0.775 OA
HETATM   18  H   UNK N   1      24.451  23.512  -8.254  0.00  0.00     0.167 HD
ENDBRANCH  15  17
ENDBRANCH  14  15
ENDBRANCH  12  14
ENDBRANCH   4  10
BRANCH   1  19
HETATM   19  C   UNK N   1      27.591  25.743  -5.050  0.00  0.00     0.097 C 
HETATM   20  C   UNK N   1      27.276  26.870  -6.048  0.00  0.00     0.026 C 
HETATM   21  C   UNK N   1      25.817  27.315  -5.920  0.00  0.00     0.002 C 
HETATM   22  C   UNK N   1      25.471  27.735  -4.482  0.00  0.00     0.000 C 
HETATM   23  C   UNK N   1      26.098  26.846  -3.397  0.00  0.00     0.002 C 
HETATM   24  C   UNK N   1      26.557  25.501  -3.948  0.00  0.00     0.026 C 
ENDBRANCH   1  19
BRANCH   7  25
HETATM   25  C   UNK N   1      31.209  22.550  -4.740  0.00  0.00     0.097 C 
HETATM   26  C   UNK N   1      32.439  22.196  -5.587  0.00  0.00     0.026 C 
HETATM   27  C   UNK N   1      33.664  22.076  -4.682  0.00  0.00     0.002 C 
HETATM   28  C   UNK N   1      33.432  21.033  -3.588  0.00  0.00     0.000 C 
HETATM   29  C   UNK N   1      32.199  21.385  -2.762  0.00  0.00     0.002 C 
HETATM   30  C   UNK N   1      30.973  21.484  -3.665  0.00  0.00     0.026 C 
ENDBRANCH   7  25
TORSDOF 6
ENDMDL
MODEL 4
REMARK VINA RESULT:      -6.9     15.197     17.387
REMARK  6 active torsions:
REMARK  status: ('A' for Active; 'I' for Inactive)
REMARK    1  A    between atoms: C_4  and  N_7 
REMARK    2  A    between atoms: C_10  and  C_22 
REMARK    3  A    between atoms: N_13  and  C_16 
REMARK       I    between atoms: C_22  and  N_24 
REMARK    4  A    between atoms: N_24  and  C_25 
REMARK    5  A    between atoms: C_25  and  C_26 
REMARK    6  A    between atoms: C_26  and  O_28 
ROOT
HETATM    1  N   UNK N   1      28.871  24.241  -4.987  0.00  0.00    -0.264 N 
HETATM    2  C   UNK N   1      28.072  23.604  -5.901  0.00  0.00     0.250 A 
HETATM    3  O   UNK N   1      28.323  22.453  -6.231  0.00  0.00    -0.271 OA
HETATM    4  C   UNK N   1      26.900  24.316  -6.539  0.00  0.00     0.262 A 
HETATM    5  C   UNK N   1      26.751  25.751  -6.080  0.00  0.00     0.250 A 
HETATM    6  O   UNK N   1      25.925  26.460  -6.625  0.00  0.00    -0.271 OA
HETATM    7  N   UNK N   1      27.610  26.287  -5.142  0.00  0.00    -0.264 N 
HETATM    8  C   UNK N   1      28.635  25.538  -4.613  0.00  0.00     0.334 A 
HETATM    9  O   UNK N   1      29.385  26.056  -3.787  0.00  0.00    -0.246 OA
ENDROOT
BRANCH   4  10
HETATM   10  C   UNK N   1      25.774  23.399  -7.090  0.00  0.00     0.240 C 
HETATM   11  O   UNK N   1      25.120  22.766  -6.278  0.00  0.00    -0.272 OA
HETATM   12  N   UNK N   1      25.460  23.216  -8.403  0.00  0.00    -0.350 N 
HETATM   13  H   UNK N   1      24.718  22.594  -8.588  0.00  0.00     0.163 HD
BRANCH  12  14
HETATM   14  C   UNK N   1      26.077  23.816  -9.553  0.00  0.00     0.232 C 
BRANCH  14  15
HETATM   15  C   UNK N   1      25.292  25.024  -9.963  0.00  0.00     0.158 C 
HETATM   16  O   UNK N   1      24.412  24.932 -10.803  0.00  0.00    -0.649 OA
BRANCH  15  17
HETATM   17  O   UNK N   1      25.560  26.219  -9.404  0.00  0.00    -0.775 OA
HETATM   18  H   UNK N   1      26.025  26.455  -8.626  0.00  0.00     0.167 HD
ENDBRANCH  15  17
ENDBRANCH  14  15
ENDBRANCH  12  14
ENDBRANCH   4  10
BRANCH   1  19
HETATM   19  C   UNK N   1      30.037  23.571  -4.407  0.00  0.00     0.097 C 
HETATM   20  C   UNK N   1      29.777  22.498  -3.336  0.00  0.00     0.026 C 
HETATM   21  C   UNK N   1      30.460  21.181  -3.713  0.00  0.00     0.002 C 
HETATM   22  C   UNK N   1      31.967  21.367  -3.957  0.00  0.00     0.000 C 
HETATM   23  C   UNK N   1      32.330  22.659  -4.706  0.00  0.00     0.002 C 
HETATM   24  C   UNK N   1      31.131  23.261  -5.431  0.00  0.00     0.026 C 
ENDBRANCH   1  19
BRANCH   7  25
HETATM   25  C   UNK N   1      27.509  27.684  -4.681  0.00  0.00     0.097 C 
HETATM   26  C   UNK N   1      26.235  28.119  -3.944  0.00  0.00     0.026 C 
HETATM   27  C   UNK N   1      26.430  29.523  -3.374  0.00  0.00     0.002 C 
HETATM   28  C   UNK N   1      26.790  30.515  -4.480  0.00  0.00     0.000 C 
HETATM   29  C   UNK N   1      28.048  30.066  -5.217  0.00  0.00     0.002 C 
HETATM   30  C   UNK N   1      27.843  28.672  -5.804  0.00  0.00     0.026 C 
ENDBRANCH   7  25
TORSDOF 6
ENDMDL
MODEL 5
REMARK VINA RESULT:      -6.9      4.160      6.424
REMARK  6 active torsions:
REMARK  status: ('A' for Active; 'I' for Inactive)
REMARK    1  A    between atoms: C_4  and  N_7 
REMARK    2  A    between atoms: C_10  and  C_22 
REMARK    3  A    between atoms: N_13  and  C_16 
REMARK       I    between atoms: C_22  and  N_24 
REMARK    4  A    between atoms: N_24  and  C_25 
REMARK    5  A    between atoms: C_25  and  C_26 
REMARK    6  A    between atoms: C_26  and  O_28 
ROOT
HETATM    1  N   UNK N   1      24.900  17.260   3.649  0.00  0.00    -0.264 N 
HETATM    2  C   UNK N   1      23.758  17.525   4.361  0.00  0.00     0.250 A 
HETATM    3  O   UNK N   1      23.725  18.478   5.127  0.00  0.00    -0.271 OA
HETATM    4  C   UNK N   1      22.543  16.632   4.243  0.00  0.00     0.262 A 
HETATM    5  C   UNK N   1      22.751  15.459   3.308  0.00  0.00     0.250 A 
HETATM    6  O   UNK N   1      21.890  14.602   3.239  0.00  0.00    -0.271 OA
HETATM    7  N   UNK N   1      23.944  15.297   2.632  0.00  0.00    -0.264 N 
HETATM    8  C   UNK N   1      24.980  16.186   2.803  0.00  0.00     0.334 A 
HETATM    9  O   UNK N   1      26.029  16.000   2.189  0.00  0.00    -0.246 OA
ENDROOT
BRANCH   4  10
HETATM   10  C   UNK N   1      21.185  17.289   4.614  0.00  0.00     0.240 C 
HETATM   11  O   UNK N   1      20.600  16.850   5.591  0.00  0.00    -0.272 OA
HETATM   12  N   UNK N   1      20.570  18.297   3.936  0.00  0.00    -0.350 N 
HETATM   13  H   UNK N   1      19.707  18.600   4.300  0.00  0.00     0.163 HD
BRANCH  12  14
HETATM   14  C   UNK N   1      21.025  18.975   2.754  0.00  0.00     0.232 C 
BRANCH  14  15
HETATM   15  C   UNK N   1      21.209  20.431   3.058  0.00  0.00     0.158 C 
HETATM   16  O   UNK N   1      22.226  21.009   2.709  0.00  0.00    -0.649 OA
BRANCH  15  17
HETATM   17  O   UNK N   1      20.251  21.104   3.721  0.00  0.00    -0.775 OA
HETATM   18  H   UNK N   1      20.194  21.395   4.610  0.00  0.00     0.167 HD
ENDBRANCH  15  17
ENDBRANCH  14  15
ENDBRANCH  12  14
ENDBRANCH   4  10
BRANCH   1  19
HETATM   19  C   UNK N   1      26.094  18.092   3.801  0.00  0.00     0.097 C 
HETATM   20  C   UNK N   1      25.999  19.559   3.346  0.00  0.00     0.026 C 
HETATM   21  C   UNK N   1      26.418  20.504   4.474  0.00  0.00     0.002 C 
HETATM   22  C   UNK N   1      27.825  20.178   5.001  0.00  0.00     0.000 C 
HETATM   23  C   UNK N   1      28.124  18.675   5.112  0.00  0.00     0.002 C 
HETATM   24  C   UNK N   1      26.854  17.832   5.104  0.00  0.00     0.026 C 
ENDBRANCH   1  19
BRANCH   7  25
HETATM   25  C   UNK N   1      24.193  14.161   1.725  0.00  0.00     0.097 C 
HETATM   26  C   UNK N   1      23.130  13.822   0.671  0.00  0.00     0.026 C 
HETATM   27  C   UNK N   1      23.680  12.766  -0.286  0.00  0.00     0.002 C 
HETATM   28  C   UNK N   1      24.116  11.514   0.476  0.00  0.00     0.000 C 
HETATM   29  C   UNK N   1      25.160  11.864   1.533  0.00  0.00     0.002 C 
HETATM   30  C   UNK N   1      24.600  12.903   2.500  0.00  0.00     0.026 C 
ENDBRANCH   7  25
TORSDOF 6
ENDMDL
MODEL 6
REMARK VINA RESULT:      -6.8      6.468      8.884
REMARK  6 active torsions:
REMARK  status: ('A' for Active; 'I' for Inactive)
REMARK    1  A    between atoms: C_4  and  N_7 
REMARK    2  A    between atoms: C_10  and  C_22 
REMARK    3  A    between atoms: N_13  and  C_16 
REMARK       I    between atoms: C_22  and  N_24 
REMARK    4  A    between atoms: N_24  and  C_25 
REMARK    5  A    between atoms: C_25  and  C_26 
REMARK    6  A    between atoms: C_26  and  O_28 
ROOT
HETATM    1  N   UNK N   1      29.258  15.664   5.703  0.00  0.00    -0.264 N 
HETATM    2  C   UNK N   1      28.574  16.691   6.300  0.00  0.00     0.250 A 
HETATM    3  O   UNK N   1      27.492  17.043   5.851  0.00  0.00    -0.271 OA
HETATM    4  C   UNK N   1      29.152  17.424   7.490  0.00  0.00     0.262 A 
HETATM    5  C   UNK N   1      30.522  16.919   7.894  0.00  0.00     0.250 A 
HETATM    6  O   UNK N   1      31.141  17.522   8.752  0.00  0.00    -0.271 OA
HETATM    7  N   UNK N   1      31.114  15.867   7.226  0.00  0.00    -0.264 N 
HETATM    8  C   UNK N   1      30.484  15.260   6.164  0.00  0.00     0.334 A 
HETATM    9  O   UNK N   1      31.049  14.331   5.590  0.00  0.00    -0.246 OA
ENDROOT
BRANCH   4  10
HETATM   10  C   UNK N   1      28.124  18.142   8.406  0.00  0.00     0.240 C 
HETATM   11  O   UNK N   1      27.757  17.548   9.407  0.00  0.00    -0.272 OA
HETATM   12  N   UNK N   1      27.570  19.367   8.185  0.00  0.00    -0.350 N 
HETATM   13  H   UNK N   1      26.927  19.679   8.862  0.00  0.00     0.163 HD
BRANCH  12  14
HETATM   14  C   UNK N   1      27.808  20.260   7.085  0.00  0.00     0.232 C 
BRANCH  14  15
HETATM   15  C   UNK N   1      26.503  20.598   6.431  0.00  0.00     0.158 C 
HETATM   16  O   UNK N   1      26.090  21.747   6.435  0.00  0.00    -0.649 OA
BRANCH  15  17
HETATM   17  O   UNK N   1      25.779  19.630   5.838  0.00  0.00    -0.775 OA
HETATM   18  H   UNK N   1      24.905  19.326   5.983  0.00  0.00     0.167 HD
ENDBRANCH  15  17
ENDBRANCH  14  15
ENDBRANCH  12  14
ENDBRANCH   4  10
BRANCH   1  19
HETATM   19  C   UNK N   1      28.723  14.987   4.520  0.00  0.00     0.097 C 
HETATM   20  C   UNK N   1      27.464  14.124   4.707  0.00  0.00     0.026 C 
HETATM   21  C   UNK N   1      26.368  14.547   3.727  0.00  0.00     0.002 C 
HETATM   22  C   UNK N   1      26.856  14.507   2.270  0.00  0.00     0.000 C 
HETATM   23  C   UNK N   1      28.294  15.011   2.072  0.00  0.00     0.002 C 
HETATM   24  C   UNK N   1      28.781  15.843   3.253  0.00  0.00     0.026 C 
ENDBRANCH   1  19
BRANCH   7  25
HETATM   25  C   UNK N   1      32.452  15.356   7.578  0.00  0.00     0.097 C 
HETATM   26  C   UNK N   1      32.696  14.880   9.015  0.00  0.00     0.026 C 
HETATM   27  C   UNK N   1      34.062  14.200   9.103  0.00  0.00     0.002 C 
HETATM   28  C   UNK N   1      35.171  15.145   8.641  0.00  0.00     0.000 C 
HETATM   29  C   UNK N   1      34.911  15.626   7.217  0.00  0.00     0.002 C 
HETATM   30  C   UNK N   1      33.556  16.323   7.138  0.00  0.00     0.026 C 
ENDBRANCH   7  25
TORSDOF 6
ENDMDL
MODEL 7
REMARK VINA RESULT:      -6.7      2.648      3.181
REMARK  6 active torsions:
REMARK  status: ('A' for Active; 'I' for Inactive)
REMARK    1  A    between atoms: C_4  and  N_7 
REMARK    2  A    between atoms: C_10  and  C_22 
REMARK    3  A    between atoms: N_13  and  C_16 
REMARK       I    between atoms: C_22  and  N_24 
REMARK    4  A    between atoms: N_24  and  C_25 
REMARK    5  A    between atoms: C_25  and  C_26 
REMARK    6  A    between atoms: C_26  and  O_28 
ROOT
HETATM    1  N   UNK N   1      22.238  13.899   6.795  0.00  0.00    -0.264 N 
HETATM    2  C   UNK N   1      20.992  13.845   6.225  0.00  0.00     0.250 A 
HETATM    3  O   UNK N   1      20.033  13.485   6.893  0.00  0.00    -0.271 OA
HETATM    4  C   UNK N   1      20.788  14.190   4.767  0.00  0.00     0.262 A 
HETATM    5  C   UNK N   1      22.073  14.556   4.054  0.00  0.00     0.250 A 
HETATM    6  O   UNK N   1      22.049  14.722   2.848  0.00  0.00    -0.271 OA
HETATM    7  N   UNK N   1      23.274  14.589   4.733  0.00  0.00    -0.264 N 
HETATM    8  C   UNK N   1      23.339  14.272   6.070  0.00  0.00     0.334 A 
HETATM    9  O   UNK N   1      24.430  14.304   6.635  0.00  0.00    -0.246 OA
ENDROOT
BRANCH   4  10
HETATM   10  C   UNK N   1      19.353  14.635   4.374  0.00  0.00     0.240 C 
HETATM   11  O   UNK N   1      18.512  13.761   4.242  0.00  0.00    -0.272 OA
HETATM   12  N   UNK N   1      18.946  15.914   4.138  0.00  0.00    -0.350 N 
HETATM   13  H   UNK N   1      17.999  16.028   3.893  0.00  0.00     0.163 HD
BRANCH  12  14
HETATM   14  C   UNK N   1      19.728  17.117   4.202  0.00  0.00     0.232 C 
BRANCH  14  15
HETATM   15  C   UNK N   1      19.674  17.815   2.877  0.00  0.00     0.158 C 
HETATM   16  O   UNK N   1      20.607  17.726   2.095  0.00  0.00    -0.649 OA
BRANCH  15  17
HETATM   17  O   UNK N   1      18.593  18.545   2.548  0.00  0.00    -0.775 OA
HETATM   18  H   UNK N   1      17.676  18.358   2.588  0.00  0.00     0.167 HD
ENDBRANCH  15  17
ENDBRANCH  14  15
ENDBRANCH  12  14
ENDBRANCH   4  10
BRANCH   1  19
HETATM   19  C   UNK N   1      22.447  13.515   8.192  0.00  0.00     0.097 C 
HETATM   20  C   UNK N   1      21.652  14.281   9.263  0.00  0.00     0.026 C 
HETATM   21  C   UNK N   1      20.875  13.312  10.157  0.00  0.00     0.002 C 
HETATM   22  C   UNK N   1      21.795  12.261  10.798  0.00  0.00     0.000 C 
HETATM   23  C   UNK N   1      22.890  11.727   9.861  0.00  0.00     0.002 C 
HETATM   24  C   UNK N   1      22.579  12.004   8.394  0.00  0.00     0.026 C 
ENDBRANCH   1  19
BRANCH   7  25
HETATM   25  C   UNK N   1      24.549  14.924   4.072  0.00  0.00     0.097 C 
HETATM   26  C   UNK N   1      24.726  16.338   3.503  0.00  0.00     0.026 C 
HETATM   27  C   UNK N   1      26.176  16.534   3.064  0.00  0.00     0.002 C 
HETATM   28  C   UNK N   1      26.583  15.474   2.039  0.00  0.00     0.000 C 
HETATM   29  C   UNK N   1      26.388  14.072   2.608  0.00  0.00     0.002 C 
HETATM   30  C   UNK N   1      24.934  13.873   3.026  0.00  0.00     0.026 C 
ENDBRANCH   7  25
TORSDOF 6
ENDMDL
MODEL 8
REMARK VINA RESULT:      -6.6      2.907      4.310
REMARK  6 active torsions:
REMARK  status: ('A' for Active; 'I' for Inactive)
REMARK    1  A    between atoms: C_4  and  N_7 
REMARK    2  A    between atoms: C_10  and  C_22 
REMARK    3  A    between atoms: N_13  and  C_16 
REMARK       I    between atoms: C_22  and  N_24 
REMARK    4  A    between atoms: N_24  and  C_25 
REMARK    5  A    between atoms: C_25  and  C_26 
REMARK    6  A    between atoms: C_26  and  O_28 
ROOT
HETATM    1  N   UNK N   1      20.870  15.050   4.352  0.00  0.00    -0.264 N 
HETATM    2  C   UNK N   1      20.443  15.078   5.654  0.00  0.00     0.250 A 
HETATM    3  O   UNK N   1      19.732  14.179   6.081  0.00  0.00    -0.271 OA
HETATM    4  C   UNK N   1      20.809  16.226   6.569  0.00  0.00     0.262 A 
HETATM    5  C   UNK N   1      21.640  17.292   5.886  0.00  0.00     0.250 A 
HETATM    6  O   UNK N   1      21.880  18.324   6.485  0.00  0.00    -0.271 OA
HETATM    7  N   UNK N   1      22.024  17.154   4.567  0.00  0.00    -0.264 N 
HETATM    8  C   UNK N   1      21.647  16.053   3.833  0.00  0.00     0.334 A 
HETATM    9  O   UNK N   1      22.002  15.972   2.659  0.00  0.00    -0.246 OA
ENDROOT
BRANCH   4  10
HETATM   10  C   UNK N   1      20.774  15.914   8.090  0.00  0.00     0.240 C 
HETATM   11  O   UNK N   1      21.436  14.967   8.483  0.00  0.00    -0.272 OA
HETATM   12  N   UNK N   1      20.052  16.586   9.030  0.00  0.00    -0.350 N 
HETATM   13  H   UNK N   1      20.135  16.258   9.955  0.00  0.00     0.163 HD
BRANCH  12  14
HETATM   14  C   UNK N   1      19.182  17.713   8.839  0.00  0.00     0.232 C 
BRANCH  14  15
HETATM   15  C   UNK N   1      17.814  17.375   9.347  0.00  0.00     0.158 C 
HETATM   16  O   UNK N   1      17.288  16.316   9.045  0.00  0.00    -0.649 OA
BRANCH  15  17
HETATM   17  O   UNK N   1      17.158  18.245  10.137  0.00  0.00    -0.775 OA
HETATM   18  H   UNK N   1      17.118  18.334  11.069  0.00  0.00     0.167 HD
ENDBRANCH  15  17
ENDBRANCH  14  15
ENDBRANCH  12  14
ENDBRANCH   4  10
BRANCH   1  19
HETATM   19  C   UNK N   1      20.474  13.967   3.451  0.00  0.00     0.097 C 
HETATM   20  C   UNK N   1      19.410  14.283   2.386  0.00  0.00     0.026 C 
HETATM   21  C   UNK N   1      19.915  13.914   0.989  0.00  0.00     0.002 C 
HETATM   22  C   UNK N   1      20.356  12.444   0.910  0.00  0.00     0.000 C 
HETATM   23  C   UNK N   1      21.110  11.944   2.153  0.00  0.00     0.002 C 
HETATM   24  C   UNK N   1      21.647  13.091   3.002  0.00  0.00     0.026 C 
ENDBRANCH   1  19
BRANCH   7  25
HETATM   25  C   UNK N   1      22.818  18.176   3.862  0.00  0.00     0.097 C 
HETATM   26  C   UNK N   1      24.205  18.533   4.414  0.00  0.00     0.026 C 
HETATM   27  C   UNK N   1      24.932  19.439   3.422  0.00  0.00     0.002 C 
HETATM   28  C   UNK N   1      24.114  20.699   3.137  0.00  0.00     0.000 C 
HETATM   29  C   UNK N   1      22.732  20.334   2.603  0.00  0.00     0.002 C 
HETATM   30  C   UNK N   1      22.000  19.446   3.605  0.00  0.00     0.026 C 
ENDBRANCH   7  25
TORSDOF 6
ENDMDL
MODEL 9
REMARK VINA RESULT:      -6.6     11.927     14.393
REMARK  6 active torsions:
REMARK  status: ('A' for Active; 'I' for Inactive)
REMARK    1  A    between atoms: C_4  and  N_7 
REMARK    2  A    between atoms: C_10  and  C_22 
REMARK    3  A    between atoms: N_13  and  C_16 
REMARK       I    between atoms: C_22  and  N_24 
REMARK    4  A    between atoms: N_24  and  C_25 
REMARK    5  A    between atoms: C_25  and  C_26 
REMARK    6  A    between atoms: C_26  and  O_28 
ROOT
HETATM    1  N   UNK N   1      36.453  14.207   7.346  0.00  0.00    -0.264 N 
HETATM    2  C   UNK N   1      36.366  14.514   8.679  0.00  0.00     0.250 A 
HETATM    3  O   UNK N   1      37.166  14.032   9.469  0.00  0.00    -0.271 OA
HETATM    4  C   UNK N   1      35.269  15.416   9.200  0.00  0.00     0.262 A 
HETATM    5  C   UNK N   1      34.319  15.887   8.119  0.00  0.00     0.250 A 
HETATM    6  O   UNK N   1      33.323  16.508   8.441  0.00  0.00    -0.271 OA
HETATM    7  N   UNK N   1      34.511  15.523   6.801  0.00  0.00    -0.264 N 
HETATM    8  C   UNK N   1      35.559  14.709   6.438  0.00  0.00     0.334 A 
HETATM    9  O   UNK N   1      35.688  14.401   5.255  0.00  0.00    -0.246 OA
ENDROOT
BRANCH   4  10
HETATM   10  C   UNK N   1      35.568  16.133  10.545  0.00  0.00     0.240 C 
HETATM   11  O   UNK N   1      35.933  17.297  10.491  0.00  0.00    -0.272 OA
HETATM   12  N   UNK N   1      35.483  15.577  11.786  0.00  0.00    -0.350 N 
HETATM   13  H   UNK N   1      35.711  16.168  12.541  0.00  0.00     0.163 HD
BRANCH  12  14
HETATM   14  C   UNK N   1      35.103  14.236  12.131  0.00  0.00     0.232 C 
BRANCH  14  15
HETATM   15  C   UNK N   1      36.248  13.557  12.819  0.00  0.00     0.158 C 
HETATM   16  O   UNK N   1      36.100  13.069  13.928  0.00  0.00    -0.649 OA
BRANCH  15  17
HETATM   17  O   UNK N   1      37.448  13.488  12.212  0.00  0.00    -0.775 OA
HETATM   18  H   UNK N   1      38.304  13.298  12.542  0.00  0.00     0.167 HD
ENDBRANCH  15  17
ENDBRANCH  14  15
ENDBRANCH  12  14
ENDBRANCH   4  10
BRANCH   1  19
HETATM   19  C   UNK N   1      37.482  13.293   6.848  0.00  0.00     0.097 C 
HETATM   20  C   UNK N   1      38.938  13.792   6.858  0.00  0.00     0.026 C 
HETATM   21  C   UNK N   1      39.842  12.807   7.603  0.00  0.00     0.002 C 
HETATM   22  C   UNK N   1      39.747  11.388   7.019  0.00  0.00     0.000 C 
HETATM   23  C   UNK N   1      38.325  10.966   6.616  0.00  0.00     0.002 C 
HETATM   24  C   UNK N   1      37.258  11.839   7.268  0.00  0.00     0.026 C 
ENDBRANCH   1  19
BRANCH   7  25
HETATM   25  C   UNK N   1      33.600  15.947   5.722  0.00  0.00     0.097 C 
HETATM   26  C   UNK N   1      33.426  17.449   5.461  0.00  0.00     0.026 C 
HETATM   27  C   UNK N   1      32.620  17.654   4.179  0.00  0.00     0.002 C 
HETATM   28  C   UNK N   1      31.265  16.952   4.269  0.00  0.00     0.000 C 
HETATM   29  C   UNK N   1      31.449  15.462   4.544  0.00  0.00     0.002 C 
HETATM   30  C   UNK N   1      32.235  15.260   5.836  0.00  0.00     0.026 C 
ENDBRANCH   7  25
TORSDOF 6
ENDMDL
