MODEL 1
REMARK VINA RESULT:      -7.3      0.000      0.000
REMARK  4 active torsions:
REMARK  status: ('A' for Active; 'I' for Inactive)
REMARK    1  A    between atoms: C_6  and  N_14 
REMARK    2  A    between atoms: C_7  and  C_11 
REMARK       I    between atoms: C_11  and  N_13 
REMARK    3  A    between atoms: C_15  and  N_14 
REMARK    4  A    between atoms: C_22  and  O_25 
ROOT
HETATM    1  C   UNK N   1      29.285  22.824  -5.367  0.00  0.00     0.034 A 
HETATM    2  C   UNK N   1      30.481  22.193  -5.716  0.00  0.00     0.090 A 
HETATM    3  N   UNK N   1      30.328  21.504  -6.868  0.00  0.00    -0.352 N 
HETATM    4  C   UNK N   1      29.055  21.698  -7.236  0.00  0.00     0.117 A 
HETATM    5  C   UNK N   1      28.386  22.496  -6.350  0.00  0.00     0.037 A 
HETATM    6  C   UNK N   1      27.033  22.828  -6.560  0.00  0.00     0.059 A 
HETATM    7  C   UNK N   1      26.414  22.290  -7.730  0.00  0.00     0.074 A 
HETATM    8  C   UNK N   1      27.170  21.466  -8.598  0.00  0.00     0.109 A 
HETATM    9  N   UNK N   1      28.477  21.183  -8.341  0.00  0.00    -0.350 N 
ATOM     10  HN  UNK N   1      29.012  20.590  -8.977  1.00  0.00     0.166 HD
HETATM   11  H   UNK N   1      31.009  20.971  -7.338  0.00  0.00     0.166 HD
ENDROOT
BRANCH   6  12
HETATM   12  N   UNK N   1      26.259  23.660  -5.692  0.00  0.00    -0.383 N 
HETATM   13  H   UNK N   1      25.608  23.156  -5.154  0.00  0.00     0.160 HD
BRANCH  12  14
HETATM   14  C   UNK N   1      26.229  25.087  -5.435  0.00  0.00     0.090 C 
HETATM   15  C   UNK N   1      27.322  25.735  -4.589  0.00  0.00     0.012 C 
HETATM   16  C   UNK N   1      26.625  26.808  -3.730  0.00  0.00     0.044 C 
HETATM   17  C   UNK N   1      28.320  26.439  -5.520  0.00  0.00     0.011 C 
HETATM   18  C   UNK N   1      25.885  27.825  -4.626  0.00  0.00     0.059 C 
HETATM   19  C   UNK N   1      24.830  27.104  -5.497  0.00  0.00     0.044 C 
HETATM   20  C   UNK N   1      26.905  28.512  -5.542  0.00  0.00     0.042 C 
HETATM   21  C   UNK N   1      25.496  26.036  -6.385  0.00  0.00     0.012 C 
HETATM   22  C   UNK N   1      26.524  26.750  -7.279  0.00  0.00     0.011 C 
HETATM   23  C   UNK N   1      27.592  27.461  -6.422  0.00  0.00    -0.011 C 
BRANCH  18  24
HETATM   24  O   UNK N   1      25.256  28.782  -3.830  0.00  0.00    -0.390 OA
HETATM   25  H   UNK N   1      25.784  29.459  -3.377  0.00  0.00     0.210 HD
ENDBRANCH  18  24
ENDBRANCH  12  14
ENDBRANCH   6  12
BRANCH   7  26
HETATM   26  C   UNK N   1      24.987  22.553  -8.088  0.00  0.00     0.253 C 
HETATM   27  O   UNK N   1      24.693  23.568  -8.698  0.00  0.00    -0.268 OA
HETATM   28  N   UNK N   1      24.005  21.691  -7.749  0.00  0.00    -0.366 N 
HETATM   29  H   UNK N   1      23.063  21.917  -7.925  0.00  0.00     0.159 HD
HETATM   30  H   UNK N   1      24.232  20.833  -7.322  0.00  0.00     0.159 HD
ENDBRANCH   7  26
TORSDOF 4
ENDMDL
MODEL 2
REMARK VINA RESULT:      -7.0     13.163     15.352
REMARK  4 active torsions:
REMARK  status: ('A' for Active; 'I' for Inactive)
REMARK    1  A    between atoms: C_6  and  N_14 
REMARK    2  A    between atoms: C_7  and  C_11 
REMARK       I    between atoms: C_11  and  N_13 
REMARK    3  A    between atoms: C_15  and  N_14 
REMARK    4  A    between atoms: C_22  and  O_25 
ROOT
HETATM    1  C   UNK N   1      29.944  17.217   8.314  0.00  0.00     0.034 A 
HETATM    2  C   UNK N   1      29.675  17.644   9.616  0.00  0.00     0.090 A 
HETATM    3  N   UNK N   1      28.696  18.576   9.610  0.00  0.00    -0.352 N 
HETATM    4  C   UNK N   1      28.356  18.731   8.323  0.00  0.00     0.117 A 
HETATM    5  C   UNK N   1      29.092  17.922   7.503  0.00  0.00     0.037 A 
HETATM    6  C   UNK N   1      28.883  17.929   6.109  0.00  0.00     0.059 A 
HETATM    7  C   UNK N   1      27.877  18.817   5.615  0.00  0.00     0.074 A 
HETATM    8  C   UNK N   1      27.161  19.629   6.527  0.00  0.00     0.109 A 
HETATM    9  N   UNK N   1      27.408  19.574   7.865  0.00  0.00    -0.350 N 
ATOM     10  HN  UNK N   1      26.882  20.162   8.512  1.00  0.00     0.166 HD
HETATM   11  H   UNK N   1      28.312  19.042  10.387  0.00  0.00     0.166 HD
ENDROOT
BRANCH   6  12
HETATM   12  N   UNK N   1      29.599  17.113   5.179  0.00  0.00    -0.383 N 
HETATM   13  H   UNK N   1      29.027  16.745   4.468  0.00  0.00     0.160 HD
BRANCH  12  14
HETATM   14  C   UNK N   1      30.988  16.714   5.057  0.00  0.00     0.090 C 
HETATM   15  C   UNK N   1      31.380  15.249   5.235  0.00  0.00     0.012 C 
HETATM   16  C   UNK N   1      32.724  15.251   5.991  0.00  0.00     0.044 C 
HETATM   17  C   UNK N   1      31.609  14.623   3.851  0.00  0.00     0.011 C 
HETATM   18  C   UNK N   1      33.784  16.061   5.213  0.00  0.00     0.059 C 
HETATM   19  C   UNK N   1      33.307  17.519   5.017  0.00  0.00     0.044 C 
HETATM   20  C   UNK N   1      33.991  15.413   3.839  0.00  0.00     0.042 C 
HETATM   21  C   UNK N   1      31.974  17.555   4.246  0.00  0.00     0.012 C 
HETATM   22  C   UNK N   1      32.207  16.886   2.882  0.00  0.00     0.011 C 
HETATM   23  C   UNK N   1      32.669  15.424   3.062  0.00  0.00    -0.011 C 
BRANCH  18  24
HETATM   24  O   UNK N   1      34.988  16.056   5.916  0.00  0.00    -0.390 OA
HETATM   25  H   UNK N   1      35.710  15.469   5.637  0.00  0.00     0.210 HD
ENDBRANCH  18  24
ENDBRANCH  12  14
ENDBRANCH   6  12
BRANCH   7  26
HETATM   26  C   UNK N   1      27.542  18.937   4.164  0.00  0.00     0.253 C 
HETATM   27  O   UNK N   1      27.307  17.931   3.512  0.00  0.00    -0.268 OA
HETATM   28  N   UNK N   1      27.496  20.136   3.548  0.00  0.00    -0.366 N 
HETATM   29  H   UNK N   1      27.349  20.190   2.576  0.00  0.00     0.159 HD
HETATM   30  H   UNK N   1      27.610  20.961   4.073  0.00  0.00     0.159 HD
ENDBRANCH   7  26
TORSDOF 4
ENDMDL
MODEL 3
REMARK VINA RESULT:      -7.0      0.936      1.972
REMARK  4 active torsions:
REMARK  status: ('A' for Active; 'I' for Inactive)
REMARK    1  A    between atoms: C_6  and  N_14 
REMARK    2  A    between atoms: C_7  and  C_11 
REMARK       I    between atoms: C_11  and  N_13 
REMARK    3  A    between atoms: C_15  and  N_14 
REMARK    4  A    between atoms: C_22  and  O_25 
ROOT
HETATM    1  C   UNK N   1      29.402  22.905  -5.484  0.00  0.00     0.034 A 
HETATM    2  C   UNK N   1      30.519  22.102  -5.720  0.00  0.00     0.090 A 
HETATM    3  N   UNK N   1      30.255  21.210  -6.701  0.00  0.00    -0.352 N 
HETATM    4  C   UNK N   1      28.991  21.451  -7.074  0.00  0.00     0.117 A 
HETATM    5  C   UNK N   1      28.437  22.475  -6.358  0.00  0.00     0.037 A 
HETATM    6  C   UNK N   1      27.112  22.890  -6.603  0.00  0.00     0.059 A 
HETATM    7  C   UNK N   1      26.398  22.189  -7.623  0.00  0.00     0.074 A 
HETATM    8  C   UNK N   1      27.038  21.134  -8.318  0.00  0.00     0.109 A 
HETATM    9  N   UNK N   1      28.323  20.782  -8.036  0.00  0.00    -0.350 N 
ATOM     10  HN  UNK N   1      28.774  20.022  -8.546  1.00  0.00     0.166 HD
HETATM   11  H   UNK N   1      30.864  20.528  -7.066  0.00  0.00     0.166 HD
ENDROOT
BRANCH   6  12
HETATM   12  N   UNK N   1      26.455  23.954  -5.910  0.00  0.00    -0.383 N 
HETATM   13  H   UNK N   1      25.645  23.662  -5.435  0.00  0.00     0.160 HD
BRANCH  12  14
HETATM   14  C   UNK N   1      26.729  25.369  -5.756  0.00  0.00     0.090 C 
HETATM   15  C   UNK N   1      25.950  26.392  -6.579  0.00  0.00     0.012 C 
HETATM   16  C   UNK N   1      26.957  27.493  -6.968  0.00  0.00     0.044 C 
HETATM   17  C   UNK N   1      24.867  27.025  -5.692  0.00  0.00     0.011 C 
HETATM   18  C   UNK N   1      27.601  28.110  -5.706  0.00  0.00     0.059 C 
HETATM   19  C   UNK N   1      28.328  27.018  -4.887  0.00  0.00     0.044 C 
HETATM   20  C   UNK N   1      26.498  28.732  -4.842  0.00  0.00     0.042 C 
HETATM   21  C   UNK N   1      27.344  25.910  -4.465  0.00  0.00     0.012 C 
HETATM   22  C   UNK N   1      26.243  26.565  -3.615  0.00  0.00     0.011 C 
HETATM   23  C   UNK N   1      25.498  27.647  -4.426  0.00  0.00    -0.011 C 
BRANCH  18  24
HETATM   24  O   UNK N   1      28.513  29.096  -6.079  0.00  0.00    -0.390 OA
HETATM   25  H   UNK N   1      28.267  30.033  -6.015  0.00  0.00     0.210 HD
ENDBRANCH  18  24
ENDBRANCH  12  14
ENDBRANCH   6  12
BRANCH   7  26
HETATM   26  C   UNK N   1      24.988  22.513  -7.996  0.00  0.00     0.253 C 
HETATM   27  O   UNK N   1      24.743  23.549  -8.594  0.00  0.00    -0.268 OA
HETATM   28  N   UNK N   1      23.968  21.686  -7.685  0.00  0.00    -0.366 N 
HETATM   29  H   UNK N   1      23.039  21.951  -7.870  0.00  0.00     0.159 HD
HETATM   30  H   UNK N   1      24.155  20.813  -7.269  0.00  0.00     0.159 HD
ENDBRANCH   7  26
TORSDOF 4
ENDMDL
MODEL 4
REMARK VINA RESULT:      -7.0      2.281      3.833
REMARK  4 active torsions:
REMARK  status: ('A' for Active; 'I' for Inactive)
REMARK    1  A    between atoms: C_6  and  N_14 
REMARK    2  A    between atoms: C_7  and  C_11 
REMARK       I    between atoms: C_11  and  N_13 
REMARK    3  A    between atoms: C_15  and  N_14 
REMARK    4  A    between atoms: C_22  and  O_25 
ROOT
HETATM    1  C   UNK N   1      28.550  23.594  -7.823  0.00  0.00     0.034 A 
HETATM    2  C   UNK N   1      28.491  22.461  -8.637  0.00  0.00     0.090 A 
HETATM    3  N   UNK N   1      28.968  21.384  -7.975  0.00  0.00    -0.352 N 
HETATM    4  C   UNK N   1      29.322  21.835  -6.764  0.00  0.00     0.117 A 
HETATM    5  C   UNK N   1      29.083  23.174  -6.632  0.00  0.00     0.037 A 
HETATM    6  C   UNK N   1      29.380  23.843  -5.427  0.00  0.00     0.059 A 
HETATM    7  C   UNK N   1      29.936  23.052  -4.374  0.00  0.00     0.074 A 
HETATM    8  C   UNK N   1      30.161  21.671  -4.589  0.00  0.00     0.109 A 
HETATM    9  N   UNK N   1      29.850  21.082  -5.777  0.00  0.00    -0.350 N 
ATOM     10  HN  UNK N   1      30.014  20.084  -5.918  1.00  0.00     0.166 HD
HETATM   11  H   UNK N   1      29.041  20.462  -8.311  0.00  0.00     0.166 HD
ENDROOT
BRANCH   6  12
HETATM   12  N   UNK N   1      29.157  25.236  -5.197  0.00  0.00    -0.383 N 
HETATM   13  H   UNK N   1      29.989  25.760  -5.166  0.00  0.00     0.160 HD
BRANCH  12  14
HETATM   14  C   UNK N   1      27.967  26.042  -5.000  0.00  0.00     0.090 C 
HETATM   15  C   UNK N   1      27.626  27.155  -5.988  0.00  0.00     0.012 C 
HETATM   16  C   UNK N   1      27.063  28.319  -5.149  0.00  0.00     0.044 C 
HETATM   17  C   UNK N   1      26.518  26.662  -6.931  0.00  0.00     0.011 C 
HETATM   18  C   UNK N   1      25.838  27.855  -4.329  0.00  0.00     0.059 C 
HETATM   19  C   UNK N   1      26.233  26.693  -3.389  0.00  0.00     0.044 C 
HETATM   20  C   UNK N   1      24.751  27.371  -5.295  0.00  0.00     0.042 C 
HETATM   21  C   UNK N   1      26.783  25.502  -4.197  0.00  0.00     0.012 C 
HETATM   22  C   UNK N   1      25.679  25.049  -5.167  0.00  0.00     0.011 C 
HETATM   23  C   UNK N   1      25.287  26.196  -6.122  0.00  0.00    -0.011 C 
BRANCH  18  24
HETATM   24  O   UNK N   1      25.349  28.920  -3.573  0.00  0.00    -0.390 OA
HETATM   25  H   UNK N   1      24.398  28.986  -3.388  0.00  0.00     0.210 HD
ENDBRANCH  18  24
ENDBRANCH  12  14
ENDBRANCH   6  12
BRANCH   7  26
HETATM   26  C   UNK N   1      30.303  23.618  -3.041  0.00  0.00     0.253 C 
HETATM   27  O   UNK N   1      30.866  24.699  -2.976  0.00  0.00    -0.268 OA
HETATM   28  N   UNK N   1      30.030  22.959  -1.896  0.00  0.00    -0.366 N 
HETATM   29  H   UNK N   1      30.347  23.310  -1.032  0.00  0.00     0.159 HD
HETATM   30  H   UNK N   1      29.512  22.122  -1.924  0.00  0.00     0.159 HD
ENDBRANCH   7  26
TORSDOF 4
ENDMDL
MODEL 5
REMARK VINA RESULT:      -6.9     13.066     15.273
REMARK  4 active torsions:
REMARK  status: ('A' for Active; 'I' for Inactive)
REMARK    1  A    between atoms: C_6  and  N_14 
REMARK    2  A    between atoms: C_7  and  C_11 
REMARK       I    between atoms: C_11  and  N_13 
REMARK    3  A    between atoms: C_15  and  N_14 
REMARK    4  A    between atoms: C_22  and  O_25 
ROOT
HETATM    1  C   UNK N   1      29.726  16.979   8.214  0.00  0.00     0.034 A 
HETATM    2  C   UNK N   1      29.619  17.488   9.510  0.00  0.00     0.090 A 
HETATM    3  N   UNK N   1      28.793  18.558   9.525  0.00  0.00    -0.352 N 
HETATM    4  C   UNK N   1      28.389  18.717   8.258  0.00  0.00     0.117 A 
HETATM    5  C   UNK N   1      28.934  17.777   7.429  0.00  0.00     0.037 A 
HETATM    6  C   UNK N   1      28.628  17.767   6.053  0.00  0.00     0.059 A 
HETATM    7  C   UNK N   1      27.734  18.780   5.586  0.00  0.00     0.074 A 
HETATM    8  C   UNK N   1      27.216  19.724   6.505  0.00  0.00     0.109 A 
HETATM    9  N   UNK N   1      27.548  19.679   7.825  0.00  0.00    -0.350 N 
ATOM     10  HN  UNK N   1      27.165  20.364   8.478  1.00  0.00     0.166 HD
HETATM   11  H   UNK N   1      28.541  19.105  10.304  0.00  0.00     0.166 HD
ENDROOT
BRANCH   6  12
HETATM   12  N   UNK N   1      29.144  16.818   5.116  0.00  0.00    -0.383 N 
HETATM   13  H   UNK N   1      28.441  16.285   4.680  0.00  0.00     0.160 HD
BRANCH  12  14
HETATM   14  C   UNK N   1      30.480  16.476   4.669  0.00  0.00     0.090 C 
HETATM   15  C   UNK N   1      31.568  17.546   4.620  0.00  0.00     0.012 C 
HETATM   16  C   UNK N   1      32.398  17.261   3.353  0.00  0.00     0.044 C 
HETATM   17  C   UNK N   1      32.485  17.380   5.842  0.00  0.00     0.011 C 
HETATM   18  C   UNK N   1      32.974  15.827   3.391  0.00  0.00     0.059 C 
HETATM   19  C   UNK N   1      31.829  14.793   3.495  0.00  0.00     0.044 C 
HETATM   20  C   UNK N   1      33.883  15.693   4.618  0.00  0.00     0.042 C 
HETATM   21  C   UNK N   1      30.990  15.037   4.764  0.00  0.00     0.012 C 
HETATM   22  C   UNK N   1      31.929  14.912   5.974  0.00  0.00     0.011 C 
HETATM   23  C   UNK N   1      33.068  15.950   5.891  0.00  0.00    -0.011 C 
BRANCH  18  24
HETATM   24  O   UNK N   1      33.714  15.588   2.234  0.00  0.00    -0.390 OA
HETATM   25  H   UNK N   1      33.312  15.729   1.363  0.00  0.00     0.210 HD
ENDBRANCH  18  24
ENDBRANCH  12  14
ENDBRANCH   6  12
BRANCH   7  26
HETATM   26  C   UNK N   1      27.317  18.898   4.157  0.00  0.00     0.253 C 
HETATM   27  O   UNK N   1      26.842  17.931   3.583  0.00  0.00    -0.268 OA
HETATM   28  N   UNK N   1      27.456  20.054   3.475  0.00  0.00    -0.366 N 
HETATM   29  H   UNK N   1      27.247  20.093   2.514  0.00  0.00     0.159 HD
HETATM   30  H   UNK N   1      27.768  20.864   3.942  0.00  0.00     0.159 HD
ENDBRANCH   7  26
TORSDOF 4
ENDMDL
MODEL 6
REMARK VINA RESULT:      -6.9      1.755      2.321
REMARK  4 active torsions:
REMARK  status: ('A' for Active; 'I' for Inactive)
REMARK    1  A    between atoms: C_6  and  N_14 
REMARK    2  A    between atoms: C_7  and  C_11 
REMARK       I    between atoms: C_11  and  N_13 
REMARK    3  A    between atoms: C_15  and  N_14 
REMARK    4  A    between atoms: C_22  and  O_25 
ROOT
HETATM    1  C   UNK N   1      29.959  23.603  -2.938  0.00  0.00     0.034 A 
HETATM    2  C   UNK N   1      31.117  22.825  -2.984  0.00  0.00     0.090 A 
HETATM    3  N   UNK N   1      31.159  22.116  -4.133  0.00  0.00    -0.352 N 
HETATM    4  C   UNK N   1      30.043  22.444  -4.798  0.00  0.00     0.117 A 
HETATM    5  C   UNK N   1      29.286  23.347  -4.105  0.00  0.00     0.037 A 
HETATM    6  C   UNK N   1      28.072  23.827  -4.637  0.00  0.00     0.059 A 
HETATM    7  C   UNK N   1      27.688  23.322  -5.917  0.00  0.00     0.074 A 
HETATM    8  C   UNK N   1      28.521  22.383  -6.571  0.00  0.00     0.109 A 
HETATM    9  N   UNK N   1      29.686  21.959  -6.005  0.00  0.00    -0.350 N 
ATOM     10  HN  UNK N   1      30.280  21.285  -6.489  1.00  0.00     0.166 HD
HETATM   11  H   UNK N   1      31.861  21.490  -4.422  0.00  0.00     0.166 HD
ENDROOT
BRANCH   6  12
HETATM   12  N   UNK N   1      27.222  24.775  -3.987  0.00  0.00    -0.383 N 
HETATM   13  H   UNK N   1      26.569  24.357  -3.382  0.00  0.00     0.160 HD
BRANCH  12  14
HETATM   14  C   UNK N   1      27.118  26.221  -4.027  0.00  0.00     0.090 C 
HETATM   15  C   UNK N   1      28.381  27.079  -4.047  0.00  0.00     0.012 C 
HETATM   16  C   UNK N   1      28.083  28.309  -3.167  0.00  0.00     0.044 C 
HETATM   17  C   UNK N   1      28.629  27.565  -5.484  0.00  0.00     0.011 C 
HETATM   18  C   UNK N   1      26.841  29.064  -3.692  0.00  0.00     0.059 C 
HETATM   19  C   UNK N   1      25.609  28.131  -3.699  0.00  0.00     0.044 C 
HETATM   20  C   UNK N   1      27.119  29.537  -5.123  0.00  0.00     0.042 C 
HETATM   21  C   UNK N   1      25.866  26.898  -4.587  0.00  0.00     0.012 C 
HETATM   22  C   UNK N   1      26.157  27.403  -6.010  0.00  0.00     0.011 C 
HETATM   23  C   UNK N   1      27.395  28.324  -6.019  0.00  0.00    -0.011 C 
BRANCH  18  24
HETATM   24  O   UNK N   1      26.585  30.167  -2.879  0.00  0.00    -0.390 OA
HETATM   25  H   UNK N   1      26.734  30.110  -1.921  0.00  0.00     0.210 HD
ENDBRANCH  18  24
ENDBRANCH  12  14
ENDBRANCH   6  12
BRANCH   7  26
HETATM   26  C   UNK N   1      26.429  23.736  -6.608  0.00  0.00     0.253 C 
HETATM   27  O   UNK N   1      25.357  23.614  -6.038  0.00  0.00    -0.268 OA
HETATM   28  N   UNK N   1      26.446  24.243  -7.858  0.00  0.00    -0.366 N 
HETATM   29  H   UNK N   1      25.602  24.439  -8.327  0.00  0.00     0.159 HD
HETATM   30  H   UNK N   1      27.306  24.418  -8.305  0.00  0.00     0.159 HD
ENDBRANCH   7  26
TORSDOF 4
ENDMDL
MODEL 7
REMARK VINA RESULT:      -6.8     14.191     16.293
REMARK  4 active torsions:
REMARK  status: ('A' for Active; 'I' for Inactive)
REMARK    1  A    between atoms: C_6  and  N_14 
REMARK    2  A    between atoms: C_7  and  C_11 
REMARK       I    between atoms: C_11  and  N_13 
REMARK    3  A    between atoms: C_15  and  N_14 
REMARK    4  A    between atoms: C_22  and  O_25 
ROOT
HETATM    1  C   UNK N   1      29.377  17.413   8.626  0.00  0.00     0.034 A 
HETATM    2  C   UNK N   1      28.617  18.300   9.391  0.00  0.00     0.090 A 
HETATM    3  N   UNK N   1      27.702  18.922   8.615  0.00  0.00    -0.352 N 
HETATM    4  C   UNK N   1      27.886  18.432   7.382  0.00  0.00     0.117 A 
HETATM    5  C   UNK N   1      28.895  17.511   7.346  0.00  0.00     0.037 A 
HETATM    6  C   UNK N   1      29.242  16.871   6.139  0.00  0.00     0.059 A 
HETATM    7  C   UNK N   1      28.492  17.236   4.979  0.00  0.00     0.074 A 
HETATM    8  C   UNK N   1      27.465  18.204   5.094  0.00  0.00     0.109 A 
HETATM    9  N   UNK N   1      27.175  18.786   6.291  0.00  0.00    -0.350 N 
ATOM     10  HN  UNK N   1      26.430  19.480   6.361  1.00  0.00     0.166 HD
HETATM   11  H   UNK N   1      27.040  19.593   8.897  0.00  0.00     0.166 HD
ENDROOT
BRANCH   6  12
HETATM   12  N   UNK N   1      30.276  15.892   6.010  0.00  0.00    -0.383 N 
HETATM   13  H   UNK N   1      29.953  15.034   5.653  0.00  0.00     0.160 HD
BRANCH  12  14
HETATM   14  C   UNK N   1      31.698  15.893   6.293  0.00  0.00     0.090 C 
HETATM   15  C   UNK N   1      32.502  17.185   6.167  0.00  0.00     0.012 C 
HETATM   16  C   UNK N   1      33.867  16.789   5.571  0.00  0.00     0.044 C 
HETATM   17  C   UNK N   1      32.740  17.761   7.572  0.00  0.00     0.011 C 
HETATM   18  C   UNK N   1      34.565  15.737   6.462  0.00  0.00     0.059 C 
HETATM   19  C   UNK N   1      33.681  14.476   6.596  0.00  0.00     0.044 C 
HETATM   20  C   UNK N   1      34.790  16.340   7.854  0.00  0.00     0.042 C 
HETATM   21  C   UNK N   1      32.313  14.833   7.208  0.00  0.00     0.012 C 
HETATM   22  C   UNK N   1      32.571  15.449   8.593  0.00  0.00     0.011 C 
HETATM   23  C   UNK N   1      33.439  16.719   8.473  0.00  0.00    -0.011 C 
BRANCH  18  24
HETATM   24  O   UNK N   1      35.794  15.388   5.903  0.00  0.00    -0.390 OA
HETATM   25  H   UNK N   1      36.602  15.441   6.436  0.00  0.00     0.210 HD
ENDBRANCH  18  24
ENDBRANCH  12  14
ENDBRANCH   6  12
BRANCH   7  26
HETATM   26  C   UNK N   1      28.744  16.645   3.630  0.00  0.00     0.253 C 
HETATM   27  O   UNK N   1      29.860  16.711   3.139  0.00  0.00    -0.268 OA
HETATM   28  N   UNK N   1      27.762  16.038   2.932  0.00  0.00    -0.366 N 
HETATM   29  H   UNK N   1      27.927  15.722   2.014  0.00  0.00     0.159 HD
HETATM   30  H   UNK N   1      26.876  15.910   3.343  0.00  0.00     0.159 HD
ENDBRANCH   7  26
TORSDOF 4
ENDMDL
MODEL 8
REMARK VINA RESULT:      -6.8     13.429     15.799
REMARK  4 active torsions:
REMARK  status: ('A' for Active; 'I' for Inactive)
REMARK    1  A    between atoms: C_6  and  N_14 
REMARK    2  A    between atoms: C_7  and  C_11 
REMARK       I    between atoms: C_11  and  N_13 
REMARK    3  A    between atoms: C_15  and  N_14 
REMARK    4  A    between atoms: C_22  and  O_25 
ROOT
HETATM    1  C   UNK N   1      28.005  17.736   4.485  0.00  0.00     0.034 A 
HETATM    2  C   UNK N   1      27.096  18.732   4.124  0.00  0.00     0.090 A 
HETATM    3  N   UNK N   1      26.824  19.524   5.185  0.00  0.00    -0.352 N 
HETATM    4  C   UNK N   1      27.551  19.030   6.197  0.00  0.00     0.117 A 
HETATM    5  C   UNK N   1      28.284  17.943   5.812  0.00  0.00     0.037 A 
HETATM    6  C   UNK N   1      29.124  17.280   6.729  0.00  0.00     0.059 A 
HETATM    7  C   UNK N   1      29.160  17.801   8.059  0.00  0.00     0.074 A 
HETATM    8  C   UNK N   1      28.367  18.928   8.384  0.00  0.00     0.109 A 
HETATM    9  N   UNK N   1      27.577  19.527   7.451  0.00  0.00    -0.350 N 
ATOM     10  HN  UNK N   1      27.012  20.341   7.697  1.00  0.00     0.166 HD
HETATM   11  H   UNK N   1      26.219  20.299   5.211  0.00  0.00     0.166 HD
ENDROOT
BRANCH   6  12
HETATM   12  N   UNK N   1      29.930  16.142   6.413  0.00  0.00    -0.383 N 
HETATM   13  H   UNK N   1      29.634  15.321   6.866  0.00  0.00     0.160 HD
BRANCH  12  14
HETATM   14  C   UNK N   1      31.090  15.939   5.567  0.00  0.00     0.090 C 
HETATM   15  C   UNK N   1      31.007  15.000   4.367  0.00  0.00     0.012 C 
HETATM   16  C   UNK N   1      32.358  14.261   4.301  0.00  0.00     0.044 C 
HETATM   17  C   UNK N   1      30.855  15.838   3.088  0.00  0.00     0.011 C 
HETATM   18  C   UNK N   1      33.524  15.269   4.188  0.00  0.00     0.059 C 
HETATM   19  C   UNK N   1      33.524  16.226   5.403  0.00  0.00     0.044 C 
HETATM   20  C   UNK N   1      33.346  16.088   2.905  0.00  0.00     0.042 C 
HETATM   21  C   UNK N   1      32.193  16.997   5.487  0.00  0.00     0.012 C 
HETATM   22  C   UNK N   1      32.034  17.795   4.183  0.00  0.00     0.011 C 
HETATM   23  C   UNK N   1      32.016  16.849   2.963  0.00  0.00    -0.011 C 
BRANCH  18  24
HETATM   24  O   UNK N   1      34.736  14.581   4.137  0.00  0.00    -0.390 OA
HETATM   25  H   UNK N   1      35.426  14.765   4.794  0.00  0.00     0.210 HD
ENDBRANCH  18  24
ENDBRANCH  12  14
ENDBRANCH   6  12
BRANCH   7  26
HETATM   26  C   UNK N   1      30.001  17.206   9.142  0.00  0.00     0.253 C 
HETATM   27  O   UNK N   1      31.171  16.937   8.920  0.00  0.00    -0.268 OA
HETATM   28  N   UNK N   1      29.497  16.953  10.367  0.00  0.00    -0.366 N 
HETATM   29  H   UNK N   1      30.043  16.491  11.044  0.00  0.00     0.159 HD
HETATM   30  H   UNK N   1      28.578  17.231  10.586  0.00  0.00     0.159 HD
ENDBRANCH   7  26
TORSDOF 4
ENDMDL
MODEL 9
REMARK VINA RESULT:      -6.8     14.542     16.735
REMARK  4 active torsions:
REMARK  status: ('A' for Active; 'I' for Inactive)
REMARK    1  A    between atoms: C_6  and  N_14 
REMARK    2  A    between atoms: C_7  and  C_11 
REMARK       I    between atoms: C_11  and  N_13 
REMARK    3  A    between atoms: C_15  and  N_14 
REMARK    4  A    between atoms: C_22  and  O_25 
ROOT
HETATM    1  C   UNK N   1      30.577  15.960   4.589  0.00  0.00     0.034 A 
HETATM    2  C   UNK N   1      30.210  16.177   3.259  0.00  0.00     0.090 A 
HETATM    3  N   UNK N   1      29.296  17.168   3.181  0.00  0.00    -0.352 N 
HETATM    4  C   UNK N   1      29.091  17.567   4.444  0.00  0.00     0.117 A 
HETATM    5  C   UNK N   1      29.852  16.858   5.330  0.00  0.00     0.037 A 
HETATM    6  C   UNK N   1      29.789  17.129   6.712  0.00  0.00     0.059 A 
HETATM    7  C   UNK N   1      28.898  18.169   7.122  0.00  0.00     0.074 A 
HETATM    8  C   UNK N   1      28.138  18.856   6.145  0.00  0.00     0.109 A 
HETATM    9  N   UNK N   1      28.245  18.548   4.822  0.00  0.00    -0.350 N 
ATOM     10  HN  UNK N   1      27.694  19.053   4.127  1.00  0.00     0.166 HD
HETATM   11  H   UNK N   1      28.870  17.524   2.368  0.00  0.00     0.166 HD
ENDROOT
BRANCH   6  12
HETATM   12  N   UNK N   1      30.552  16.444   7.708  0.00  0.00    -0.383 N 
HETATM   13  H   UNK N   1      29.995  15.934   8.338  0.00  0.00     0.160 HD
BRANCH  12  14
HETATM   14  C   UNK N   1      31.971  16.340   7.988  0.00  0.00     0.090 C 
HETATM   15  C   UNK N   1      32.602  14.972   8.237  0.00  0.00     0.012 C 
HETATM   16  C   UNK N   1      33.647  15.175   9.353  0.00  0.00     0.044 C 
HETATM   17  C   UNK N   1      33.339  14.525   6.965  0.00  0.00     0.011 C 
HETATM   18  C   UNK N   1      34.683  16.243   8.938  0.00  0.00     0.059 C 
HETATM   19  C   UNK N   1      33.980  17.589   8.647  0.00  0.00     0.044 C 
HETATM   20  C   UNK N   1      35.401  15.769   7.669  0.00  0.00     0.042 C 
HETATM   21  C   UNK N   1      32.941  17.426   7.521  0.00  0.00     0.012 C 
HETATM   22  C   UNK N   1      33.685  16.935   6.269  0.00  0.00     0.011 C 
HETATM   23  C   UNK N   1      34.380  15.584   6.541  0.00  0.00    -0.011 C 
BRANCH  18  24
HETATM   24  O   UNK N   1      35.614  16.416   9.962  0.00  0.00    -0.390 OA
HETATM   25  H   UNK N   1      35.977  17.297  10.144  0.00  0.00     0.210 HD
ENDBRANCH  18  24
ENDBRANCH  12  14
ENDBRANCH   6  12
BRANCH   7  26
HETATM   26  C   UNK N   1      28.721  18.571   8.550  0.00  0.00     0.253 C 
HETATM   27  O   UNK N   1      29.694  18.902   9.210  0.00  0.00    -0.268 OA
HETATM   28  N   UNK N   1      27.506  18.575   9.136  0.00  0.00    -0.366 N 
HETATM   29  H   UNK N   1      27.419  18.769  10.097  0.00  0.00     0.159 HD
HETATM   30  H   UNK N   1      26.703  18.384   8.600  0.00  0.00     0.159 HD
ENDBRANCH   7  26
TORSDOF 4
ENDMDL
