MODEL 1
REMARK VINA RESULT:      -7.9      0.000      0.000
REMARK  7 active torsions:
REMARK  status: ('A' for Active; 'I' for Inactive)
REMARK    1  A    between atoms: C_2  and  N_3 
REMARK    2  A    between atoms: N_3  and  C_4 
REMARK    3  A    between atoms: N_3  and  C_6 
REMARK    4  A    between atoms: C_6  and  C_7 
REMARK    5  A    between atoms: C_7  and  N_8 
REMARK    6  A    between atoms: C_14  and  C_16 
REMARK    7  A    between atoms: C_16  and  C_17 
ROOT
HETATM    1  N   UNK N   1      35.318  14.768  10.914  0.00  0.00    -0.346 N 
HETATM    2  C   UNK N   1      34.231  13.855  10.584  0.00  0.00     0.132 C 
HETATM    3  C   UNK N   1      34.198  13.605   9.086  0.00  0.00     0.078 C 
HETATM    4  C   UNK N   1      34.114  14.939   8.444  0.00  0.00     0.027 A 
HETATM    5  C   UNK N   1      34.674  16.077   8.971  0.00  0.00     0.062 A 
HETATM    6  C   UNK N   1      34.324  17.112   8.121  0.00  0.00    -0.018 A 
HETATM    7  C   UNK N   1      33.514  16.529   7.155  0.00  0.00     0.040 A 
HETATM    8  N   UNK N   1      33.425  15.201   7.343  0.00  0.00    -0.358 N 
HETATM    9  C   UNK N   1      34.616  18.566   8.285  0.00  0.00     0.052 C 
HETATM   10  C   UNK N   1      35.448  15.946  10.212  0.00  0.00     0.256 C 
HETATM   11  O   UNK N   1      36.259  16.807  10.543  0.00  0.00    -0.267 OA
HETATM   12  H   UNK N   1      32.946  14.554   6.777  0.00  0.00     0.166 HD
ENDROOT
BRANCH   7  13
HETATM   13  C   UNK N   1      32.648  17.188   6.191  0.00  0.00     0.048 C 
BRANCH  13  14
HETATM   14  C   UNK N   1      31.321  16.969   6.310  0.00  0.00     0.047 A 
HETATM   15  C   UNK N   1      30.453  17.417   7.378  0.00  0.00     0.009 A 
HETATM   16  C   UNK N   1      30.718  18.168   8.516  0.00  0.00     0.057 A 
HETATM   17  C   UNK N   1      29.183  16.950   7.098  0.00  0.00     0.046 A 
HETATM   18  C   UNK N   1      29.646  18.437   9.383  0.00  0.00     0.117 A 
HETATM   19  C   UNK N   1      28.349  17.956   9.094  0.00  0.00     0.044 A 
HETATM   20  F   UNK N   1      29.861  19.154  10.508  0.00  0.00    -0.206 F 
HETATM   21  C   UNK N   1      28.109  17.202   7.936  0.00  0.00     0.033 A 
HETATM   22  N   UNK N   1      29.151  16.199   5.912  0.00  0.00    -0.322 N 
HETATM   23  C   UNK N   1      30.403  16.183   5.427  0.00  0.00     0.257 A 
HETATM   24  H   UNK N   1      28.362  15.767   5.513  0.00  0.00     0.169 HD
HETATM   25  O   UNK N   1      30.706  15.536   4.438  0.00  0.00    -0.267 OA
ENDBRANCH  13  14
ENDBRANCH   7  13
BRANCH   1  26
HETATM   26  C   UNK N   1      36.308  14.245  11.813  0.00  0.00     0.156 C 
BRANCH  26  27
HETATM   27  C   UNK N   1      36.176  14.622  13.261  0.00  0.00     0.292 C 
BRANCH  27  28
HETATM   28  N   UNK N   1      36.262  13.380  14.021  0.00  0.00     0.089 N 
BRANCH  28  29
HETATM   29  C   UNK N   1      36.842  13.554  15.362  0.00  0.00     0.268 C 
HETATM   30  C   UNK N   1      37.220  14.998  15.676  0.00  0.00     0.037 C 
ENDBRANCH  28  29
BRANCH  28  31
HETATM   31  C   UNK N   1      36.992  12.391  13.255  0.00  0.00     0.268 C 
HETATM   32  C   UNK N   1      37.580  11.378  14.214  0.00  0.00     0.037 C 
ENDBRANCH  28  31
ENDBRANCH  27  28
ENDBRANCH  26  27
ENDBRANCH   1  26
TORSDOF 7
ENDMDL
MODEL 2
REMARK VINA RESULT:      -7.3      3.123      9.298
REMARK  7 active torsions:
REMARK  status: ('A' for Active; 'I' for Inactive)
REMARK    1  A    between atoms: C_2  and  N_3 
REMARK    2  A    between atoms: N_3  and  C_4 
REMARK    3  A    between atoms: N_3  and  C_6 
REMARK    4  A    between atoms: C_6  and  C_7 
REMARK    5  A    between atoms: C_7  and  N_8 
REMARK    6  A    between atoms: C_14  and  C_16 
REMARK    7  A    between atoms: C_16  and  C_17 
ROOT
HETATM    1  N   UNK N   1      28.428  16.654   4.646  0.00  0.00    -0.346 N 
HETATM    2  C   UNK N   1      28.447  16.337   6.068  0.00  0.00     0.132 C 
HETATM    3  C   UNK N   1      29.341  17.318   6.809  0.00  0.00     0.078 C 
HETATM    4  C   UNK N   1      30.661  17.266   6.136  0.00  0.00     0.027 A 
HETATM    5  C   UNK N   1      30.827  17.011   4.796  0.00  0.00     0.062 A 
HETATM    6  C   UNK N   1      32.193  16.983   4.572  0.00  0.00    -0.018 A 
HETATM    7  C   UNK N   1      32.769  17.166   5.822  0.00  0.00     0.040 A 
HETATM    8  N   UNK N   1      31.826  17.373   6.757  0.00  0.00    -0.358 N 
HETATM    9  C   UNK N   1      32.902  16.668   3.297  0.00  0.00     0.052 C 
HETATM   10  C   UNK N   1      29.619  16.841   3.979  0.00  0.00     0.256 C 
HETATM   11  O   UNK N   1      29.660  16.972   2.758  0.00  0.00    -0.267 OA
HETATM   12  H   UNK N   1      31.972  17.566   7.712  0.00  0.00     0.166 HD
ENDROOT
BRANCH   7  13
HETATM   13  C   UNK N   1      34.150  16.944   6.216  0.00  0.00     0.048 C 
BRANCH  13  14
HETATM   14  C   UNK N   1      34.405  16.867   7.540  0.00  0.00     0.047 A 
HETATM   15  C   UNK N   1      34.343  15.686   8.375  0.00  0.00     0.009 A 
HETATM   16  C   UNK N   1      34.034  14.367   8.070  0.00  0.00     0.057 A 
HETATM   17  C   UNK N   1      34.662  16.076   9.662  0.00  0.00     0.046 A 
HETATM   18  C   UNK N   1      34.052  13.434   9.120  0.00  0.00     0.117 A 
HETATM   19  C   UNK N   1      34.377  13.838  10.435  0.00  0.00     0.044 A 
HETATM   20  F   UNK N   1      33.746  12.142   8.871  0.00  0.00    -0.206 F 
HETATM   21  C   UNK N   1      34.688  15.176  10.715  0.00  0.00     0.033 A 
HETATM   22  N   UNK N   1      34.917  17.454   9.742  0.00  0.00    -0.322 N 
HETATM   23  C   UNK N   1      34.763  17.953   8.505  0.00  0.00     0.257 A 
HETATM   24  H   UNK N   1      35.162  17.959  10.552  0.00  0.00     0.169 HD
HETATM   25  O   UNK N   1      34.843  19.148   8.274  0.00  0.00    -0.267 OA
ENDBRANCH  13  14
ENDBRANCH   7  13
BRANCH   1  26
HETATM   26  C   UNK N   1      27.136  16.968   4.103  0.00  0.00     0.156 C 
BRANCH  26  27
HETATM   27  C   UNK N   1      26.319  17.989   4.843  0.00  0.00     0.292 C 
BRANCH  27  28
HETATM   28  N   UNK N   1      26.665  19.286   4.275  0.00  0.00     0.089 N 
BRANCH  28  29
HETATM   29  C   UNK N   1      27.669  20.020   5.062  0.00  0.00     0.268 C 
HETATM   30  C   UNK N   1      27.098  21.231   5.792  0.00  0.00     0.037 C 
ENDBRANCH  28  29
BRANCH  28  31
HETATM   31  C   UNK N   1      25.463  20.072   4.089  0.00  0.00     0.268 C 
HETATM   32  C   UNK N   1      25.323  20.397   2.618  0.00  0.00     0.037 C 
ENDBRANCH  28  31
ENDBRANCH  27  28
ENDBRANCH  26  27
ENDBRANCH   1  26
TORSDOF 7
ENDMDL
MODEL 3
REMARK VINA RESULT:      -7.1      1.590      2.359
REMARK  7 active torsions:
REMARK  status: ('A' for Active; 'I' for Inactive)
REMARK    1  A    between atoms: C_2  and  N_3 
REMARK    2  A    between atoms: N_3  and  C_4 
REMARK    3  A    between atoms: N_3  and  C_6 
REMARK    4  A    between atoms: C_6  and  C_7 
REMARK    5  A    between atoms: C_7  and  N_8 
REMARK    6  A    between atoms: C_14  and  C_16 
REMARK    7  A    between atoms: C_16  and  C_17 
ROOT
HETATM    1  N   UNK N   1      35.806  13.936  11.099  0.00  0.00    -0.346 N 
HETATM    2  C   UNK N   1      36.519  15.202  10.998  0.00  0.00     0.132 C 
HETATM    3  C   UNK N   1      35.529  16.351  10.902  0.00  0.00     0.078 C 
HETATM    4  C   UNK N   1      34.640  16.038   9.757  0.00  0.00     0.027 A 
HETATM    5  C   UNK N   1      34.300  14.762   9.380  0.00  0.00     0.062 A 
HETATM    6  C   UNK N   1      33.518  14.887   8.245  0.00  0.00    -0.018 A 
HETATM    7  C   UNK N   1      33.488  16.249   7.974  0.00  0.00     0.040 A 
HETATM    8  N   UNK N   1      34.144  16.939   8.923  0.00  0.00    -0.358 N 
HETATM    9  C   UNK N   1      32.957  13.794   7.398  0.00  0.00     0.052 C 
HETATM   10  C   UNK N   1      34.803  13.651  10.199  0.00  0.00     0.256 C 
HETATM   11  O   UNK N   1      34.269  12.545  10.157  0.00  0.00    -0.267 OA
HETATM   12  H   UNK N   1      34.237  17.918   8.985  0.00  0.00     0.166 HD
ENDROOT
BRANCH   7  13
HETATM   13  C   UNK N   1      33.057  16.914   6.756  0.00  0.00     0.048 C 
BRANCH  13  14
HETATM   14  C   UNK N   1      31.726  16.997   6.542  0.00  0.00     0.047 A 
HETATM   15  C   UNK N   1      30.729  17.545   7.437  0.00  0.00     0.009 A 
HETATM   16  C   UNK N   1      30.849  18.120   8.695  0.00  0.00     0.057 A 
HETATM   17  C   UNK N   1      29.501  17.406   6.818  0.00  0.00     0.046 A 
HETATM   18  C   UNK N   1      29.672  18.557   9.326  0.00  0.00     0.117 A 
HETATM   19  C   UNK N   1      28.419  18.412   8.691  0.00  0.00     0.044 A 
HETATM   20  F   UNK N   1      29.741  19.113  10.556  0.00  0.00    -0.206 F 
HETATM   21  C   UNK N   1      28.327  17.829   7.418  0.00  0.00     0.033 A 
HETATM   22  N   UNK N   1      29.615  16.780   5.566  0.00  0.00    -0.322 N 
HETATM   23  C   UNK N   1      30.917  16.516   5.378  0.00  0.00     0.257 A 
HETATM   24  H   UNK N   1      28.879  16.574   4.945  0.00  0.00     0.169 HD
HETATM   25  O   UNK N   1      31.319  15.899   4.406  0.00  0.00    -0.267 OA
ENDBRANCH  13  14
ENDBRANCH   7  13
BRANCH   1  26
HETATM   26  C   UNK N   1      36.070  13.175  12.288  0.00  0.00     0.156 C 
BRANCH  26  27
HETATM   27  C   UNK N   1      35.456  13.676  13.564  0.00  0.00     0.292 C 
BRANCH  27  28
HETATM   28  N   UNK N   1      35.543  12.581  14.523  0.00  0.00     0.089 N 
BRANCH  28  29
HETATM   29  C   UNK N   1      35.257  11.263  13.933  0.00  0.00     0.268 C 
HETATM   30  C   UNK N   1      33.830  10.786  14.180  0.00  0.00     0.037 C 
ENDBRANCH  28  29
BRANCH  28  31
HETATM   31  C   UNK N   1      34.676  12.853  15.651  0.00  0.00     0.268 C 
HETATM   32  C   UNK N   1      35.415  12.499  16.923  0.00  0.00     0.037 C 
ENDBRANCH  28  31
ENDBRANCH  27  28
ENDBRANCH  26  27
ENDBRANCH   1  26
TORSDOF 7
ENDMDL
MODEL 4
REMARK VINA RESULT:      -7.1      3.586      5.858
REMARK  7 active torsions:
REMARK  status: ('A' for Active; 'I' for Inactive)
REMARK    1  A    between atoms: C_2  and  N_3 
REMARK    2  A    between atoms: N_3  and  C_4 
REMARK    3  A    between atoms: N_3  and  C_6 
REMARK    4  A    between atoms: C_6  and  C_7 
REMARK    5  A    between atoms: C_7  and  N_8 
REMARK    6  A    between atoms: C_14  and  C_16 
REMARK    7  A    between atoms: C_16  and  C_17 
ROOT
HETATM    1  N   UNK N   1      35.660  11.592  14.772  0.00  0.00    -0.346 N 
HETATM    2  C   UNK N   1      36.862  12.400  14.930  0.00  0.00     0.132 C 
HETATM    3  C   UNK N   1      36.605  13.816  14.443  0.00  0.00     0.078 C 
HETATM    4  C   UNK N   1      36.110  13.692  13.051  0.00  0.00     0.027 A 
HETATM    5  C   UNK N   1      35.370  12.629  12.594  0.00  0.00     0.062 A 
HETATM    6  C   UNK N   1      35.161  12.852  11.244  0.00  0.00    -0.018 A 
HETATM    7  C   UNK N   1      35.851  14.023  10.959  0.00  0.00     0.040 A 
HETATM    8  N   UNK N   1      36.392  14.542  12.075  0.00  0.00    -0.358 N 
HETATM    9  C   UNK N   1      34.480  11.954  10.266  0.00  0.00     0.052 C 
HETATM   10  C   UNK N   1      35.003  11.588  13.562  0.00  0.00     0.256 C 
HETATM   11  O   UNK N   1      34.070  10.820  13.338  0.00  0.00    -0.267 OA
HETATM   12  H   UNK N   1      36.897  15.385  12.151  0.00  0.00     0.166 HD
ENDROOT
BRANCH   7  13
HETATM   13  C   UNK N   1      36.206  14.563   9.658  0.00  0.00     0.048 C 
BRANCH  13  14
HETATM   14  C   UNK N   1      35.473  15.602   9.205  0.00  0.00     0.047 A 
HETATM   15  C   UNK N   1      34.989  15.809   7.856  0.00  0.00     0.009 A 
HETATM   16  C   UNK N   1      35.123  15.037   6.710  0.00  0.00     0.057 A 
HETATM   17  C   UNK N   1      34.303  17.009   7.845  0.00  0.00     0.046 A 
HETATM   18  C   UNK N   1      34.537  15.520   5.528  0.00  0.00     0.117 A 
HETATM   19  C   UNK N   1      33.838  16.747   5.521  0.00  0.00     0.044 A 
HETATM   20  F   UNK N   1      34.652  14.806   4.386  0.00  0.00    -0.206 F 
HETATM   21  C   UNK N   1      33.716  17.506   6.694  0.00  0.00     0.033 A 
HETATM   22  N   UNK N   1      34.313  17.628   9.106  0.00  0.00    -0.322 N 
HETATM   23  C   UNK N   1      35.006  16.826   9.930  0.00  0.00     0.257 A 
HETATM   24  H   UNK N   1      33.892  18.487   9.340  0.00  0.00     0.169 HD
HETATM   25  O   UNK N   1      35.253  17.140  11.082  0.00  0.00    -0.267 OA
ENDBRANCH  13  14
ENDBRANCH   7  13
BRANCH   1  26
HETATM   26  C   UNK N   1      35.132  11.031  15.985  0.00  0.00     0.156 C 
BRANCH  26  27
HETATM   27  C   UNK N   1      35.979  11.163  17.218  0.00  0.00     0.292 C 
BRANCH  27  28
HETATM   28  N   UNK N   1      35.064  11.428  18.322  0.00  0.00     0.089 N 
BRANCH  28  29
HETATM   29  C   UNK N   1      35.316  12.711  18.996  0.00  0.00     0.268 C 
HETATM   30  C   UNK N   1      35.253  13.911  18.057  0.00  0.00     0.037 C 
ENDBRANCH  28  29
BRANCH  28  31
HETATM   31  C   UNK N   1      35.101  10.324  19.260  0.00  0.00     0.268 C 
HETATM   32  C   UNK N   1      36.548   9.991  19.554  0.00  0.00     0.037 C 
ENDBRANCH  28  31
ENDBRANCH  27  28
ENDBRANCH  26  27
ENDBRANCH   1  26
TORSDOF 7
ENDMDL
MODEL 5
REMARK VINA RESULT:      -7.0      3.434      9.503
REMARK  7 active torsions:
REMARK  status: ('A' for Active; 'I' for Inactive)
REMARK    1  A    between atoms: C_2  and  N_3 
REMARK    2  A    between atoms: N_3  and  C_4 
REMARK    3  A    between atoms: N_3  and  C_6 
REMARK    4  A    between atoms: C_6  and  C_7 
REMARK    5  A    between atoms: C_7  and  N_8 
REMARK    6  A    between atoms: C_14  and  C_16 
REMARK    7  A    between atoms: C_16  and  C_17 
ROOT
HETATM    1  N   UNK N   1      34.257  15.077   9.545  0.00  0.00    -0.346 N 
HETATM    2  C   UNK N   1      34.964  16.057  10.359  0.00  0.00     0.132 C 
HETATM    3  C   UNK N   1      36.408  15.626  10.555  0.00  0.00     0.078 C 
HETATM    4  C   UNK N   1      36.359  14.257  11.121  0.00  0.00     0.027 A 
HETATM    5  C   UNK N   1      35.369  13.347  10.839  0.00  0.00     0.062 A 
HETATM    6  C   UNK N   1      35.642  12.226  11.603  0.00  0.00    -0.018 A 
HETATM    7  C   UNK N   1      36.763  12.562  12.352  0.00  0.00     0.040 A 
HETATM    8  N   UNK N   1      37.209  13.785  12.022  0.00  0.00    -0.358 N 
HETATM    9  C   UNK N   1      34.826  10.982  11.721  0.00  0.00     0.052 C 
HETATM   10  C   UNK N   1      34.335  13.742   9.874  0.00  0.00     0.256 C 
HETATM   11  O   UNK N   1      33.649  12.896   9.304  0.00  0.00    -0.267 OA
HETATM   12  H   UNK N   1      38.007  14.240  12.377  0.00  0.00     0.166 HD
ENDROOT
BRANCH   7  13
HETATM   13  C   UNK N   1      37.307  11.876  13.512  0.00  0.00     0.048 C 
BRANCH  13  14
HETATM   14  C   UNK N   1      36.767  12.179  14.712  0.00  0.00     0.047 A 
HETATM   15  C   UNK N   1      36.186  11.259  15.667  0.00  0.00     0.009 A 
HETATM   16  C   UNK N   1      36.037   9.880  15.631  0.00  0.00     0.057 A 
HETATM   17  C   UNK N   1      35.744  12.008  16.741  0.00  0.00     0.046 A 
HETATM   18  C   UNK N   1      35.412   9.263  16.728  0.00  0.00     0.117 A 
HETATM   19  C   UNK N   1      34.960  10.032  17.824  0.00  0.00     0.044 A 
HETATM   20  F   UNK N   1      35.236   7.923  16.730  0.00  0.00    -0.206 F 
HETATM   21  C   UNK N   1      35.126  11.425  17.835  0.00  0.00     0.033 A 
HETATM   22  N   UNK N   1      35.978  13.380  16.554  0.00  0.00    -0.322 N 
HETATM   23  C   UNK N   1      36.573  13.515  15.358  0.00  0.00     0.257 A 
HETATM   24  H   UNK N   1      35.749  14.105  17.181  0.00  0.00     0.169 HD
HETATM   25  O   UNK N   1      36.830  14.609  14.882  0.00  0.00    -0.267 OA
ENDBRANCH  13  14
ENDBRANCH   7  13
BRANCH   1  26
HETATM   26  C   UNK N   1      33.708  15.580   8.316  0.00  0.00     0.156 C 
BRANCH  26  27
HETATM   27  C   UNK N   1      34.088  16.979   7.926  0.00  0.00     0.292 C 
BRANCH  27  28
HETATM   28  N   UNK N   1      32.886  17.596   7.377  0.00  0.00     0.089 N 
BRANCH  28  29
HETATM   29  C   UNK N   1      31.788  17.706   8.350  0.00  0.00     0.268 C 
HETATM   30  C   UNK N   1      30.406  17.551   7.724  0.00  0.00     0.037 C 
ENDBRANCH  28  29
BRANCH  28  31
HETATM   31  C   UNK N   1      32.469  16.877   6.191  0.00  0.00     0.268 C 
HETATM   32  C   UNK N   1      33.038  17.580   4.977  0.00  0.00     0.037 C 
ENDBRANCH  28  31
ENDBRANCH  27  28
ENDBRANCH  26  27
ENDBRANCH   1  26
TORSDOF 7
ENDMDL
MODEL 6
REMARK VINA RESULT:      -7.0     15.473     18.810
REMARK  7 active torsions:
REMARK  status: ('A' for Active; 'I' for Inactive)
REMARK    1  A    between atoms: C_2  and  N_3 
REMARK    2  A    between atoms: N_3  and  C_4 
REMARK    3  A    between atoms: N_3  and  C_6 
REMARK    4  A    between atoms: C_6  and  C_7 
REMARK    5  A    between atoms: C_7  and  N_8 
REMARK    6  A    between atoms: C_14  and  C_16 
REMARK    7  A    between atoms: C_16  and  C_17 
ROOT
HETATM    1  N   UNK N   1      29.657  22.087  -5.777  0.00  0.00    -0.346 N 
HETATM    2  C   UNK N   1      30.137  23.021  -4.766  0.00  0.00     0.132 C 
HETATM    3  C   UNK N   1      29.002  23.407  -3.833  0.00  0.00     0.078 C 
HETATM    4  C   UNK N   1      27.911  23.921  -4.696  0.00  0.00     0.027 A 
HETATM    5  C   UNK N   1      27.673  23.476  -5.974  0.00  0.00     0.062 A 
HETATM    6  C   UNK N   1      26.626  24.238  -6.462  0.00  0.00    -0.018 A 
HETATM    7  C   UNK N   1      26.338  25.148  -5.452  0.00  0.00     0.040 A 
HETATM    8  N   UNK N   1      27.103  24.919  -4.371  0.00  0.00    -0.358 N 
HETATM    9  C   UNK N   1      26.034  24.204  -7.832  0.00  0.00     0.052 C 
HETATM   10  C   UNK N   1      28.514  22.385  -6.484  0.00  0.00     0.256 C 
HETATM   11  O   UNK N   1      28.148  21.701  -7.437  0.00  0.00    -0.267 OA
HETATM   12  H   UNK N   1      27.069  25.397  -3.511  0.00  0.00     0.166 HD
ENDROOT
BRANCH   7  13
HETATM   13  C   UNK N   1      25.530  26.353  -5.532  0.00  0.00     0.048 C 
BRANCH  13  14
HETATM   14  C   UNK N   1      26.117  27.509  -5.157  0.00  0.00     0.047 A 
HETATM   15  C   UNK N   1      27.094  28.276  -5.902  0.00  0.00     0.009 A 
HETATM   16  C   UNK N   1      27.665  28.061  -7.149  0.00  0.00     0.057 A 
HETATM   17  C   UNK N   1      27.429  29.372  -5.130  0.00  0.00     0.046 A 
HETATM   18  C   UNK N   1      28.607  28.999  -7.604  0.00  0.00     0.117 A 
HETATM   19  C   UNK N   1      28.949  30.117  -6.811  0.00  0.00     0.044 A 
HETATM   20  F   UNK N   1      29.197  28.823  -8.807  0.00  0.00    -0.206 F 
HETATM   21  C   UNK N   1      28.354  30.312  -5.556  0.00  0.00     0.033 A 
HETATM   22  N   UNK N   1      26.748  29.377  -3.903  0.00  0.00    -0.322 N 
HETATM   23  C   UNK N   1      25.971  28.282  -3.884  0.00  0.00     0.257 A 
HETATM   24  H   UNK N   1      26.825  30.054  -3.191  0.00  0.00     0.169 HD
HETATM   25  O   UNK N   1      25.314  27.971  -2.904  0.00  0.00    -0.267 OA
ENDBRANCH  13  14
ENDBRANCH   7  13
BRANCH   1  26
HETATM   26  C   UNK N   1      30.311  20.808  -5.792  0.00  0.00     0.156 C 
BRANCH  26  27
HETATM   27  C   UNK N   1      31.266  20.521  -4.669  0.00  0.00     0.292 C 
BRANCH  27  28
HETATM   28  N   UNK N   1      32.604  20.551  -5.246  0.00  0.00     0.089 N 
BRANCH  28  29
HETATM   29  C   UNK N   1      32.649  20.089  -6.643  0.00  0.00     0.268 C 
HETATM   30  C   UNK N   1      33.821  19.158  -6.935  0.00  0.00     0.037 C 
ENDBRANCH  28  29
BRANCH  28  31
HETATM   31  C   UNK N   1      33.512  19.792  -4.410  0.00  0.00     0.268 C 
HETATM   32  C   UNK N   1      34.280  20.757  -3.533  0.00  0.00     0.037 C 
ENDBRANCH  28  31
ENDBRANCH  27  28
ENDBRANCH  26  27
ENDBRANCH   1  26
TORSDOF 7
ENDMDL
MODEL 7
REMARK VINA RESULT:      -6.9      2.600      3.649
REMARK  7 active torsions:
REMARK  status: ('A' for Active; 'I' for Inactive)
REMARK    1  A    between atoms: C_2  and  N_3 
REMARK    2  A    between atoms: N_3  and  C_4 
REMARK    3  A    between atoms: N_3  and  C_6 
REMARK    4  A    between atoms: C_6  and  C_7 
REMARK    5  A    between atoms: C_7  and  N_8 
REMARK    6  A    between atoms: C_14  and  C_16 
REMARK    7  A    between atoms: C_16  and  C_17 
ROOT
HETATM    1  N   UNK N   1      34.297  15.010   8.692  0.00  0.00    -0.346 N 
HETATM    2  C   UNK N   1      33.651  13.808   8.181  0.00  0.00     0.132 C 
HETATM    3  C   UNK N   1      32.972  14.104   6.855  0.00  0.00     0.078 C 
HETATM    4  C   UNK N   1      32.062  15.250   7.102  0.00  0.00     0.027 A 
HETATM    5  C   UNK N   1      32.312  16.241   8.019  0.00  0.00     0.062 A 
HETATM    6  C   UNK N   1      31.211  17.079   7.997  0.00  0.00    -0.018 A 
HETATM    7  C   UNK N   1      30.330  16.495   7.096  0.00  0.00     0.040 A 
HETATM    8  N   UNK N   1      30.876  15.404   6.532  0.00  0.00    -0.358 N 
HETATM    9  C   UNK N   1      30.950  18.265   8.863  0.00  0.00     0.052 C 
HETATM   10  C   UNK N   1      33.584  16.187   8.752  0.00  0.00     0.256 C 
HETATM   11  O   UNK N   1      34.039  17.189   9.300  0.00  0.00    -0.267 OA
HETATM   12  H   UNK N   1      30.476  14.833   5.836  0.00  0.00     0.166 HD
ENDROOT
BRANCH   7  13
HETATM   13  C   UNK N   1      28.921  16.790   6.897  0.00  0.00     0.048 C 
BRANCH  13  14
HETATM   14  C   UNK N   1      28.603  17.593   5.860  0.00  0.00     0.047 A 
HETATM   15  C   UNK N   1      27.919  18.868   5.919  0.00  0.00     0.009 A 
HETATM   16  C   UNK N   1      27.433  19.594   6.997  0.00  0.00     0.057 A 
HETATM   17  C   UNK N   1      27.791  19.325   4.621  0.00  0.00     0.046 A 
HETATM   18  C   UNK N   1      26.798  20.817   6.726  0.00  0.00     0.117 A 
HETATM   19  C   UNK N   1      26.667  21.280   5.397  0.00  0.00     0.044 A 
HETATM   20  F   UNK N   1      26.299  21.552   7.745  0.00  0.00    -0.206 F 
HETATM   21  C   UNK N   1      27.170  20.527   4.326  0.00  0.00     0.033 A 
HETATM   22  N   UNK N   1      28.334  18.422   3.692  0.00  0.00    -0.322 N 
HETATM   23  C   UNK N   1      28.813  17.382   4.393  0.00  0.00     0.257 A 
HETATM   24  H   UNK N   1      28.358  18.531   2.714  0.00  0.00     0.169 HD
HETATM   25  O   UNK N   1      29.278  16.394   3.849  0.00  0.00    -0.267 OA
ENDBRANCH  13  14
ENDBRANCH   7  13
BRANCH   1  26
HETATM   26  C   UNK N   1      35.717  14.910   8.884  0.00  0.00     0.156 C 
BRANCH  26  27
HETATM   27  C   UNK N   1      36.243  13.595   9.382  0.00  0.00     0.292 C 
BRANCH  27  28
HETATM   28  N   UNK N   1      37.051  13.891  10.559  0.00  0.00     0.089 N 
BRANCH  28  29
HETATM   29  C   UNK N   1      38.394  13.290  10.513  0.00  0.00     0.268 C 
HETATM   30  C   UNK N   1      38.691  12.572   9.202  0.00  0.00     0.037 C 
ENDBRANCH  28  29
BRANCH  28  31
HETATM   31  C   UNK N   1      36.335  13.492  11.754  0.00  0.00     0.268 C 
HETATM   32  C   UNK N   1      36.034  14.729  12.571  0.00  0.00     0.037 C 
ENDBRANCH  28  31
ENDBRANCH  27  28
ENDBRANCH  26  27
ENDBRANCH   1  26
TORSDOF 7
ENDMDL
MODEL 8
REMARK VINA RESULT:      -6.9      3.006      9.051
REMARK  7 active torsions:
REMARK  status: ('A' for Active; 'I' for Inactive)
REMARK    1  A    between atoms: C_2  and  N_3 
REMARK    2  A    between atoms: N_3  and  C_4 
REMARK    3  A    between atoms: N_3  and  C_6 
REMARK    4  A    between atoms: C_6  and  C_7 
REMARK    5  A    between atoms: C_7  and  N_8 
REMARK    6  A    between atoms: C_14  and  C_16 
REMARK    7  A    between atoms: C_16  and  C_17 
ROOT
HETATM    1  N   UNK N   1      34.033  14.620   9.462  0.00  0.00    -0.346 N 
HETATM    2  C   UNK N   1      34.584  15.720  10.242  0.00  0.00     0.132 C 
HETATM    3  C   UNK N   1      36.053  15.466  10.536  0.00  0.00     0.078 C 
HETATM    4  C   UNK N   1      36.121  14.137  11.190  0.00  0.00     0.027 A 
HETATM    5  C   UNK N   1      35.253  13.107  10.921  0.00  0.00     0.062 A 
HETATM    6  C   UNK N   1      35.602  12.072  11.771  0.00  0.00    -0.018 A 
HETATM    7  C   UNK N   1      36.637  12.575  12.549  0.00  0.00     0.040 A 
HETATM    8  N   UNK N   1      36.966  13.819  12.160  0.00  0.00    -0.358 N 
HETATM    9  C   UNK N   1      34.920  10.754  11.932  0.00  0.00     0.052 C 
HETATM   10  C   UNK N   1      34.237  13.324   9.883  0.00  0.00     0.256 C 
HETATM   11  O   UNK N   1      33.679  12.374   9.338  0.00  0.00    -0.267 OA
HETATM   12  H   UNK N   1      37.689  14.381  12.522  0.00  0.00     0.166 HD
ENDROOT
BRANCH   7  13
HETATM   13  C   UNK N   1      37.186  12.027  13.777  0.00  0.00     0.048 C 
BRANCH  13  14
HETATM   14  C   UNK N   1      36.497  12.260  14.914  0.00  0.00     0.047 A 
HETATM   15  C   UNK N   1      36.520  13.463  15.720  0.00  0.00     0.009 A 
HETATM   16  C   UNK N   1      37.209  14.657  15.558  0.00  0.00     0.057 A 
HETATM   17  C   UNK N   1      35.680  13.251  16.797  0.00  0.00     0.046 A 
HETATM   18  C   UNK N   1      37.027  15.652  16.533  0.00  0.00     0.117 A 
HETATM   19  C   UNK N   1      36.168  15.431  17.633  0.00  0.00     0.044 A 
HETATM   20  F   UNK N   1      37.686  16.826  16.421  0.00  0.00    -0.206 F 
HETATM   21  C   UNK N   1      35.482  14.215  17.771  0.00  0.00     0.033 A 
HETATM   22  N   UNK N   1      35.107  11.970  16.770  0.00  0.00    -0.322 N 
HETATM   23  C   UNK N   1      35.579  11.354  15.674  0.00  0.00     0.257 A 
HETATM   24  H   UNK N   1      34.480  11.594  17.429  0.00  0.00     0.169 HD
HETATM   25  O   UNK N   1      35.318  10.189  15.423  0.00  0.00    -0.267 OA
ENDBRANCH  13  14
ENDBRANCH   7  13
BRANCH   1  26
HETATM   26  C   UNK N   1      33.502  14.982   8.177  0.00  0.00     0.156 C 
BRANCH  26  27
HETATM   27  C   UNK N   1      33.324  16.448   7.906  0.00  0.00     0.292 C 
BRANCH  27  28
HETATM   28  N   UNK N   1      32.265  16.559   6.910  0.00  0.00     0.089 N 
BRANCH  28  29
HETATM   29  C   UNK N   1      31.035  17.178   7.429  0.00  0.00     0.268 C 
HETATM   30  C   UNK N   1      31.257  17.991   8.699  0.00  0.00     0.037 C 
ENDBRANCH  28  29
BRANCH  28  31
HETATM   31  C   UNK N   1      31.998  15.255   6.338  0.00  0.00     0.268 C 
HETATM   32  C   UNK N   1      30.579  15.241   5.812  0.00  0.00     0.037 C 
ENDBRANCH  28  31
ENDBRANCH  27  28
ENDBRANCH  26  27
ENDBRANCH   1  26
TORSDOF 7
ENDMDL
MODEL 9
REMARK VINA RESULT:      -6.8      3.000      5.332
REMARK  7 active torsions:
REMARK  status: ('A' for Active; 'I' for Inactive)
REMARK    1  A    between atoms: C_2  and  N_3 
REMARK    2  A    between atoms: N_3  and  C_4 
REMARK    3  A    between atoms: N_3  and  C_6 
REMARK    4  A    between atoms: C_6  and  C_7 
REMARK    5  A    between atoms: C_7  and  N_8 
REMARK    6  A    between atoms: C_14  and  C_16 
REMARK    7  A    between atoms: C_16  and  C_17 
ROOT
HETATM    1  N   UNK N   1      36.105  11.055  14.061  0.00  0.00    -0.346 N 
HETATM    2  C   UNK N   1      37.055  12.149  14.215  0.00  0.00     0.132 C 
HETATM    3  C   UNK N   1      36.383  13.472  13.891  0.00  0.00     0.078 C 
HETATM    4  C   UNK N   1      35.809  13.325  12.532  0.00  0.00     0.027 A 
HETATM    5  C   UNK N   1      35.341  12.137  12.024  0.00  0.00     0.062 A 
HETATM    6  C   UNK N   1      34.953  12.397  10.722  0.00  0.00    -0.018 A 
HETATM    7  C   UNK N   1      35.273  13.732  10.508  0.00  0.00     0.040 A 
HETATM    8  N   UNK N   1      35.758  14.292  11.628  0.00  0.00    -0.358 N 
HETATM    9  C   UNK N   1      34.447  11.425   9.709  0.00  0.00     0.052 C 
HETATM   10  C   UNK N   1      35.361  10.963  12.906  0.00  0.00     0.256 C 
HETATM   11  O   UNK N   1      34.651   9.987  12.673  0.00  0.00    -0.267 OA
HETATM   12  H   UNK N   1      36.023  15.233  11.753  0.00  0.00     0.166 HD
ENDROOT
BRANCH   7  13
HETATM   13  C   UNK N   1      35.344  14.448   9.245  0.00  0.00     0.048 C 
BRANCH  13  14
HETATM   14  C   UNK N   1      34.559  15.538   9.113  0.00  0.00     0.047 A 
HETATM   15  C   UNK N   1      33.355  15.657   8.318  0.00  0.00     0.009 A 
HETATM   16  C   UNK N   1      32.694  14.735   7.518  0.00  0.00     0.057 A 
HETATM   17  C   UNK N   1      32.892  16.951   8.465  0.00  0.00     0.046 A 
HETATM   18  C   UNK N   1      31.532  15.162   6.854  0.00  0.00     0.117 A 
HETATM   19  C   UNK N   1      31.063  16.486   7.006  0.00  0.00     0.044 A 
HETATM   20  F   UNK N   1      30.863  14.301   6.056  0.00  0.00    -0.206 F 
HETATM   21  C   UNK N   1      31.749  17.397   7.823  0.00  0.00     0.033 A 
HETATM   22  N   UNK N   1      33.726  17.713   9.300  0.00  0.00    -0.322 N 
HETATM   23  C   UNK N   1      34.727  16.908   9.691  0.00  0.00     0.257 A 
HETATM   24  H   UNK N   1      33.600  18.657   9.550  0.00  0.00     0.169 HD
HETATM   25  O   UNK N   1      35.659  17.315  10.366  0.00  0.00    -0.267 OA
ENDBRANCH  13  14
ENDBRANCH   7  13
BRANCH   1  26
HETATM   26  C   UNK N   1      35.865  10.278  15.246  0.00  0.00     0.156 C 
BRANCH  26  27
HETATM   27  C   UNK N   1      34.958  10.882  16.280  0.00  0.00     0.292 C 
BRANCH  27  28
HETATM   28  N   UNK N   1      35.705  10.885  17.533  0.00  0.00     0.089 N 
BRANCH  28  29
HETATM   29  C   UNK N   1      35.641   9.605  18.255  0.00  0.00     0.268 C 
HETATM   30  C   UNK N   1      34.223   9.198  18.642  0.00  0.00     0.037 C 
ENDBRANCH  28  29
BRANCH  28  31
HETATM   31  C   UNK N   1      35.253  11.982  18.364  0.00  0.00     0.268 C 
HETATM   32  C   UNK N   1      34.987  13.180  17.478  0.00  0.00     0.037 C 
ENDBRANCH  28  31
ENDBRANCH  27  28
ENDBRANCH  26  27
ENDBRANCH   1  26
TORSDOF 7
ENDMDL
