MODEL 1
REMARK VINA RESULT:      -8.8      0.000      0.000
REMARK  5 active torsions:
REMARK  status: ('A' for Active; 'I' for Inactive)
REMARK    1  A    between atoms: C_3  and  C_28 
REMARK    2  A    between atoms: C_6  and  C_7 
REMARK       I    between atoms: C_12  and  N_15 
REMARK    3  A    between atoms: N_15  and  C_16 
REMARK    4  A    between atoms: C_19  and  N_22 
REMARK       I    between atoms: C_28  and  N_30 
REMARK    5  A    between atoms: N_30  and  C_31 
ROOT
HETATM    1  C   UNK N   1      35.321  16.613  10.934  0.00  0.00     0.247 C 
HETATM    2  C   UNK N   1      36.384  15.659  10.589  0.00  0.00     0.078 C 
HETATM    3  N   UNK N   1      37.196  14.907  10.246  0.00  0.00    -0.196 NA
ENDROOT
BRANCH   1   4
HETATM    4  N   UNK N   1      34.539  16.745   9.745  0.00  0.00    -0.345 N 
HETATM    5  C   UNK N   1      34.557  17.729   8.811  0.00  0.00     0.252 C 
HETATM    6  O   UNK N   1      35.306  18.689   8.904  0.00  0.00    -0.268 OA
HETATM    7  H   UNK N   1      33.895  16.018   9.581  0.00  0.00     0.163 HD
BRANCH   5   8
HETATM    8  C   UNK N   1      33.625  17.563   7.689  0.00  0.00     0.032 A 
HETATM    9  C   UNK N   1      32.290  17.541   8.056  0.00  0.00     0.018 A 
HETATM   10  C   UNK N   1      31.312  17.390   7.137  0.00  0.00     0.014 A 
HETATM   11  C   UNK N   1      31.598  17.242   5.790  0.00  0.00    -0.009 A 
HETATM   12  C   UNK N   1      32.943  17.256   5.360  0.00  0.00     0.014 A 
HETATM   13  C   UNK N   1      33.972  17.423   6.324  0.00  0.00     0.018 A 
BRANCH  11  14
HETATM   14  C   UNK N   1      30.414  17.096   4.949  0.00  0.00     0.060 A 
HETATM   15  C   UNK N   1      30.406  16.535   3.670  0.00  0.00     0.048 A 
HETATM   16  C   UNK N   1      29.178  16.467   2.999  0.00  0.00     0.108 A 
HETATM   17  N   UNK N   1      28.050  16.958   3.586  0.00  0.00    -0.202 N 
HETATM   18  C   UNK N   1      28.096  17.513   4.832  0.00  0.00     0.683 A 
ATOM     19  HN  UNK N   1      27.161  16.909   3.088  1.00  0.00     0.183 HD
HETATM   20  N   UNK N   1      29.256  17.556   5.484  0.00  0.00    -0.191 N 
HETATM   21  N   UNK N   1      26.939  18.040   5.460  0.00  0.00    -0.192 N 
ATOM     22  HN  UNK N   1      29.274  17.952   6.424  1.00  0.00     0.184 HD
HETATM   23  H   UNK N   1      26.934  18.201   6.431  0.00  0.00     0.184 HD
BRANCH  21  24
HETATM   24  C   UNK N   1      25.803  18.332   4.694  0.00  0.00     0.049 A 
HETATM   25  C   UNK N   1      24.784  17.384   4.613  0.00  0.00     0.032 A 
HETATM   26  C   UNK N   1      23.541  17.741   4.143  0.00  0.00     0.031 A 
HETATM   27  C   UNK N   1      23.291  19.059   3.750  0.00  0.00     0.030 A 
HETATM   28  C   UNK N   1      24.347  19.990   3.733  0.00  0.00     0.031 A 
HETATM   29  C   UNK N   1      25.608  19.625   4.211  0.00  0.00     0.032 A 
BRANCH  27  30
HETATM   30  N   UNK N   1      21.960  19.445   3.436  0.00  0.00    -0.377 N 
HETATM   31  C   UNK N   1      21.728  20.490   2.452  0.00  0.00     0.149 C 
HETATM   32  C   UNK N   1      20.652  20.027   1.478  0.00  0.00     0.187 C 
HETATM   33  O   UNK N   1      19.506  19.706   2.222  0.00  0.00    -0.388 OA
HETATM   34  C   UNK N   1      19.796  18.483   2.853  0.00  0.00     0.187 C 
HETATM   35  C   UNK N   1      20.825  18.710   3.966  0.00  0.00     0.149 C 
ENDBRANCH  27  30
ENDBRANCH  21  24
ENDBRANCH  11  14
ENDBRANCH   5   8
ENDBRANCH   1   4
TORSDOF 5
ENDMDL
MODEL 2
REMARK VINA RESULT:      -8.7      2.396     11.841
REMARK  5 active torsions:
REMARK  status: ('A' for Active; 'I' for Inactive)
REMARK    1  A    between atoms: C_3  and  C_28 
REMARK    2  A    between atoms: C_6  and  C_7 
REMARK       I    between atoms: C_12  and  N_15 
REMARK    3  A    between atoms: N_15  and  C_16 
REMARK    4  A    between atoms: C_19  and  N_22 
REMARK       I    between atoms: C_28  and  N_30 
REMARK    5  A    between atoms: N_30  and  C_31 
ROOT
HETATM    1  C   UNK N   1      20.997  20.025   2.672  0.00  0.00     0.247 C 
HETATM    2  C   UNK N   1      20.979  20.396   1.250  0.00  0.00     0.078 C 
HETATM    3  N   UNK N   1      21.039  20.670   0.126  0.00  0.00    -0.196 NA
ENDROOT
BRANCH   1   4
HETATM    4  N   UNK N   1      22.363  19.727   2.962  0.00  0.00    -0.345 N 
HETATM    5  C   UNK N   1      23.417  20.572   3.090  0.00  0.00     0.252 C 
HETATM    6  O   UNK N   1      23.292  21.779   2.953  0.00  0.00    -0.268 OA
HETATM    7  H   UNK N   1      22.570  18.772   3.084  0.00  0.00     0.163 HD
BRANCH   5   8
HETATM    8  C   UNK N   1      24.706  19.944   3.404  0.00  0.00     0.032 A 
HETATM    9  C   UNK N   1      24.614  18.617   3.790  0.00  0.00     0.018 A 
HETATM   10  C   UNK N   1      25.713  17.903   4.116  0.00  0.00     0.014 A 
HETATM   11  C   UNK N   1      26.978  18.464   4.088  0.00  0.00    -0.009 A 
HETATM   12  C   UNK N   1      27.130  19.814   3.703  0.00  0.00     0.014 A 
HETATM   13  C   UNK N   1      25.977  20.564   3.352  0.00  0.00     0.018 A 
BRANCH  11  14
HETATM   14  C   UNK N   1      28.041  17.538   4.467  0.00  0.00     0.060 A 
HETATM   15  C   UNK N   1      27.845  16.323   5.127  0.00  0.00     0.048 A 
HETATM   16  C   UNK N   1      28.977  15.550   5.415  0.00  0.00     0.108 A 
HETATM   17  N   UNK N   1      30.217  16.001   5.072  0.00  0.00    -0.202 N 
HETATM   18  C   UNK N   1      30.374  17.201   4.441  0.00  0.00     0.683 A 
ATOM     19  HN  UNK N   1      31.037  15.434   5.290  1.00  0.00     0.183 HD
HETATM   20  N   UNK N   1      29.299  17.926   4.143  0.00  0.00    -0.191 N 
HETATM   21  N   UNK N   1      31.654  17.696   4.084  0.00  0.00    -0.192 N 
ATOM     22  HN  UNK N   1      29.427  18.810   3.650  1.00  0.00     0.184 HD
HETATM   23  H   UNK N   1      31.736  18.420   3.421  0.00  0.00     0.184 HD
BRANCH  21  24
HETATM   24  C   UNK N   1      32.801  17.154   4.677  0.00  0.00     0.049 A 
HETATM   25  C   UNK N   1      33.172  17.589   5.949  0.00  0.00     0.032 A 
HETATM   26  C   UNK N   1      34.088  16.875   6.685  0.00  0.00     0.031 A 
HETATM   27  C   UNK N   1      34.649  15.705   6.166  0.00  0.00     0.030 A 
HETATM   28  C   UNK N   1      34.354  15.322   4.843  0.00  0.00     0.031 A 
HETATM   29  C   UNK N   1      33.423  16.049   4.097  0.00  0.00     0.032 A 
BRANCH  27  30
HETATM   30  N   UNK N   1      35.454  14.892   7.008  0.00  0.00    -0.377 N 
HETATM   31  C   UNK N   1      35.315  14.994   8.451  0.00  0.00     0.149 C 
HETATM   32  C   UNK N   1      35.219  13.593   9.043  0.00  0.00     0.187 C 
HETATM   33  O   UNK N   1      36.362  12.880   8.648  0.00  0.00    -0.388 OA
HETATM   34  C   UNK N   1      36.167  12.576   7.289  0.00  0.00     0.187 C 
HETATM   35  C   UNK N   1      36.305  13.854   6.453  0.00  0.00     0.149 C 
ENDBRANCH  27  30
ENDBRANCH  21  24
ENDBRANCH  11  14
ENDBRANCH   5   8
ENDBRANCH   1   4
TORSDOF 5
ENDMDL
MODEL 3
REMARK VINA RESULT:      -8.5      2.528     12.042
REMARK  5 active torsions:
REMARK  status: ('A' for Active; 'I' for Inactive)
REMARK    1  A    between atoms: C_3  and  C_28 
REMARK    2  A    between atoms: C_6  and  C_7 
REMARK       I    between atoms: C_12  and  N_15 
REMARK    3  A    between atoms: N_15  and  C_16 
REMARK    4  A    between atoms: C_19  and  N_22 
REMARK       I    between atoms: C_28  and  N_30 
REMARK    5  A    between atoms: N_30  and  C_31 
ROOT
HETATM    1  C   UNK N   1      22.459  20.520   2.335  0.00  0.00     0.247 C 
HETATM    2  C   UNK N   1      21.261  20.404   3.178  0.00  0.00     0.078 C 
HETATM    3  N   UNK N   1      20.362  20.304   3.903  0.00  0.00    -0.196 NA
ENDROOT
BRANCH   1   4
HETATM    4  N   UNK N   1      23.558  20.276   3.214  0.00  0.00    -0.345 N 
HETATM    5  C   UNK N   1      24.889  20.405   2.981  0.00  0.00     0.252 C 
HETATM    6  O   UNK N   1      25.318  20.772   1.898  0.00  0.00    -0.268 OA
HETATM    7  H   UNK N   1      23.315  19.968   4.118  0.00  0.00     0.163 HD
BRANCH   5   8
HETATM    8  C   UNK N   1      25.770  20.081   4.109  0.00  0.00     0.032 A 
HETATM    9  C   UNK N   1      26.317  18.810   4.058  0.00  0.00     0.018 A 
HETATM   10  C   UNK N   1      27.145  18.362   5.027  0.00  0.00     0.014 A 
HETATM   11  C   UNK N   1      27.478  19.149   6.117  0.00  0.00    -0.009 A 
HETATM   12  C   UNK N   1      26.948  20.453   6.220  0.00  0.00     0.014 A 
HETATM   13  C   UNK N   1      26.085  20.928   5.199  0.00  0.00     0.018 A 
BRANCH  11  14
HETATM   14  C   UNK N   1      28.387  18.497   7.056  0.00  0.00     0.060 A 
HETATM   15  C   UNK N   1      28.358  18.664   8.442  0.00  0.00     0.048 A 
HETATM   16  C   UNK N   1      29.302  17.961   9.201  0.00  0.00     0.108 A 
HETATM   17  N   UNK N   1      30.220  17.165   8.582  0.00  0.00    -0.202 N 
HETATM   18  C   UNK N   1      30.229  17.036   7.223  0.00  0.00     0.683 A 
ATOM     19  HN  UNK N   1      30.907  16.659   9.141  1.00  0.00     0.183 HD
HETATM   20  N   UNK N   1      29.317  17.682   6.501  0.00  0.00    -0.191 N 
HETATM   21  N   UNK N   1      31.180  16.223   6.555  0.00  0.00    -0.192 N 
ATOM     22  HN  UNK N   1      29.319  17.560   5.488  1.00  0.00     0.184 HD
HETATM   23  H   UNK N   1      31.023  15.943   5.624  0.00  0.00     0.184 HD
BRANCH  21  24
HETATM   24  C   UNK N   1      32.343  15.820   7.223  0.00  0.00     0.049 A 
HETATM   25  C   UNK N   1      33.293  16.782   7.562  0.00  0.00     0.032 A 
HETATM   26  C   UNK N   1      34.280  16.490   8.475  0.00  0.00     0.031 A 
HETATM   27  C   UNK N   1      34.333  15.228   9.073  0.00  0.00     0.030 A 
HETATM   28  C   UNK N   1      33.439  14.224   8.653  0.00  0.00     0.031 A 
HETATM   29  C   UNK N   1      32.437  14.523   7.727  0.00  0.00     0.032 A 
BRANCH  27  30
HETATM   30  N   UNK N   1      35.248  15.006  10.137  0.00  0.00    -0.377 N 
HETATM   31  C   UNK N   1      34.770  15.023  11.510  0.00  0.00     0.149 C 
HETATM   32  C   UNK N   1      35.325  13.809  12.245  0.00  0.00     0.187 C 
HETATM   33  O   UNK N   1      36.725  13.849  12.147  0.00  0.00    -0.388 OA
HETATM   34  C   UNK N   1      37.022  13.480  10.823  0.00  0.00     0.187 C 
HETATM   35  C   UNK N   1      36.620  14.613   9.872  0.00  0.00     0.149 C 
ENDBRANCH  27  30
ENDBRANCH  21  24
ENDBRANCH  11  14
ENDBRANCH   5   8
ENDBRANCH   1   4
TORSDOF 5
ENDMDL
MODEL 4
REMARK VINA RESULT:      -8.2      2.039     11.985
REMARK  5 active torsions:
REMARK  status: ('A' for Active; 'I' for Inactive)
REMARK    1  A    between atoms: C_3  and  C_28 
REMARK    2  A    between atoms: C_6  and  C_7 
REMARK       I    between atoms: C_12  and  N_15 
REMARK    3  A    between atoms: N_15  and  C_16 
REMARK    4  A    between atoms: C_19  and  N_22 
REMARK       I    between atoms: C_28  and  N_30 
REMARK    5  A    between atoms: N_30  and  C_31 
ROOT
HETATM    1  C   UNK N   1      21.320  19.912   3.302  0.00  0.00     0.247 C 
HETATM    2  C   UNK N   1      21.237  20.291   1.885  0.00  0.00     0.078 C 
HETATM    3  N   UNK N   1      21.241  20.561   0.758  0.00  0.00    -0.196 NA
ENDROOT
BRANCH   1   4
HETATM    4  N   UNK N   1      22.641  19.396   3.472  0.00  0.00    -0.345 N 
HETATM    5  C   UNK N   1      23.833  20.034   3.355  0.00  0.00     0.252 C 
HETATM    6  O   UNK N   1      23.901  21.218   3.061  0.00  0.00    -0.268 OA
HETATM    7  H   UNK N   1      22.695  18.441   3.706  0.00  0.00     0.163 HD
BRANCH   5   8
HETATM    8  C   UNK N   1      25.025  19.214   3.605  0.00  0.00     0.032 A 
HETATM    9  C   UNK N   1      26.203  19.935   3.696  0.00  0.00     0.018 A 
HETATM   10  C   UNK N   1      27.386  19.322   3.919  0.00  0.00     0.014 A 
HETATM   11  C   UNK N   1      27.475  17.948   4.060  0.00  0.00    -0.009 A 
HETATM   12  C   UNK N   1      26.305  17.163   3.976  0.00  0.00     0.014 A 
HETATM   13  C   UNK N   1      25.060  17.807   3.749  0.00  0.00     0.018 A 
BRANCH  11  14
HETATM   14  C   UNK N   1      28.833  17.468   4.300  0.00  0.00     0.060 A 
HETATM   15  C   UNK N   1      29.625  16.807   3.358  0.00  0.00     0.048 A 
HETATM   16  C   UNK N   1      30.912  16.415   3.752  0.00  0.00     0.108 A 
HETATM   17  N   UNK N   1      31.343  16.663   5.021  0.00  0.00    -0.202 N 
HETATM   18  C   UNK N   1      30.537  17.299   5.921  0.00  0.00     0.683 A 
ATOM     19  HN  UNK N   1      32.279  16.371   5.302  1.00  0.00     0.183 HD
HETATM   20  N   UNK N   1      29.324  17.696   5.543  0.00  0.00    -0.191 N 
HETATM   21  N   UNK N   1      30.958  17.559   7.250  0.00  0.00    -0.192 N 
ATOM     22  HN  UNK N   1      28.739  18.191   6.217  1.00  0.00     0.184 HD
HETATM   23  H   UNK N   1      30.482  18.225   7.798  0.00  0.00     0.184 HD
BRANCH  21  24
HETATM   24  C   UNK N   1      32.053  16.866   7.781  0.00  0.00     0.049 A 
HETATM   25  C   UNK N   1      33.255  17.547   7.969  0.00  0.00     0.032 A 
HETATM   26  C   UNK N   1      34.241  17.007   8.762  0.00  0.00     0.031 A 
HETATM   27  C   UNK N   1      34.042  15.774   9.389  0.00  0.00     0.030 A 
HETATM   28  C   UNK N   1      32.872  15.038   9.116  0.00  0.00     0.031 A 
HETATM   29  C   UNK N   1      31.872  15.589   8.312  0.00  0.00     0.032 A 
BRANCH  27  30
HETATM   30  N   UNK N   1      34.996  15.320  10.338  0.00  0.00    -0.377 N 
HETATM   31  C   UNK N   1      34.556  14.922  11.665  0.00  0.00     0.149 C 
HETATM   32  C   UNK N   1      35.199  13.588  12.024  0.00  0.00     0.187 C 
HETATM   33  O   UNK N   1      36.591  13.740  11.926  0.00  0.00    -0.388 OA
HETATM   34  C   UNK N   1      36.871  13.774  10.549  0.00  0.00     0.187 C 
HETATM   35  C   UNK N   1      36.381  15.101   9.958  0.00  0.00     0.149 C 
ENDBRANCH  27  30
ENDBRANCH  21  24
ENDBRANCH  11  14
ENDBRANCH   5   8
ENDBRANCH   1   4
TORSDOF 5
ENDMDL
MODEL 5
REMARK VINA RESULT:      -7.8      4.122     12.879
REMARK  5 active torsions:
REMARK  status: ('A' for Active; 'I' for Inactive)
REMARK    1  A    between atoms: C_3  and  C_28 
REMARK    2  A    between atoms: C_6  and  C_7 
REMARK       I    between atoms: C_12  and  N_15 
REMARK    3  A    between atoms: N_15  and  C_16 
REMARK    4  A    between atoms: C_19  and  N_22 
REMARK       I    between atoms: C_28  and  N_30 
REMARK    5  A    between atoms: N_30  and  C_31 
ROOT
HETATM    1  C   UNK N   1      27.403  19.968   4.363  0.00  0.00     0.247 C 
HETATM    2  C   UNK N   1      27.278  20.976   5.424  0.00  0.00     0.078 C 
HETATM    3  N   UNK N   1      27.246  21.748   6.288  0.00  0.00    -0.196 NA
ENDROOT
BRANCH   1   4
HETATM    4  N   UNK N   1      28.579  19.226   4.691  0.00  0.00    -0.345 N 
HETATM    5  C   UNK N   1      28.884  17.934   4.411  0.00  0.00     0.252 C 
HETATM    6  O   UNK N   1      28.113  17.209   3.801  0.00  0.00    -0.268 OA
HETATM    7  H   UNK N   1      29.265  19.723   5.193  0.00  0.00     0.163 HD
BRANCH   5   8
HETATM    8  C   UNK N   1      30.194  17.469   4.885  0.00  0.00     0.032 A 
HETATM    9  C   UNK N   1      30.173  16.899   6.147  0.00  0.00     0.018 A 
HETATM   10  C   UNK N   1      31.301  16.428   6.723  0.00  0.00     0.014 A 
HETATM   11  C   UNK N   1      32.527  16.500   6.083  0.00  0.00    -0.009 A 
HETATM   12  C   UNK N   1      32.606  17.073   4.795  0.00  0.00     0.014 A 
HETATM   13  C   UNK N   1      31.420  17.560   4.186  0.00  0.00     0.018 A 
BRANCH  11  14
HETATM   14  C   UNK N   1      33.628  15.937   6.858  0.00  0.00     0.060 A 
HETATM   15  C   UNK N   1      34.776  15.359   6.312  0.00  0.00     0.048 A 
HETATM   16  C   UNK N   1      35.742  14.868   7.200  0.00  0.00     0.108 A 
HETATM   17  N   UNK N   1      35.534  14.943   8.545  0.00  0.00    -0.202 N 
HETATM   18  C   UNK N   1      34.393  15.501   9.045  0.00  0.00     0.683 A 
ATOM     19  HN  UNK N   1      36.240  14.579   9.185  1.00  0.00     0.183 HD
HETATM   20  N   UNK N   1      33.486  15.993   8.205  0.00  0.00    -0.191 N 
HETATM   21  N   UNK N   1      34.149  15.583  10.440  0.00  0.00    -0.192 N 
ATOM     22  HN  UNK N   1      32.648  16.429   8.591  1.00  0.00     0.184 HD
HETATM   23  H   UNK N   1      33.463  16.198  10.786  0.00  0.00     0.184 HD
BRANCH  21  24
HETATM   24  C   UNK N   1      34.886  14.784  11.323  0.00  0.00     0.049 A 
HETATM   25  C   UNK N   1      35.765  15.399  12.215  0.00  0.00     0.032 A 
HETATM   26  C   UNK N   1      36.264  14.700  13.289  0.00  0.00     0.031 A 
HETATM   27  C   UNK N   1      35.888  13.370  13.498  0.00  0.00     0.030 A 
HETATM   28  C   UNK N   1      35.086  12.718  12.542  0.00  0.00     0.031 A 
HETATM   29  C   UNK N   1      34.580  13.430  11.452  0.00  0.00     0.032 A 
BRANCH  27  30
HETATM   30  N   UNK N   1      36.274  12.725  14.704  0.00  0.00    -0.377 N 
HETATM   31  C   UNK N   1      35.563  13.023  15.937  0.00  0.00     0.149 C 
HETATM   32  C   UNK N   1      35.219  11.717  16.641  0.00  0.00     0.187 C 
HETATM   33  O   UNK N   1      36.414  11.012  16.850  0.00  0.00    -0.388 OA
HETATM   34  C   UNK N   1      36.782  10.510  15.589  0.00  0.00     0.187 C 
HETATM   35  C   UNK N   1      37.263  11.661  14.699  0.00  0.00     0.149 C 
ENDBRANCH  27  30
ENDBRANCH  21  24
ENDBRANCH  11  14
ENDBRANCH   5   8
ENDBRANCH   1   4
TORSDOF 5
ENDMDL
MODEL 6
REMARK VINA RESULT:      -7.8      3.303     12.758
REMARK  5 active torsions:
REMARK  status: ('A' for Active; 'I' for Inactive)
REMARK    1  A    between atoms: C_3  and  C_28 
REMARK    2  A    between atoms: C_6  and  C_7 
REMARK       I    between atoms: C_12  and  N_15 
REMARK    3  A    between atoms: N_15  and  C_16 
REMARK    4  A    between atoms: C_19  and  N_22 
REMARK       I    between atoms: C_28  and  N_30 
REMARK    5  A    between atoms: N_30  and  C_31 
ROOT
HETATM    1  C   UNK N   1      24.581  19.371   4.394  0.00  0.00     0.247 C 
HETATM    2  C   UNK N   1      24.712  20.174   3.170  0.00  0.00     0.078 C 
HETATM    3  N   UNK N   1      24.888  20.788   2.203  0.00  0.00    -0.196 NA
ENDROOT
BRANCH   1   4
HETATM    4  N   UNK N   1      25.903  18.912   4.680  0.00  0.00    -0.345 N 
HETATM    5  C   UNK N   1      26.310  17.701   5.140  0.00  0.00     0.252 C 
HETATM    6  O   UNK N   1      25.516  16.806   5.382  0.00  0.00    -0.268 OA
HETATM    7  H   UNK N   1      26.621  19.567   4.523  0.00  0.00     0.163 HD
BRANCH   5   8
HETATM    8  C   UNK N   1      27.758  17.541   5.324  0.00  0.00     0.032 A 
HETATM    9  C   UNK N   1      28.144  17.312   6.634  0.00  0.00     0.018 A 
HETATM   10  C   UNK N   1      29.443  17.149   6.964  0.00  0.00     0.014 A 
HETATM   11  C   UNK N   1      30.447  17.210   6.013  0.00  0.00    -0.009 A 
HETATM   12  C   UNK N   1      30.110  17.442   4.661  0.00  0.00     0.014 A 
HETATM   13  C   UNK N   1      28.745  17.606   4.311  0.00  0.00     0.018 A 
BRANCH  11  14
HETATM   14  C   UNK N   1      31.787  17.006   6.557  0.00  0.00     0.060 A 
HETATM   15  C   UNK N   1      32.975  17.296   5.883  0.00  0.00     0.048 A 
HETATM   16  C   UNK N   1      34.179  17.042   6.553  0.00  0.00     0.108 A 
HETATM   17  N   UNK N   1      34.164  16.510   7.808  0.00  0.00    -0.202 N 
HETATM   18  C   UNK N   1      32.984  16.224   8.432  0.00  0.00     0.683 A 
ATOM     19  HN  UNK N   1      35.045  16.324   8.288  1.00  0.00     0.183 HD
HETATM   20  N   UNK N   1      31.838  16.488   7.809  0.00  0.00    -0.191 N 
HETATM   21  N   UNK N   1      32.941  15.661   9.732  0.00  0.00    -0.192 N 
ATOM     22  HN  UNK N   1      30.962  16.293   8.293  1.00  0.00     0.184 HD
HETATM   23  H   UNK N   1      32.110  15.696  10.259  0.00  0.00     0.184 HD
BRANCH  21  24
HETATM   24  C   UNK N   1      34.085  15.055  10.266  0.00  0.00     0.049 A 
HETATM   25  C   UNK N   1      34.841  15.752  11.208  0.00  0.00     0.032 A 
HETATM   26  C   UNK N   1      35.772  15.092  11.976  0.00  0.00     0.031 A 
HETATM   27  C   UNK N   1      35.962  13.716  11.821  0.00  0.00     0.030 A 
HETATM   28  C   UNK N   1      35.275  13.031  10.800  0.00  0.00     0.031 A 
HETATM   29  C   UNK N   1      34.330  13.704  10.022  0.00  0.00     0.032 A 
BRANCH  27  30
HETATM   30  N   UNK N   1      36.797  13.027  12.741  0.00  0.00    -0.377 N 
HETATM   31  C   UNK N   1      36.714  13.337  14.159  0.00  0.00     0.149 C 
HETATM   32  C   UNK N   1      36.637  12.037  14.949  0.00  0.00     0.187 C 
HETATM   33  O   UNK N   1      37.762  11.265  14.619  0.00  0.00    -0.388 OA
HETATM   34  C   UNK N   1      37.515  10.770  13.326  0.00  0.00     0.187 C 
HETATM   35  C   UNK N   1      37.623  11.913  12.310  0.00  0.00     0.149 C 
ENDBRANCH  27  30
ENDBRANCH  21  24
ENDBRANCH  11  14
ENDBRANCH   5   8
ENDBRANCH   1   4
TORSDOF 5
ENDMDL
MODEL 7
REMARK VINA RESULT:      -7.8      7.807     13.480
REMARK  5 active torsions:
REMARK  status: ('A' for Active; 'I' for Inactive)
REMARK    1  A    between atoms: C_3  and  C_28 
REMARK    2  A    between atoms: C_6  and  C_7 
REMARK       I    between atoms: C_12  and  N_15 
REMARK    3  A    between atoms: N_15  and  C_16 
REMARK    4  A    between atoms: C_19  and  N_22 
REMARK       I    between atoms: C_28  and  N_30 
REMARK    5  A    between atoms: N_30  and  C_31 
ROOT
HETATM    1  C   UNK N   1      32.850   7.948  21.211  0.00  0.00     0.247 C 
HETATM    2  C   UNK N   1      31.479   7.764  20.715  0.00  0.00     0.078 C 
HETATM    3  N   UNK N   1      30.415   7.664  20.265  0.00  0.00    -0.196 NA
ENDROOT
BRANCH   1   4
HETATM    4  N   UNK N   1      33.444   8.894  20.320  0.00  0.00    -0.345 N 
HETATM    5  C   UNK N   1      34.085   8.679  19.144  0.00  0.00     0.252 C 
HETATM    6  O   UNK N   1      34.237   7.555  18.691  0.00  0.00    -0.268 OA
HETATM    7  H   UNK N   1      33.379   9.835  20.601  0.00  0.00     0.163 HD
BRANCH   5   8
HETATM    8  C   UNK N   1      34.578   9.879  18.456  0.00  0.00     0.032 A 
HETATM    9  C   UNK N   1      34.688   9.743  17.082  0.00  0.00     0.018 A 
HETATM   10  C   UNK N   1      35.131  10.758  16.310  0.00  0.00     0.014 A 
HETATM   11  C   UNK N   1      35.503  11.975  16.855  0.00  0.00    -0.009 A 
HETATM   12  C   UNK N   1      35.411  12.169  18.250  0.00  0.00     0.014 A 
HETATM   13  C   UNK N   1      34.938  11.106  19.062  0.00  0.00     0.018 A 
BRANCH  11  14
HETATM   14  C   UNK N   1      35.951  12.950  15.865  0.00  0.00     0.060 A 
HETATM   15  C   UNK N   1      36.636  14.132  16.160  0.00  0.00     0.048 A 
HETATM   16  C   UNK N   1      36.998  14.957  15.088  0.00  0.00     0.108 A 
HETATM   17  N   UNK N   1      36.663  14.609  13.813  0.00  0.00    -0.202 N 
HETATM   18  C   UNK N   1      35.980  13.454  13.562  0.00  0.00     0.683 A 
ATOM     19  HN  UNK N   1      36.926  15.218  13.038  1.00  0.00     0.183 HD
HETATM   20  N   UNK N   1      35.657  12.654  14.575  0.00  0.00    -0.191 N 
HETATM   21  N   UNK N   1      35.610  13.074  12.246  0.00  0.00    -0.192 N 
ATOM     22  HN  UNK N   1      35.168  11.782  14.373  1.00  0.00     0.184 HD
HETATM   23  H   UNK N   1      35.351  12.143  12.055  0.00  0.00     0.184 HD
BRANCH  21  24
HETATM   24  C   UNK N   1      35.614  14.027  11.220  0.00  0.00     0.049 A 
HETATM   25  C   UNK N   1      36.298  13.742  10.038  0.00  0.00     0.032 A 
HETATM   26  C   UNK N   1      36.072  14.494   8.909  0.00  0.00     0.031 A 
HETATM   27  C   UNK N   1      35.151  15.545   8.937  0.00  0.00     0.030 A 
HETATM   28  C   UNK N   1      34.539  15.899  10.155  0.00  0.00     0.031 A 
HETATM   29  C   UNK N   1      34.769  15.133  11.300  0.00  0.00     0.032 A 
BRANCH  27  30
HETATM   30  N   UNK N   1      34.806  16.192   7.720  0.00  0.00    -0.377 N 
HETATM   31  C   UNK N   1      34.910  15.466   6.465  0.00  0.00     0.149 C 
HETATM   32  C   UNK N   1      33.634  15.679   5.659  0.00  0.00     0.187 C 
HETATM   33  O   UNK N   1      33.461  17.061   5.484  0.00  0.00    -0.388 OA
HETATM   34  C   UNK N   1      33.037  17.550   6.732  0.00  0.00     0.187 C 
HETATM   35  C   UNK N   1      34.206  17.515   7.722  0.00  0.00     0.149 C 
ENDBRANCH  27  30
ENDBRANCH  21  24
ENDBRANCH  11  14
ENDBRANCH   5   8
ENDBRANCH   1   4
TORSDOF 5
ENDMDL
MODEL 8
REMARK VINA RESULT:      -7.7      2.448     11.870
REMARK  5 active torsions:
REMARK  status: ('A' for Active; 'I' for Inactive)
REMARK    1  A    between atoms: C_3  and  C_28 
REMARK    2  A    between atoms: C_6  and  C_7 
REMARK       I    between atoms: C_12  and  N_15 
REMARK    3  A    between atoms: N_15  and  C_16 
REMARK    4  A    between atoms: C_19  and  N_22 
REMARK       I    between atoms: C_28  and  N_30 
REMARK    5  A    between atoms: N_30  and  C_31 
ROOT
HETATM    1  C   UNK N   1      21.875  18.216   4.346  0.00  0.00     0.247 C 
HETATM    2  C   UNK N   1      21.415  18.406   5.728  0.00  0.00     0.078 C 
HETATM    3  N   UNK N   1      21.125  18.568   6.839  0.00  0.00    -0.196 NA
ENDROOT
BRANCH   1   4
HETATM    4  N   UNK N   1      23.300  18.270   4.417  0.00  0.00    -0.345 N 
HETATM    5  C   UNK N   1      24.155  19.153   3.840  0.00  0.00     0.252 C 
HETATM    6  O   UNK N   1      23.756  20.067   3.135  0.00  0.00    -0.268 OA
HETATM    7  H   UNK N   1      23.723  17.567   4.961  0.00  0.00     0.163 HD
BRANCH   5   8
HETATM    8  C   UNK N   1      25.580  18.938   4.120  0.00  0.00     0.032 A 
HETATM    9  C   UNK N   1      25.968  17.609   4.114  0.00  0.00     0.018 A 
HETATM   10  C   UNK N   1      27.247  17.249   4.360  0.00  0.00     0.014 A 
HETATM   11  C   UNK N   1      28.225  18.190   4.635  0.00  0.00    -0.009 A 
HETATM   12  C   UNK N   1      27.885  19.560   4.654  0.00  0.00     0.014 A 
HETATM   13  C   UNK N   1      26.543  19.940   4.388  0.00  0.00     0.018 A 
BRANCH  11  14
HETATM   14  C   UNK N   1      29.546  17.614   4.869  0.00  0.00     0.060 A 
HETATM   15  C   UNK N   1      30.346  17.025   3.887  0.00  0.00     0.048 A 
HETATM   16  C   UNK N   1      31.592  16.522   4.281  0.00  0.00     0.108 A 
HETATM   17  N   UNK N   1      31.978  16.598   5.587  0.00  0.00    -0.202 N 
HETATM   18  C   UNK N   1      31.164  17.167   6.523  0.00  0.00     0.683 A 
ATOM     19  HN  UNK N   1      32.885  16.225   5.867  1.00  0.00     0.183 HD
HETATM   20  N   UNK N   1      29.990  17.669   6.148  0.00  0.00    -0.191 N 
HETATM   21  N   UNK N   1      31.538  17.248   7.889  0.00  0.00    -0.192 N 
ATOM     22  HN  UNK N   1      29.401  18.113   6.852  1.00  0.00     0.184 HD
HETATM   23  H   UNK N   1      31.070  17.870   8.493  0.00  0.00     0.184 HD
BRANCH  21  24
HETATM   24  C   UNK N   1      32.572  16.440   8.377  0.00  0.00     0.049 A 
HETATM   25  C   UNK N   1      33.769  17.041   8.768  0.00  0.00     0.032 A 
HETATM   26  C   UNK N   1      34.677  16.343   9.530  0.00  0.00     0.031 A 
HETATM   27  C   UNK N   1      34.404  15.030   9.922  0.00  0.00     0.030 A 
HETATM   28  C   UNK N   1      33.246  14.388   9.441  0.00  0.00     0.031 A 
HETATM   29  C   UNK N   1      32.325  15.099   8.668  0.00  0.00     0.032 A 
BRANCH  27  30
HETATM   30  N   UNK N   1      35.270  14.392  10.850  0.00  0.00    -0.377 N 
HETATM   31  C   UNK N   1      36.114  15.199  11.717  0.00  0.00     0.149 C 
HETATM   32  C   UNK N   1      36.001  14.680  13.145  0.00  0.00     0.187 C 
HETATM   33  O   UNK N   1      36.356  13.322  13.139  0.00  0.00    -0.388 OA
HETATM   34  C   UNK N   1      35.267  12.649  12.557  0.00  0.00     0.187 C 
HETATM   35  C   UNK N   1      35.218  12.955  11.055  0.00  0.00     0.149 C 
ENDBRANCH  27  30
ENDBRANCH  21  24
ENDBRANCH  11  14
ENDBRANCH   5   8
ENDBRANCH   1   4
TORSDOF 5
ENDMDL
MODEL 9
REMARK VINA RESULT:      -7.6      4.524      7.913
REMARK  5 active torsions:
REMARK  status: ('A' for Active; 'I' for Inactive)
REMARK    1  A    between atoms: C_3  and  C_28 
REMARK    2  A    between atoms: C_6  and  C_7 
REMARK       I    between atoms: C_12  and  N_15 
REMARK    3  A    between atoms: N_15  and  C_16 
REMARK    4  A    between atoms: C_19  and  N_22 
REMARK       I    between atoms: C_28  and  N_30 
REMARK    5  A    between atoms: N_30  and  C_31 
ROOT
HETATM    1  C   UNK N   1      36.407   9.803  16.548  0.00  0.00     0.247 C 
HETATM    2  C   UNK N   1      36.061  10.390  17.850  0.00  0.00     0.078 C 
HETATM    3  N   UNK N   1      35.765  10.915  18.840  0.00  0.00    -0.196 NA
ENDROOT
BRANCH   1   4
HETATM    4  N   UNK N   1      36.180  10.846  15.598  0.00  0.00    -0.345 N 
HETATM    5  C   UNK N   1      36.149  10.780  14.243  0.00  0.00     0.252 C 
HETATM    6  O   UNK N   1      36.334   9.731  13.647  0.00  0.00    -0.268 OA
HETATM    7  H   UNK N   1      36.025  11.740  15.982  0.00  0.00     0.163 HD
BRANCH   5   8
HETATM    8  C   UNK N   1      35.878  12.045  13.548  0.00  0.00     0.032 A 
HETATM    9  C   UNK N   1      35.227  11.899  12.335  0.00  0.00     0.018 A 
HETATM   10  C   UNK N   1      34.912  12.970  11.574  0.00  0.00     0.014 A 
HETATM   11  C   UNK N   1      35.232  14.259  11.967  0.00  0.00    -0.009 A 
HETATM   12  C   UNK N   1      35.897  14.465  13.196  0.00  0.00     0.014 A 
HETATM   13  C   UNK N   1      36.221  13.341  14.000  0.00  0.00     0.018 A 
BRANCH  11  14
HETATM   14  C   UNK N   1      34.808  15.285  11.019  0.00  0.00     0.060 A 
HETATM   15  C   UNK N   1      35.501  16.471  10.763  0.00  0.00     0.048 A 
HETATM   16  C   UNK N   1      34.956  17.349   9.818  0.00  0.00     0.108 A 
HETATM   17  N   UNK N   1      33.780  17.045   9.200  0.00  0.00    -0.202 N 
HETATM   18  C   UNK N   1      33.121  15.883   9.485  0.00  0.00     0.683 A 
ATOM     19  HN  UNK N   1      33.387  17.692   8.516  1.00  0.00     0.183 HD
HETATM   20  N   UNK N   1      33.649  15.034  10.363  0.00  0.00    -0.191 N 
HETATM   21  N   UNK N   1      31.891  15.548   8.863  0.00  0.00    -0.192 N 
ATOM     22  HN  UNK N   1      33.160  14.159  10.551  1.00  0.00     0.184 HD
HETATM   23  H   UNK N   1      31.564  14.620   8.885  0.00  0.00     0.184 HD
BRANCH  21  24
HETATM   24  C   UNK N   1      31.143  16.542   8.221  0.00  0.00     0.049 A 
HETATM   25  C   UNK N   1      31.028  16.507   6.831  0.00  0.00     0.032 A 
HETATM   26  C   UNK N   1      30.068  17.260   6.196  0.00  0.00     0.031 A 
HETATM   27  C   UNK N   1      29.196  18.060   6.940  0.00  0.00     0.030 A 
HETATM   28  C   UNK N   1      29.378  18.176   8.332  0.00  0.00     0.031 A 
HETATM   29  C   UNK N   1      30.354  17.411   8.974  0.00  0.00     0.032 A 
BRANCH  27  30
HETATM   30  N   UNK N   1      28.105  18.688   6.282  0.00  0.00    -0.377 N 
HETATM   31  C   UNK N   1      27.459  19.836   6.899  0.00  0.00     0.149 C 
HETATM   32  C   UNK N   1      27.291  20.933   5.855  0.00  0.00     0.187 C 
HETATM   33  O   UNK N   1      26.561  20.399   4.782  0.00  0.00    -0.388 OA
HETATM   34  C   UNK N   1      27.455  19.558   4.098  0.00  0.00     0.187 C 
HETATM   35  C   UNK N   1      27.722  18.302   4.936  0.00  0.00     0.149 C 
ENDBRANCH  27  30
ENDBRANCH  21  24
ENDBRANCH  11  14
ENDBRANCH   5   8
ENDBRANCH   1   4
TORSDOF 5
ENDMDL
