MODEL 1
REMARK VINA RESULT:      -6.2      0.000      0.000
REMARK  3 active torsions:
REMARK  status: ('A' for Active; 'I' for Inactive)
REMARK    1  A    between atoms: N_9  and  N_10 
REMARK    2  A    between atoms: C_12  and  C_13 
REMARK    3  A    between atoms: C_16  and  N_18 
ROOT
HETATM    1  N   UNK N   1      34.579  13.628  11.511  0.00  0.00    -0.311 N 
ATOM      2  HN  UNK N   1      33.996  13.234  10.773  1.00  0.00     0.185 HD
HETATM    3  C   UNK N   1      34.972  14.844  11.389  0.00  0.00     0.144 C 
ENDROOT
BRANCH   1   4
HETATM    4  N   UNK N   1      34.901  12.827  12.581  0.00  0.00    -0.322 N 
HETATM    5  C   UNK N   1      35.488  13.365  13.790  0.00  0.00     0.158 C 
HETATM    6  C   UNK N   1      36.562  12.368  14.244  0.00  0.00     0.161 C 
HETATM    7  S   UNK N   1      35.768  10.861  14.962  0.00  0.00     0.148 S 
HETATM    8  C   UNK N   1      35.864  10.705  13.129  0.00  0.00     0.166 C 
HETATM    9  O   UNK N   1      36.450   9.541  14.575  0.00  0.00    -0.228 OA
HETATM   10  O   UNK N   1      37.126  11.090  15.639  0.00  0.00    -0.228 OA
HETATM   11  C   UNK N   1      34.651  11.401  12.518  0.00  0.00     0.112 C 
HETATM   12  C   UNK N   1      34.403  10.914  11.095  0.00  0.00     0.035 C 
ENDBRANCH   1   4
BRANCH   3  13
HETATM   13  C   UNK N   1      34.344  15.626  10.334  0.00  0.00     0.095 A 
HETATM   14  C   UNK N   1      33.269  15.259   9.545  0.00  0.00     0.043 A 
HETATM   15  C   UNK N   1      33.198  16.228   8.549  0.00  0.00     0.065 A 
HETATM   16  C   UNK N   1      34.242  17.101   8.818  0.00  0.00     0.215 A 
HETATM   17  O   UNK N   1      34.894  16.717   9.873  0.00  0.00    -0.287 OA
BRANCH  16  18
HETATM   18  N   UNK N   1      34.637  18.212   8.038  0.00  0.00    -0.090 N 
HETATM   19  O   UNK N   1      34.444  18.225   6.863  0.00  0.00    -0.530 OA
HETATM   20  O   UNK N   1      35.308  19.196   8.601  0.00  0.00    -0.530 OA
ENDBRANCH  16  18
ENDBRANCH   3  13
TORSDOF 3
ENDMDL
MODEL 2
REMARK VINA RESULT:      -6.1     14.288     15.356
REMARK  3 active torsions:
REMARK  status: ('A' for Active; 'I' for Inactive)
REMARK    1  A    between atoms: N_9  and  N_10 
REMARK    2  A    between atoms: C_12  and  C_13 
REMARK    3  A    between atoms: C_16  and  N_18 
ROOT
HETATM    1  N   UNK N   1      20.696  16.377   5.984  0.00  0.00    -0.311 N 
ATOM      2  HN  UNK N   1      19.744  16.743   6.006  1.00  0.00     0.185 HD
HETATM    3  C   UNK N   1      21.441  16.685   4.986  0.00  0.00     0.144 C 
ENDROOT
BRANCH   1   4
HETATM    4  N   UNK N   1      21.109  15.582   7.027  0.00  0.00    -0.322 N 
HETATM    5  C   UNK N   1      21.950  14.423   6.818  0.00  0.00     0.158 C 
HETATM    6  C   UNK N   1      21.427  13.322   7.750  0.00  0.00     0.161 C 
HETATM    7  S   UNK N   1      21.891  13.694   9.499  0.00  0.00     0.148 S 
HETATM    8  C   UNK N   1      20.338  14.582   9.061  0.00  0.00     0.166 C 
HETATM    9  O   UNK N   1      20.792  13.384  10.525  0.00  0.00    -0.228 OA
HETATM   10  O   UNK N   1      21.814  12.174   9.308  0.00  0.00    -0.228 OA
HETATM   11  C   UNK N   1      20.705  15.899   8.383  0.00  0.00     0.112 C 
HETATM   12  C   UNK N   1      19.540  16.880   8.430  0.00  0.00     0.035 C 
ENDBRANCH   1   4
BRANCH   3  13
HETATM   13  C   UNK N   1      20.943  17.728   4.101  0.00  0.00     0.095 A 
HETATM   14  C   UNK N   1      19.764  17.721   3.377  0.00  0.00     0.043 A 
HETATM   15  C   UNK N   1      19.853  18.815   2.522  0.00  0.00     0.065 A 
HETATM   16  C   UNK N   1      21.083  19.392   2.800  0.00  0.00     0.215 A 
HETATM   17  O   UNK N   1      21.696  18.728   3.731  0.00  0.00    -0.287 OA
BRANCH  16  18
HETATM   18  N   UNK N   1      21.670  20.491   2.132  0.00  0.00    -0.090 N 
HETATM   19  O   UNK N   1      22.254  21.330   2.744  0.00  0.00    -0.530 OA
HETATM   20  O   UNK N   1      21.488  20.636   0.835  0.00  0.00    -0.530 OA
ENDBRANCH  16  18
ENDBRANCH   3  13
TORSDOF 3
ENDMDL
MODEL 3
REMARK VINA RESULT:      -5.9      3.715      8.057
REMARK  3 active torsions:
REMARK  status: ('A' for Active; 'I' for Inactive)
REMARK    1  A    between atoms: N_9  and  N_10 
REMARK    2  A    between atoms: C_12  and  C_13 
REMARK    3  A    between atoms: C_16  and  N_18 
ROOT
HETATM    1  N   UNK N   1      33.725  16.184   9.755  0.00  0.00    -0.311 N 
ATOM      2  HN  UNK N   1      33.992  16.959  10.360  1.00  0.00     0.185 HD
HETATM    3  C   UNK N   1      34.164  15.012  10.040  0.00  0.00     0.144 C 
ENDROOT
BRANCH   1   4
HETATM    4  N   UNK N   1      32.915  16.452   8.677  0.00  0.00    -0.322 N 
HETATM    5  C   UNK N   1      31.859  15.549   8.270  0.00  0.00     0.158 C 
HETATM    6  C   UNK N   1      31.874  15.511   6.736  0.00  0.00     0.161 C 
HETATM    7  S   UNK N   1      31.179  17.082   6.054  0.00  0.00     0.148 S 
HETATM    8  C   UNK N   1      32.967  17.304   6.440  0.00  0.00     0.166 C 
HETATM    9  O   UNK N   1      31.926  17.624   4.827  0.00  0.00    -0.228 OA
HETATM   10  O   UNK N   1      30.892  15.934   5.077  0.00  0.00    -0.228 OA
HETATM   11  C   UNK N   1      33.104  17.671   7.915  0.00  0.00     0.112 C 
HETATM   12  C   UNK N   1      34.452  18.327   8.190  0.00  0.00     0.035 C 
ENDBRANCH   1   4
BRANCH   3  13
HETATM   13  C   UNK N   1      34.797  14.856  11.341  0.00  0.00     0.095 A 
HETATM   14  C   UNK N   1      35.895  15.542  11.828  0.00  0.00     0.043 A 
HETATM   15  C   UNK N   1      36.251  14.881  12.999  0.00  0.00     0.065 A 
HETATM   16  C   UNK N   1      35.337  13.845  13.122  0.00  0.00     0.215 A 
HETATM   17  O   UNK N   1      34.498  13.859  12.131  0.00  0.00    -0.287 OA
BRANCH  16  18
HETATM   18  N   UNK N   1      35.331  12.837  14.113  0.00  0.00    -0.090 N 
HETATM   19  O   UNK N   1      36.354  12.399  14.537  0.00  0.00    -0.530 OA
HETATM   20  O   UNK N   1      34.186  12.313  14.500  0.00  0.00    -0.530 OA
ENDBRANCH  16  18
ENDBRANCH   3  13
TORSDOF 3
ENDMDL
MODEL 4
REMARK VINA RESULT:      -5.9     12.326     13.429
REMARK  3 active torsions:
REMARK  status: ('A' for Active; 'I' for Inactive)
REMARK    1  A    between atoms: N_9  and  N_10 
REMARK    2  A    between atoms: C_12  and  C_13 
REMARK    3  A    between atoms: C_16  and  N_18 
ROOT
HETATM    1  N   UNK N   1      23.348  16.056   6.413  0.00  0.00    -0.311 N 
ATOM      2  HN  UNK N   1      24.367  16.035   6.416  1.00  0.00     0.185 HD
HETATM    3  C   UNK N   1      22.763  16.980   5.741  0.00  0.00     0.144 C 
ENDROOT
BRANCH   1   4
HETATM    4  N   UNK N   1      22.676  15.094   7.129  0.00  0.00    -0.322 N 
HETATM    5  C   UNK N   1      21.282  15.241   7.488  0.00  0.00     0.158 C 
HETATM    6  C   UNK N   1      21.135  14.716   8.922  0.00  0.00     0.161 C 
HETATM    7  S   UNK N   1      21.237  12.871   8.939  0.00  0.00     0.148 S 
HETATM    8  C   UNK N   1      22.932  13.592   8.976  0.00  0.00     0.166 C 
HETATM    9  O   UNK N   1      22.037  12.292  10.114  0.00  0.00    -0.228 OA
HETATM   10  O   UNK N   1      20.336  13.339  10.090  0.00  0.00    -0.228 OA
HETATM   11  C   UNK N   1      23.366  13.888   7.543  0.00  0.00     0.112 C 
HETATM   12  C   UNK N   1      24.881  14.020   7.449  0.00  0.00     0.035 C 
ENDBRANCH   1   4
BRANCH   3  13
HETATM   13  C   UNK N   1      23.602  17.761   4.845  0.00  0.00     0.095 A 
HETATM   14  C   UNK N   1      24.982  17.740   4.757  0.00  0.00     0.043 A 
HETATM   15  C   UNK N   1      25.314  18.812   3.934  0.00  0.00     0.065 A 
HETATM   16  C   UNK N   1      24.103  19.396   3.595  0.00  0.00     0.215 A 
HETATM   17  O   UNK N   1      23.119  18.754   4.147  0.00  0.00    -0.287 OA
BRANCH  16  18
HETATM   18  N   UNK N   1      23.916  20.574   2.836  0.00  0.00    -0.090 N 
HETATM   19  O   UNK N   1      24.809  21.025   2.190  0.00  0.00    -0.530 OA
HETATM   20  O   UNK N   1      22.776  21.228   2.922  0.00  0.00    -0.530 OA
ENDBRANCH  16  18
ENDBRANCH   3  13
TORSDOF 3
ENDMDL
MODEL 5
REMARK VINA RESULT:      -5.9      5.566      9.473
REMARK  3 active torsions:
REMARK  status: ('A' for Active; 'I' for Inactive)
REMARK    1  A    between atoms: N_9  and  N_10 
REMARK    2  A    between atoms: C_12  and  C_13 
REMARK    3  A    between atoms: C_16  and  N_18 
ROOT
HETATM    1  N   UNK N   1      30.422  16.874   7.800  0.00  0.00    -0.311 N 
ATOM      2  HN  UNK N   1      30.201  16.382   8.666  1.00  0.00     0.185 HD
HETATM    3  C   UNK N   1      31.656  17.091   7.525  0.00  0.00     0.144 C 
ENDROOT
BRANCH   1   4
HETATM    4  N   UNK N   1      29.381  17.266   6.993  0.00  0.00    -0.322 N 
HETATM    5  C   UNK N   1      29.413  17.079   5.558  0.00  0.00     0.158 C 
HETATM    6  C   UNK N   1      28.808  18.343   4.933  0.00  0.00     0.161 C 
HETATM    7  S   UNK N   1      26.976  18.358   5.173  0.00  0.00     0.148 S 
HETATM    8  C   UNK N   1      27.809  19.043   6.667  0.00  0.00     0.166 C 
HETATM    9  O   UNK N   1      26.395  19.736   5.524  0.00  0.00    -0.228 OA
HETATM   10  O   UNK N   1      27.322  19.097   3.874  0.00  0.00    -0.228 OA
HETATM   11  C   UNK N   1      28.206  17.883   7.576  0.00  0.00     0.112 C 
HETATM   12  C   UNK N   1      28.448  18.367   9.001  0.00  0.00     0.035 C 
ENDBRANCH   1   4
BRANCH   3  13
HETATM   13  C   UNK N   1      32.637  16.399   8.348  0.00  0.00     0.095 A 
HETATM   14  C   UNK N   1      32.462  15.218   9.047  0.00  0.00     0.043 A 
HETATM   15  C   UNK N   1      33.591  15.097   9.850  0.00  0.00     0.065 A 
HETATM   16  C   UNK N   1      34.356  16.219   9.571  0.00  0.00     0.215 A 
HETATM   17  O   UNK N   1      33.766  16.962   8.685  0.00  0.00    -0.287 OA
BRANCH  16  18
HETATM   18  N   UNK N   1      35.566  16.594  10.198  0.00  0.00    -0.090 N 
HETATM   19  O   UNK N   1      35.797  17.738  10.434  0.00  0.00    -0.530 OA
HETATM   20  O   UNK N   1      36.485  15.680  10.436  0.00  0.00    -0.530 OA
ENDBRANCH  16  18
ENDBRANCH   3  13
TORSDOF 3
ENDMDL
MODEL 6
REMARK VINA RESULT:      -5.7      8.015     11.583
REMARK  3 active torsions:
REMARK  status: ('A' for Active; 'I' for Inactive)
REMARK    1  A    between atoms: N_9  and  N_10 
REMARK    2  A    between atoms: C_12  and  C_13 
REMARK    3  A    between atoms: C_16  and  N_18 
ROOT
HETATM    1  N   UNK N   1      28.848  17.677   4.314  0.00  0.00    -0.311 N 
ATOM      2  HN  UNK N   1      29.258  18.186   3.530  1.00  0.00     0.185 HD
HETATM    3  C   UNK N   1      29.637  17.044   5.104  0.00  0.00     0.144 C 
ENDROOT
BRANCH   1   4
HETATM    4  N   UNK N   1      27.482  17.707   4.464  0.00  0.00    -0.322 N 
HETATM    5  C   UNK N   1      26.677  16.508   4.377  0.00  0.00     0.158 C 
HETATM    6  C   UNK N   1      25.406  16.881   3.601  0.00  0.00     0.161 C 
HETATM    7  S   UNK N   1      24.286  17.896   4.665  0.00  0.00     0.148 S 
HETATM    8  C   UNK N   1      25.544  18.980   3.868  0.00  0.00     0.166 C 
HETATM    9  O   UNK N   1      23.601  19.058   3.934  0.00  0.00    -0.228 OA
HETATM   10  O   UNK N   1      23.444  17.085   3.672  0.00  0.00    -0.228 OA
HETATM   11  C   UNK N   1      26.810  18.966   4.720  0.00  0.00     0.112 C 
HETATM   12  C   UNK N   1      27.690  20.171   4.410  0.00  0.00     0.035 C 
ENDBRANCH   1   4
BRANCH   3  13
HETATM   13  C   UNK N   1      31.059  17.315   4.956  0.00  0.00     0.095 A 
HETATM   14  C   UNK N   1      31.777  17.408   3.777  0.00  0.00     0.043 A 
HETATM   15  C   UNK N   1      33.113  17.445   4.163  0.00  0.00     0.065 A 
HETATM   16  C   UNK N   1      33.092  17.367   5.547  0.00  0.00     0.215 A 
HETATM   17  O   UNK N   1      31.870  17.292   5.979  0.00  0.00    -0.287 OA
BRANCH  16  18
HETATM   18  N   UNK N   1      34.212  17.287   6.406  0.00  0.00    -0.090 N 
HETATM   19  O   UNK N   1      34.523  18.216   7.084  0.00  0.00    -0.530 OA
HETATM   20  O   UNK N   1      34.971  16.211   6.384  0.00  0.00    -0.530 OA
ENDBRANCH  16  18
ENDBRANCH   3  13
TORSDOF 3
ENDMDL
MODEL 7
REMARK VINA RESULT:      -5.7      4.441      6.498
REMARK  3 active torsions:
REMARK  status: ('A' for Active; 'I' for Inactive)
REMARK    1  A    between atoms: N_9  and  N_10 
REMARK    2  A    between atoms: C_12  and  C_13 
REMARK    3  A    between atoms: C_16  and  N_18 
ROOT
HETATM    1  N   UNK N   1      32.133  16.596   7.765  0.00  0.00    -0.311 N 
ATOM      2  HN  UNK N   1      32.216  16.760   6.761  1.00  0.00     0.185 HD
HETATM    3  C   UNK N   1      31.006  16.838   8.328  0.00  0.00     0.144 C 
ENDROOT
BRANCH   1   4
HETATM    4  N   UNK N   1      33.237  16.127   8.438  0.00  0.00    -0.322 N 
HETATM    5  C   UNK N   1      33.217  14.871   9.157  0.00  0.00     0.158 C 
HETATM    6  C   UNK N   1      33.995  15.095  10.461  0.00  0.00     0.161 C 
HETATM    7  S   UNK N   1      35.807  15.191  10.113  0.00  0.00     0.148 S 
HETATM    8  C   UNK N   1      35.031  16.842   9.852  0.00  0.00     0.166 C 
HETATM    9  O   UNK N   1      36.551  16.264  10.921  0.00  0.00    -0.228 OA
HETATM   10  O   UNK N   1      35.592  14.617  11.519  0.00  0.00    -0.228 OA
HETATM   11  C   UNK N   1      34.466  16.895   8.436  0.00  0.00     0.112 C 
HETATM   12  C   UNK N   1      34.252  18.337   7.989  0.00  0.00     0.035 C 
ENDBRANCH   1   4
BRANCH   3  13
HETATM   13  C   UNK N   1      29.878  17.087   7.443  0.00  0.00     0.095 A 
HETATM   14  C   UNK N   1      29.553  16.401   6.286  0.00  0.00     0.043 A 
HETATM   15  C   UNK N   1      28.546  17.152   5.687  0.00  0.00     0.065 A 
HETATM   16  C   UNK N   1      28.349  18.234   6.531  0.00  0.00     0.215 A 
HETATM   17  O   UNK N   1      29.148  18.164   7.552  0.00  0.00    -0.287 OA
BRANCH  16  18
HETATM   18  N   UNK N   1      27.482  19.329   6.314  0.00  0.00    -0.090 N 
HETATM   19  O   UNK N   1      27.617  20.339   6.929  0.00  0.00    -0.530 OA
HETATM   20  O   UNK N   1      26.460  19.195   5.493  0.00  0.00    -0.530 OA
ENDBRANCH  16  18
ENDBRANCH   3  13
TORSDOF 3
ENDMDL
MODEL 8
REMARK VINA RESULT:      -5.6      6.948      9.753
REMARK  3 active torsions:
REMARK  status: ('A' for Active; 'I' for Inactive)
REMARK    1  A    between atoms: N_9  and  N_10 
REMARK    2  A    between atoms: C_12  and  C_13 
REMARK    3  A    between atoms: C_16  and  N_18 
ROOT
HETATM    1  N   UNK N   1      29.664  17.460   5.234  0.00  0.00    -0.311 N 
ATOM      2  HN  UNK N   1      29.594  17.129   4.272  1.00  0.00     0.185 HD
HETATM    3  C   UNK N   1      28.703  18.171   5.702  0.00  0.00     0.144 C 
ENDROOT
BRANCH   1   4
HETATM    4  N   UNK N   1      30.781  17.117   5.959  0.00  0.00    -0.322 N 
HETATM    5  C   UNK N   1      30.736  16.938   7.394  0.00  0.00     0.158 C 
HETATM    6  C   UNK N   1      32.020  17.560   7.959  0.00  0.00     0.161 C 
HETATM    7  S   UNK N   1      33.470  16.477   7.586  0.00  0.00     0.148 S 
HETATM    8  C   UNK N   1      33.123  17.576   6.148  0.00  0.00     0.166 C 
HETATM    9  O   UNK N   1      34.740  17.238   7.177  0.00  0.00    -0.228 OA
HETATM   10  O   UNK N   1      33.726  17.231   8.898  0.00  0.00    -0.228 OA
HETATM   11  C   UNK N   1      32.049  16.922   5.284  0.00  0.00     0.112 C 
HETATM   12  C   UNK N   1      32.055  17.502   3.875  0.00  0.00     0.035 C 
ENDBRANCH   1   4
BRANCH   3  13
HETATM   13  C   UNK N   1      27.491  18.233   4.899  0.00  0.00     0.095 A 
HETATM   14  C   UNK N   1      26.885  17.195   4.214  0.00  0.00     0.043 A 
HETATM   15  C   UNK N   1      25.910  17.797   3.425  0.00  0.00     0.065 A 
HETATM   16  C   UNK N   1      26.010  19.153   3.697  0.00  0.00     0.215 A 
HETATM   17  O   UNK N   1      26.949  19.374   4.567  0.00  0.00    -0.287 OA
BRANCH  16  18
HETATM   18  N   UNK N   1      25.282  20.195   3.079  0.00  0.00    -0.090 N 
HETATM   19  O   UNK N   1      24.100  20.270   3.212  0.00  0.00    -0.530 OA
HETATM   20  O   UNK N   1      25.902  21.031   2.272  0.00  0.00    -0.530 OA
ENDBRANCH  16  18
ENDBRANCH   3  13
TORSDOF 3
ENDMDL
MODEL 9
REMARK VINA RESULT:      -5.6      3.003      7.553
REMARK  3 active torsions:
REMARK  status: ('A' for Active; 'I' for Inactive)
REMARK    1  A    between atoms: N_9  and  N_10 
REMARK    2  A    between atoms: C_12  and  C_13 
REMARK    3  A    between atoms: C_16  and  N_18 
ROOT
HETATM    1  N   UNK N   1      34.525  14.612  11.031  0.00  0.00    -0.311 N 
ATOM      2  HN  UNK N   1      33.717  14.032  11.253  1.00  0.00     0.185 HD
HETATM    3  C   UNK N   1      35.442  14.740  11.920  0.00  0.00     0.144 C 
ENDROOT
BRANCH   1   4
HETATM    4  N   UNK N   1      34.572  15.215   9.796  0.00  0.00    -0.322 N 
HETATM    5  C   UNK N   1      35.178  16.515   9.602  0.00  0.00     0.158 C 
HETATM    6  C   UNK N   1      34.280  17.280   8.620  0.00  0.00     0.161 C 
HETATM    7  S   UNK N   1      34.492  16.613   6.910  0.00  0.00     0.148 S 
HETATM    8  C   UNK N   1      33.260  15.598   7.830  0.00  0.00     0.166 C 
HETATM    9  O   UNK N   1      33.188  16.501   6.108  0.00  0.00    -0.228 OA
HETATM   10  O   UNK N   1      34.136  18.103   6.832  0.00  0.00    -0.228 OA
HETATM   11  C   UNK N   1      34.008  14.543   8.642  0.00  0.00     0.112 C 
HETATM   12  C   UNK N   1      33.082  13.396   9.029  0.00  0.00     0.035 C 
ENDBRANCH   1   4
BRANCH   3  13
HETATM   13  C   UNK N   1      35.364  13.847  13.066  0.00  0.00     0.095 A 
HETATM   14  C   UNK N   1      36.204  13.816  14.164  0.00  0.00     0.043 A 
HETATM   15  C   UNK N   1      35.864  12.656  14.854  0.00  0.00     0.065 A 
HETATM   16  C   UNK N   1      34.846  12.079  14.111  0.00  0.00     0.215 A 
HETATM   17  O   UNK N   1      34.577  12.804  13.068  0.00  0.00    -0.287 OA
BRANCH  16  18
HETATM   18  N   UNK N   1      34.219  10.837  14.360  0.00  0.00    -0.090 N 
HETATM   19  O   UNK N   1      33.063  10.788  14.643  0.00  0.00    -0.530 OA
HETATM   20  O   UNK N   1      34.941   9.735  14.371  0.00  0.00    -0.530 OA
ENDBRANCH  16  18
ENDBRANCH   3  13
TORSDOF 3
ENDMDL
