MODEL 1
REMARK VINA RESULT:      -8.3      0.000      0.000
REMARK  6 active torsions:
REMARK  status: ('A' for Active; 'I' for Inactive)
REMARK    1  A    between atoms: C_3  and  C_12 
REMARK    2  A    between atoms: C_7  and  C_8 
REMARK    3  A    between atoms: C_12  and  N_13 
REMARK    4  A    between atoms: C_20  and  N_26 
REMARK    5  A    between atoms: C_22  and  C_23 
REMARK    6  A    between atoms: C_23  and  O_25 
ROOT
HETATM    1  N   UNK N   1      21.799  16.456   5.033  0.00  0.00    -0.331 N 
HETATM    2  C   UNK N   1      20.572  16.876   4.598  0.00  0.00     0.080 A 
HETATM    3  N   UNK N   1      20.642  18.052   3.921  0.00  0.00    -0.343 N 
ATOM      4  HN  UNK N   1      19.877  18.570   3.488  1.00  0.00     0.167 HD
HETATM    5  C   UNK N   1      21.947  18.378   3.951  0.00  0.00     0.077 A 
HETATM    6  C   UNK N   1      22.638  17.425   4.632  0.00  0.00     0.066 A 
HETATM    7  C   UNK N   1      24.012  17.509   4.839  0.00  0.00     0.061 A 
HETATM    8  C   UNK N   1      24.700  18.627   4.326  0.00  0.00     0.033 A 
HETATM    9  C   UNK N   1      23.981  19.606   3.589  0.00  0.00     0.050 A 
HETATM   10  C   UNK N   1      22.588  19.491   3.387  0.00  0.00     0.068 A 
HETATM   11  C   UNK N   1      19.280  16.168   4.790  0.00  0.00     0.089 C 
ENDROOT
BRANCH   1  12
HETATM   12  C   UNK N   1      22.308  15.259   5.729  0.00  0.00     0.169 C 
BRANCH  12  13
HETATM   13  C   UNK N   1      21.987  14.958   7.170  0.00  0.00    -0.033 A 
HETATM   14  C   UNK N   1      22.798  14.034   7.871  0.00  0.00    -0.039 A 
HETATM   15  C   UNK N   1      24.008  13.450   7.204  0.00  0.00     0.049 C 
HETATM   16  C   UNK N   1      22.437  13.623   9.176  0.00  0.00     0.054 A 
HETATM   17  C   UNK N   1      21.290  14.164   9.771  0.00  0.00     0.017 A 
HETATM   18  C   UNK N   1      20.491  15.072   9.077  0.00  0.00     0.001 A 
HETATM   19  C   UNK N   1      20.822  15.438   7.773  0.00  0.00     0.009 A 
BRANCH  16  20
HETATM   20  C   UNK N   1      23.236  12.577   9.919  0.00  0.00     0.418 C 
HETATM   21  F   UNK N   1      23.159  11.362   9.264  0.00  0.00    -0.166 F 
HETATM   22  F   UNK N   1      24.568  12.942  10.019  0.00  0.00    -0.166 F 
HETATM   23  F   UNK N   1      22.729  12.437  11.199  0.00  0.00    -0.166 F 
ENDBRANCH  16  20
ENDBRANCH  12  13
ENDBRANCH   1  12
BRANCH  10  24
HETATM   24  C   UNK N   1      21.869  20.513   2.591  0.00  0.00     0.178 C 
HETATM   25  O   UNK N   1      21.083  20.183   1.718  0.00  0.00    -0.646 OA
BRANCH  24  26
HETATM   26  O   UNK N   1      22.099  21.822   2.812  0.00  0.00    -0.773 OA
HETATM   27  H   UNK N   1      21.618  22.470   2.336  0.00  0.00     0.167 HD
ENDBRANCH  24  26
ENDBRANCH  10  24
BRANCH   8  28
HETATM   28  N   UNK N   1      26.102  18.771   4.554  0.00  0.00    -0.377 N 
HETATM   29  C   UNK N   1      26.812  17.825   5.396  0.00  0.00     0.149 C 
HETATM   30  C   UNK N   1      27.582  18.587   6.488  0.00  0.00     0.187 C 
HETATM   31  O   UNK N   1      27.190  19.940   6.535  0.00  0.00    -0.388 OA
HETATM   32  C   UNK N   1      27.617  20.521   5.323  0.00  0.00     0.187 C 
HETATM   33  C   UNK N   1      26.801  19.972   4.141  0.00  0.00     0.149 C 
ENDBRANCH   8  28
TORSDOF 6
ENDMDL
MODEL 2
REMARK VINA RESULT:      -8.3      6.241      9.327
REMARK  6 active torsions:
REMARK  status: ('A' for Active; 'I' for Inactive)
REMARK    1  A    between atoms: C_3  and  C_12 
REMARK    2  A    between atoms: C_7  and  C_8 
REMARK    3  A    between atoms: C_12  and  N_13 
REMARK    4  A    between atoms: C_20  and  N_26 
REMARK    5  A    between atoms: C_22  and  C_23 
REMARK    6  A    between atoms: C_23  and  O_25 
ROOT
HETATM    1  N   UNK N   1      29.537  17.667   7.594  0.00  0.00    -0.331 N 
HETATM    2  C   UNK N   1      30.322  18.076   8.636  0.00  0.00     0.080 A 
HETATM    3  N   UNK N   1      31.645  17.884   8.388  0.00  0.00    -0.343 N 
ATOM      4  HN  UNK N   1      32.434  18.111   8.995  1.00  0.00     0.167 HD
HETATM    5  C   UNK N   1      31.678  17.325   7.165  0.00  0.00     0.077 A 
HETATM    6  C   UNK N   1      30.410  17.184   6.696  0.00  0.00     0.066 A 
HETATM    7  C   UNK N   1      30.136  16.615   5.455  0.00  0.00     0.061 A 
HETATM    8  C   UNK N   1      31.218  16.168   4.669  0.00  0.00     0.033 A 
HETATM    9  C   UNK N   1      32.543  16.345   5.149  0.00  0.00     0.050 A 
HETATM   10  C   UNK N   1      32.793  16.933   6.408  0.00  0.00     0.068 A 
HETATM   11  C   UNK N   1      29.853  18.686   9.907  0.00  0.00     0.089 C 
ENDROOT
BRANCH   1  12
HETATM   12  C   UNK N   1      28.092  17.706   7.296  0.00  0.00     0.169 C 
BRANCH  12  13
HETATM   13  C   UNK N   1      27.453  18.823   6.514  0.00  0.00    -0.033 A 
HETATM   14  C   UNK N   1      26.587  18.497   5.444  0.00  0.00    -0.039 A 
HETATM   15  C   UNK N   1      26.249  17.061   5.170  0.00  0.00     0.049 C 
HETATM   16  C   UNK N   1      26.087  19.518   4.601  0.00  0.00     0.054 A 
HETATM   17  C   UNK N   1      26.434  20.851   4.861  0.00  0.00     0.017 A 
HETATM   18  C   UNK N   1      27.290  21.168   5.915  0.00  0.00     0.001 A 
HETATM   19  C   UNK N   1      27.821  20.156   6.713  0.00  0.00     0.009 A 
BRANCH  16  20
HETATM   20  C   UNK N   1      25.227  19.196   3.401  0.00  0.00     0.418 C 
HETATM   21  F   UNK N   1      25.775  18.145   2.689  0.00  0.00    -0.166 F 
HETATM   22  F   UNK N   1      23.942  18.849   3.784  0.00  0.00    -0.166 F 
HETATM   23  F   UNK N   1      25.148  20.309   2.582  0.00  0.00    -0.166 F 
ENDBRANCH  16  20
ENDBRANCH  12  13
ENDBRANCH   1  12
BRANCH  10  24
HETATM   24  C   UNK N   1      34.186  17.130   6.871  0.00  0.00     0.178 C 
HETATM   25  O   UNK N   1      34.985  16.208   6.849  0.00  0.00    -0.646 OA
BRANCH  24  26
HETATM   26  O   UNK N   1      34.574  18.330   7.345  0.00  0.00    -0.773 OA
HETATM   27  H   UNK N   1      33.958  18.882   7.784  0.00  0.00     0.167 HD
ENDBRANCH  24  26
ENDBRANCH  10  24
BRANCH   8  28
HETATM   28  N   UNK N   1      30.976  15.540   3.410  0.00  0.00    -0.377 N 
HETATM   29  C   UNK N   1      29.792  15.871   2.637  0.00  0.00     0.149 C 
HETATM   30  C   UNK N   1      29.032  14.581   2.284  0.00  0.00     0.187 C 
HETATM   31  O   UNK N   1      29.536  13.481   3.009  0.00  0.00    -0.388 OA
HETATM   32  C   UNK N   1      30.848  13.264   2.544  0.00  0.00     0.187 C 
HETATM   33  C   UNK N   1      31.776  14.410   2.980  0.00  0.00     0.149 C 
ENDBRANCH   8  28
TORSDOF 6
ENDMDL
MODEL 3
REMARK VINA RESULT:      -8.2      6.119      9.688
REMARK  6 active torsions:
REMARK  status: ('A' for Active; 'I' for Inactive)
REMARK    1  A    between atoms: C_3  and  C_12 
REMARK    2  A    between atoms: C_7  and  C_8 
REMARK    3  A    between atoms: C_12  and  N_13 
REMARK    4  A    between atoms: C_20  and  N_26 
REMARK    5  A    between atoms: C_22  and  C_23 
REMARK    6  A    between atoms: C_23  and  O_25 
ROOT
HETATM    1  N   UNK N   1      30.035  17.187   7.333  0.00  0.00    -0.331 N 
HETATM    2  C   UNK N   1      30.151  17.829   8.536  0.00  0.00     0.080 A 
HETATM    3  N   UNK N   1      31.448  18.037   8.883  0.00  0.00    -0.343 N 
ATOM      4  HN  UNK N   1      31.805  18.500   9.720  1.00  0.00     0.167 HD
HETATM    5  C   UNK N   1      32.155  17.494   7.876  0.00  0.00     0.077 A 
HETATM    6  C   UNK N   1      31.304  16.972   6.953  0.00  0.00     0.066 A 
HETATM    7  C   UNK N   1      31.756  16.327   5.805  0.00  0.00     0.061 A 
HETATM    8  C   UNK N   1      33.147  16.212   5.605  0.00  0.00     0.033 A 
HETATM    9  C   UNK N   1      34.034  16.784   6.556  0.00  0.00     0.050 A 
HETATM   10  C   UNK N   1      33.547  17.441   7.708  0.00  0.00     0.068 A 
HETATM   11  C   UNK N   1      29.034  18.291   9.400  0.00  0.00     0.089 C 
ENDROOT
BRANCH   1  12
HETATM   12  C   UNK N   1      28.909  16.787   6.467  0.00  0.00     0.169 C 
BRANCH  12  13
HETATM   13  C   UNK N   1      28.058  17.786   5.727  0.00  0.00    -0.033 A 
HETATM   14  C   UNK N   1      26.712  17.455   5.442  0.00  0.00    -0.039 A 
HETATM   15  C   UNK N   1      26.134  16.171   5.960  0.00  0.00     0.049 C 
HETATM   16  C   UNK N   1      25.931  18.307   4.625  0.00  0.00     0.054 A 
HETATM   17  C   UNK N   1      26.498  19.491   4.132  0.00  0.00     0.017 A 
HETATM   18  C   UNK N   1      27.825  19.812   4.413  0.00  0.00     0.001 A 
HETATM   19  C   UNK N   1      28.607  18.946   5.177  0.00  0.00     0.009 A 
BRANCH  16  20
HETATM   20  C   UNK N   1      24.518  17.943   4.234  0.00  0.00     0.418 C 
HETATM   21  F   UNK N   1      24.513  16.781   3.485  0.00  0.00    -0.166 F 
HETATM   22  F   UNK N   1      23.722  17.751   5.352  0.00  0.00    -0.166 F 
HETATM   23  F   UNK N   1      23.970  18.970   3.485  0.00  0.00    -0.166 F 
ENDBRANCH  16  20
ENDBRANCH  12  13
ENDBRANCH   1  12
BRANCH  10  24
HETATM   24  C   UNK N   1      34.495  18.052   8.667  0.00  0.00     0.178 C 
HETATM   25  O   UNK N   1      35.160  19.026   8.352  0.00  0.00    -0.646 OA
BRANCH  24  26
HETATM   26  O   UNK N   1      34.647  17.518   9.895  0.00  0.00    -0.773 OA
HETATM   27  H   UNK N   1      35.369  16.948  10.072  0.00  0.00     0.167 HD
ENDBRANCH  24  26
ENDBRANCH  10  24
BRANCH   8  28
HETATM   28  N   UNK N   1      33.651  15.519   4.463  0.00  0.00    -0.377 N 
HETATM   29  C   UNK N   1      32.951  15.587   3.193  0.00  0.00     0.149 C 
HETATM   30  C   UNK N   1      32.682  14.163   2.678  0.00  0.00     0.187 C 
HETATM   31  O   UNK N   1      32.947  13.204   3.677  0.00  0.00    -0.388 OA
HETATM   32  C   UNK N   1      34.337  13.245   3.910  0.00  0.00     0.187 C 
HETATM   33  C   UNK N   1      34.734  14.564   4.593  0.00  0.00     0.149 C 
ENDBRANCH   8  28
TORSDOF 6
ENDMDL
MODEL 4
REMARK VINA RESULT:      -8.1      1.472      1.932
REMARK  6 active torsions:
REMARK  status: ('A' for Active; 'I' for Inactive)
REMARK    1  A    between atoms: C_3  and  C_12 
REMARK    2  A    between atoms: C_7  and  C_8 
REMARK    3  A    between atoms: C_12  and  N_13 
REMARK    4  A    between atoms: C_20  and  N_26 
REMARK    5  A    between atoms: C_22  and  C_23 
REMARK    6  A    between atoms: C_23  and  O_25 
ROOT
HETATM    1  N   UNK N   1      22.140  16.719   4.667  0.00  0.00    -0.331 N 
HETATM    2  C   UNK N   1      21.274  17.522   3.975  0.00  0.00     0.080 A 
HETATM    3  N   UNK N   1      21.886  18.630   3.481  0.00  0.00    -0.343 N 
ATOM      4  HN  UNK N   1      21.470  19.378   2.924  1.00  0.00     0.167 HD
HETATM    5  C   UNK N   1      23.162  18.519   3.891  0.00  0.00     0.077 A 
HETATM    6  C   UNK N   1      23.309  17.377   4.615  0.00  0.00     0.066 A 
HETATM    7  C   UNK N   1      24.524  17.009   5.185  0.00  0.00     0.061 A 
HETATM    8  C   UNK N   1      25.634  17.860   5.003  0.00  0.00     0.033 A 
HETATM    9  C   UNK N   1      25.486  19.037   4.222  0.00  0.00     0.050 A 
HETATM   10  C   UNK N   1      24.242  19.381   3.648  0.00  0.00     0.068 A 
HETATM   11  C   UNK N   1      19.830  17.262   3.737  0.00  0.00     0.089 C 
ENDROOT
BRANCH   1  12
HETATM   12  C   UNK N   1      22.042  15.404   5.329  0.00  0.00     0.169 C 
BRANCH  12  13
HETATM   13  C   UNK N   1      21.622  15.248   6.767  0.00  0.00    -0.033 A 
HETATM   14  C   UNK N   1      22.323  14.331   7.586  0.00  0.00    -0.039 A 
HETATM   15  C   UNK N   1      23.520  13.610   7.041  0.00  0.00     0.049 C 
HETATM   16  C   UNK N   1      21.862  14.055   8.895  0.00  0.00     0.054 A 
HETATM   17  C   UNK N   1      20.728  14.723   9.376  0.00  0.00     0.017 A 
HETATM   18  C   UNK N   1      20.039  15.623   8.566  0.00  0.00     0.001 A 
HETATM   19  C   UNK N   1      20.465  15.856   7.259  0.00  0.00     0.009 A 
BRANCH  16  20
HETATM   20  C   UNK N   1      22.540  13.021   9.765  0.00  0.00     0.418 C 
HETATM   21  F   UNK N   1      22.504  11.783   9.151  0.00  0.00    -0.166 F 
HETATM   22  F   UNK N   1      23.861  13.357  10.007  0.00  0.00    -0.166 F 
HETATM   23  F   UNK N   1      21.884  12.945  10.982  0.00  0.00    -0.166 F 
ENDBRANCH  16  20
ENDBRANCH  12  13
ENDBRANCH   1  12
BRANCH  10  24
HETATM   24  C   UNK N   1      24.123  20.600   2.815  0.00  0.00     0.178 C 
HETATM   25  O   UNK N   1      25.007  20.908   2.032  0.00  0.00    -0.646 OA
BRANCH  24  26
HETATM   26  O   UNK N   1      23.042  21.395   2.936  0.00  0.00    -0.773 OA
HETATM   27  H   UNK N   1      22.351  21.346   2.305  0.00  0.00     0.167 HD
ENDBRANCH  24  26
ENDBRANCH  10  24
BRANCH   8  28
HETATM   28  N   UNK N   1      26.887  17.540   5.608  0.00  0.00    -0.377 N 
HETATM   29  C   UNK N   1      27.953  18.524   5.658  0.00  0.00     0.149 C 
HETATM   30  C   UNK N   1      29.236  17.923   5.060  0.00  0.00     0.187 C 
HETATM   31  O   UNK N   1      28.967  16.704   4.404  0.00  0.00    -0.388 OA
HETATM   32  C   UNK N   1      28.575  15.792   5.404  0.00  0.00     0.187 C 
HETATM   33  C   UNK N   1      27.203  16.175   5.982  0.00  0.00     0.149 C 
ENDBRANCH   8  28
TORSDOF 6
ENDMDL
MODEL 5
REMARK VINA RESULT:      -8.0      1.590      4.390
REMARK  6 active torsions:
REMARK  status: ('A' for Active; 'I' for Inactive)
REMARK    1  A    between atoms: C_3  and  C_12 
REMARK    2  A    between atoms: C_7  and  C_8 
REMARK    3  A    between atoms: C_12  and  N_13 
REMARK    4  A    between atoms: C_20  and  N_26 
REMARK    5  A    between atoms: C_22  and  C_23 
REMARK    6  A    between atoms: C_23  and  O_25 
ROOT
HETATM    1  N   UNK N   1      24.330  15.963   5.424  0.00  0.00    -0.331 N 
HETATM    2  C   UNK N   1      25.676  15.858   5.645  0.00  0.00     0.080 A 
HETATM    3  N   UNK N   1      26.345  16.984   5.285  0.00  0.00    -0.343 N 
ATOM      4  HN  UNK N   1      27.347  17.166   5.356  1.00  0.00     0.167 HD
HETATM    5  C   UNK N   1      25.389  17.804   4.812  0.00  0.00     0.077 A 
HETATM    6  C   UNK N   1      24.181  17.183   4.884  0.00  0.00     0.066 A 
HETATM    7  C   UNK N   1      23.007  17.789   4.445  0.00  0.00     0.061 A 
HETATM    8  C   UNK N   1      23.085  19.089   3.905  0.00  0.00     0.033 A 
HETATM    9  C   UNK N   1      24.343  19.747   3.858  0.00  0.00     0.050 A 
HETATM   10  C   UNK N   1      25.518  19.111   4.318  0.00  0.00     0.068 A 
HETATM   11  C   UNK N   1      26.384  14.688   6.227  0.00  0.00     0.089 C 
ENDROOT
BRANCH   1  12
HETATM   12  C   UNK N   1      23.158  15.107   5.687  0.00  0.00     0.169 C 
BRANCH  12  13
HETATM   13  C   UNK N   1      22.374  15.174   6.972  0.00  0.00    -0.033 A 
HETATM   14  C   UNK N   1      22.528  14.134   7.919  0.00  0.00    -0.039 A 
HETATM   15  C   UNK N   1      23.530  13.045   7.674  0.00  0.00     0.049 C 
HETATM   16  C   UNK N   1      21.701  14.093   9.067  0.00  0.00     0.054 A 
HETATM   17  C   UNK N   1      20.755  15.108   9.265  0.00  0.00     0.017 A 
HETATM   18  C   UNK N   1      20.604  16.130   8.328  0.00  0.00     0.001 A 
HETATM   19  C   UNK N   1      21.386  16.141   7.174  0.00  0.00     0.009 A 
BRANCH  16  20
HETATM   20  C   UNK N   1      21.784  12.953  10.055  0.00  0.00     0.418 C 
HETATM   21  F   UNK N   1      20.690  12.972  10.899  0.00  0.00    -0.166 F 
HETATM   22  F   UNK N   1      21.822  11.729   9.406  0.00  0.00    -0.166 F 
HETATM   23  F   UNK N   1      22.941  13.080  10.805  0.00  0.00    -0.166 F 
ENDBRANCH  16  20
ENDBRANCH  12  13
ENDBRANCH   1  12
BRANCH  10  24
HETATM   24  C   UNK N   1      26.811  19.832   4.283  0.00  0.00     0.178 C 
HETATM   25  O   UNK N   1      26.931  20.923   4.816  0.00  0.00    -0.646 OA
BRANCH  24  26
HETATM   26  O   UNK N   1      27.864  19.294   3.637  0.00  0.00    -0.773 OA
HETATM   27  H   UNK N   1      28.737  19.514   3.897  0.00  0.00     0.167 HD
ENDBRANCH  24  26
ENDBRANCH  10  24
BRANCH   8  28
HETATM   28  N   UNK N   1      21.910  19.727   3.405  0.00  0.00    -0.377 N 
HETATM   29  C   UNK N   1      20.595  19.295   3.842  0.00  0.00     0.149 C 
HETATM   30  C   UNK N   1      19.723  18.981   2.614  0.00  0.00     0.187 C 
HETATM   31  O   UNK N   1      20.498  18.947   1.437  0.00  0.00    -0.388 OA
HETATM   32  C   UNK N   1      20.958  20.263   1.224  0.00  0.00     0.187 C 
HETATM   33  C   UNK N   1      21.987  20.658   2.296  0.00  0.00     0.149 C 
ENDBRANCH   8  28
TORSDOF 6
ENDMDL
MODEL 6
REMARK VINA RESULT:      -7.9      3.727      6.880
REMARK  6 active torsions:
REMARK  status: ('A' for Active; 'I' for Inactive)
REMARK    1  A    between atoms: C_3  and  C_12 
REMARK    2  A    between atoms: C_7  and  C_8 
REMARK    3  A    between atoms: C_12  and  N_13 
REMARK    4  A    between atoms: C_20  and  N_26 
REMARK    5  A    between atoms: C_22  and  C_23 
REMARK    6  A    between atoms: C_23  and  O_25 
ROOT
HETATM    1  N   UNK N   1      22.571  16.640   5.646  0.00  0.00    -0.331 N 
HETATM    2  C   UNK N   1      21.960  17.856   5.513  0.00  0.00     0.080 A 
HETATM    3  N   UNK N   1      21.030  18.072   6.481  0.00  0.00    -0.343 N 
ATOM      4  HN  UNK N   1      20.445  18.897   6.613  1.00  0.00     0.167 HD
HETATM    5  C   UNK N   1      21.055  16.950   7.224  0.00  0.00     0.077 A 
HETATM    6  C   UNK N   1      21.972  16.086   6.712  0.00  0.00     0.066 A 
HETATM    7  C   UNK N   1      22.202  14.831   7.269  0.00  0.00     0.061 A 
HETATM    8  C   UNK N   1      21.449  14.451   8.398  0.00  0.00     0.033 A 
HETATM    9  C   UNK N   1      20.514  15.367   8.949  0.00  0.00     0.050 A 
HETATM   10  C   UNK N   1      20.307  16.638   8.369  0.00  0.00     0.068 A 
HETATM   11  C   UNK N   1      22.245  18.877   4.472  0.00  0.00     0.089 C 
ENDROOT
BRANCH   1  12
HETATM   12  C   UNK N   1      23.667  15.939   4.948  0.00  0.00     0.169 C 
BRANCH  12  13
HETATM   13  C   UNK N   1      25.014  16.570   4.710  0.00  0.00    -0.033 A 
HETATM   14  C   UNK N   1      26.052  16.332   5.642  0.00  0.00    -0.039 A 
HETATM   15  C   UNK N   1      25.824  15.388   6.785  0.00  0.00     0.049 C 
HETATM   16  C   UNK N   1      27.280  17.024   5.525  0.00  0.00     0.054 A 
HETATM   17  C   UNK N   1      27.463  17.919   4.463  0.00  0.00     0.017 A 
HETATM   18  C   UNK N   1      26.438  18.153   3.548  0.00  0.00     0.001 A 
HETATM   19  C   UNK N   1      25.210  17.508   3.694  0.00  0.00     0.009 A 
BRANCH  16  20
HETATM   20  C   UNK N   1      28.379  16.854   6.550  0.00  0.00     0.418 C 
HETATM   21  F   UNK N   1      29.357  17.812   6.365  0.00  0.00    -0.166 F 
HETATM   22  F   UNK N   1      27.884  16.968   7.839  0.00  0.00    -0.166 F 
HETATM   23  F   UNK N   1      28.941  15.596   6.414  0.00  0.00    -0.166 F 
ENDBRANCH  16  20
ENDBRANCH  12  13
ENDBRANCH   1  12
BRANCH  10  24
HETATM   24  C   UNK N   1      19.345  17.583   8.981  0.00  0.00     0.178 C 
HETATM   25  O   UNK N   1      18.207  17.229   9.248  0.00  0.00    -0.646 OA
BRANCH  24  26
HETATM   26  O   UNK N   1      19.715  18.856   9.225  0.00  0.00    -0.773 OA
HETATM   27  H   UNK N   1      19.712  19.486   8.532  0.00  0.00     0.167 HD
ENDBRANCH  24  26
ENDBRANCH  10  24
BRANCH   8  28
HETATM   28  N   UNK N   1      21.625  13.155   8.972  0.00  0.00    -0.377 N 
HETATM   29  C   UNK N   1      21.194  12.888  10.332  0.00  0.00     0.149 C 
HETATM   30  C   UNK N   1      22.363  12.291  11.134  0.00  0.00     0.187 C 
HETATM   31  O   UNK N   1      23.576  12.405  10.423  0.00  0.00    -0.388 OA
HETATM   32  C   UNK N   1      23.454  11.574   9.291  0.00  0.00     0.187 C 
HETATM   33  C   UNK N   1      22.427  12.150   8.302  0.00  0.00     0.149 C 
ENDBRANCH   8  28
TORSDOF 6
ENDMDL
MODEL 7
REMARK VINA RESULT:      -7.9      3.705      7.041
REMARK  6 active torsions:
REMARK  status: ('A' for Active; 'I' for Inactive)
REMARK    1  A    between atoms: C_3  and  C_12 
REMARK    2  A    between atoms: C_7  and  C_8 
REMARK    3  A    between atoms: C_12  and  N_13 
REMARK    4  A    between atoms: C_20  and  N_26 
REMARK    5  A    between atoms: C_22  and  C_23 
REMARK    6  A    between atoms: C_23  and  O_25 
ROOT
HETATM    1  N   UNK N   1      26.753  18.149   5.236  0.00  0.00    -0.331 N 
HETATM    2  C   UNK N   1      27.137  19.264   4.543  0.00  0.00     0.080 A 
HETATM    3  N   UNK N   1      26.095  19.849   3.895  0.00  0.00    -0.343 N 
ATOM      4  HN  UNK N   1      26.111  20.692   3.320  1.00  0.00     0.167 HD
HETATM    5  C   UNK N   1      25.041  19.064   4.180  0.00  0.00     0.077 A 
HETATM    6  C   UNK N   1      25.442  18.036   4.975  0.00  0.00     0.066 A 
HETATM    7  C   UNK N   1      24.562  17.051   5.415  0.00  0.00     0.061 A 
HETATM    8  C   UNK N   1      23.213  17.128   5.014  0.00  0.00     0.033 A 
HETATM    9  C   UNK N   1      22.791  18.219   4.208  0.00  0.00     0.050 A 
HETATM   10  C   UNK N   1      23.703  19.210   3.782  0.00  0.00     0.068 A 
HETATM   11  C   UNK N   1      28.507  19.837   4.482  0.00  0.00     0.089 C 
ENDROOT
BRANCH   1  12
HETATM   12  C   UNK N   1      27.427  17.200   6.144  0.00  0.00     0.169 C 
BRANCH  12  13
HETATM   13  C   UNK N   1      28.438  17.637   7.172  0.00  0.00    -0.033 A 
HETATM   14  C   UNK N   1      29.805  17.346   6.949  0.00  0.00    -0.039 A 
HETATM   15  C   UNK N   1      30.230  16.702   5.663  0.00  0.00     0.049 C 
HETATM   16  C   UNK N   1      30.759  17.613   7.960  0.00  0.00     0.054 A 
HETATM   17  C   UNK N   1      30.336  18.194   9.163  0.00  0.00     0.017 A 
HETATM   18  C   UNK N   1      28.989  18.477   9.380  0.00  0.00     0.001 A 
HETATM   19  C   UNK N   1      28.044  18.167   8.402  0.00  0.00     0.009 A 
BRANCH  16  20
HETATM   20  C   UNK N   1      32.213  17.240   7.786  0.00  0.00     0.418 C 
HETATM   21  F   UNK N   1      32.942  17.631   8.893  0.00  0.00    -0.166 F 
HETATM   22  F   UNK N   1      32.362  15.873   7.617  0.00  0.00    -0.166 F 
HETATM   23  F   UNK N   1      32.717  17.871   6.662  0.00  0.00    -0.166 F 
ENDBRANCH  16  20
ENDBRANCH  12  13
ENDBRANCH   1  12
BRANCH  10  24
HETATM   24  C   UNK N   1      23.229  20.351   2.966  0.00  0.00     0.178 C 
HETATM   25  O   UNK N   1      22.066  20.717   3.022  0.00  0.00    -0.646 OA
BRANCH  24  26
HETATM   26  O   UNK N   1      24.080  20.981   2.132  0.00  0.00    -0.773 OA
HETATM   27  H   UNK N   1      24.218  21.904   2.213  0.00  0.00     0.167 HD
ENDBRANCH  24  26
ENDBRANCH  10  24
BRANCH   8  28
HETATM   28  N   UNK N   1      22.289  16.114   5.409  0.00  0.00    -0.377 N 
HETATM   29  C   UNK N   1      20.973  16.040   4.801  0.00  0.00     0.149 C 
HETATM   30  C   UNK N   1      19.899  16.029   5.902  0.00  0.00     0.187 C 
HETATM   31  O   UNK N   1      20.456  16.349   7.157  0.00  0.00    -0.388 OA
HETATM   32  C   UNK N   1      21.323  15.289   7.491  0.00  0.00     0.187 C 
HETATM   33  C   UNK N   1      22.552  15.282   6.567  0.00  0.00     0.149 C 
ENDBRANCH   8  28
TORSDOF 6
ENDMDL
MODEL 8
REMARK VINA RESULT:      -7.7      6.730     10.659
REMARK  6 active torsions:
REMARK  status: ('A' for Active; 'I' for Inactive)
REMARK    1  A    between atoms: C_3  and  C_12 
REMARK    2  A    between atoms: C_7  and  C_8 
REMARK    3  A    between atoms: C_12  and  N_13 
REMARK    4  A    between atoms: C_20  and  N_26 
REMARK    5  A    between atoms: C_22  and  C_23 
REMARK    6  A    between atoms: C_23  and  O_25 
ROOT
HETATM    1  N   UNK N   1      32.732  17.320   6.847  0.00  0.00    -0.331 N 
HETATM    2  C   UNK N   1      32.880  17.437   8.202  0.00  0.00     0.080 A 
HETATM    3  N   UNK N   1      31.684  17.505   8.845  0.00  0.00    -0.343 N 
ATOM      4  HN  UNK N   1      31.518  17.584   9.848  1.00  0.00     0.167 HD
HETATM    5  C   UNK N   1      30.771  17.445   7.859  0.00  0.00     0.077 A 
HETATM    6  C   UNK N   1      31.404  17.348   6.659  0.00  0.00     0.066 A 
HETATM    7  C   UNK N   1      30.708  17.288   5.455  0.00  0.00     0.061 A 
HETATM    8  C   UNK N   1      29.299  17.334   5.492  0.00  0.00     0.033 A 
HETATM    9  C   UNK N   1      28.640  17.405   6.748  0.00  0.00     0.050 A 
HETATM   10  C   UNK N   1      29.371  17.457   7.955  0.00  0.00     0.068 A 
HETATM   11  C   UNK N   1      34.164  17.470   8.949  0.00  0.00     0.089 C 
ENDROOT
BRANCH   1  12
HETATM   12  C   UNK N   1      33.652  17.141   5.707  0.00  0.00     0.169 C 
BRANCH  12  13
HETATM   13  C   UNK N   1      34.169  15.790   5.285  0.00  0.00    -0.033 A 
HETATM   14  C   UNK N   1      33.909  15.342   3.968  0.00  0.00    -0.039 A 
HETATM   15  C   UNK N   1      33.215  16.250   2.996  0.00  0.00     0.049 C 
HETATM   16  C   UNK N   1      34.253  14.024   3.588  0.00  0.00     0.054 A 
HETATM   17  C   UNK N   1      34.879  13.184   4.519  0.00  0.00     0.017 A 
HETATM   18  C   UNK N   1      35.132  13.628   5.816  0.00  0.00     0.001 A 
HETATM   19  C   UNK N   1      34.747  14.911   6.203  0.00  0.00     0.009 A 
BRANCH  16  20
HETATM   20  C   UNK N   1      33.915  13.488   2.215  0.00  0.00     0.418 C 
HETATM   21  F   UNK N   1      34.255  12.151   2.127  0.00  0.00    -0.166 F 
HETATM   22  F   UNK N   1      32.563  13.621   1.944  0.00  0.00    -0.166 F 
HETATM   23  F   UNK N   1      34.619  14.201   1.259  0.00  0.00    -0.166 F 
ENDBRANCH  16  20
ENDBRANCH  12  13
ENDBRANCH   1  12
BRANCH  10  24
HETATM   24  C   UNK N   1      28.657  17.503   9.252  0.00  0.00     0.178 C 
HETATM   25  O   UNK N   1      29.131  16.971  10.243  0.00  0.00    -0.646 OA
BRANCH  24  26
HETATM   26  O   UNK N   1      27.460  18.114   9.340  0.00  0.00    -0.773 OA
HETATM   27  H   UNK N   1      27.393  18.960   9.737  0.00  0.00     0.167 HD
ENDBRANCH  24  26
ENDBRANCH  10  24
BRANCH   8  28
HETATM   28  N   UNK N   1      28.550  17.319   4.276  0.00  0.00    -0.377 N 
HETATM   29  C   UNK N   1      27.267  17.993   4.193  0.00  0.00     0.149 C 
HETATM   30  C   UNK N   1      26.202  17.009   3.678  0.00  0.00     0.187 C 
HETATM   31  O   UNK N   1      26.692  15.687   3.677  0.00  0.00    -0.388 OA
HETATM   32  C   UNK N   1      27.718  15.643   2.711  0.00  0.00     0.187 C 
HETATM   33  C   UNK N   1      28.938  16.455   3.178  0.00  0.00     0.149 C 
ENDBRANCH   8  28
TORSDOF 6
ENDMDL
MODEL 9
REMARK VINA RESULT:      -7.7      3.375      6.851
REMARK  6 active torsions:
REMARK  status: ('A' for Active; 'I' for Inactive)
REMARK    1  A    between atoms: C_3  and  C_12 
REMARK    2  A    between atoms: C_7  and  C_8 
REMARK    3  A    between atoms: C_12  and  N_13 
REMARK    4  A    between atoms: C_20  and  N_26 
REMARK    5  A    between atoms: C_22  and  C_23 
REMARK    6  A    between atoms: C_23  and  O_25 
ROOT
HETATM    1  N   UNK N   1      25.778  18.448   4.920  0.00  0.00    -0.331 N 
HETATM    2  C   UNK N   1      26.132  19.643   4.356  0.00  0.00     0.080 A 
HETATM    3  N   UNK N   1      25.102  20.216   3.678  0.00  0.00    -0.343 N 
ATOM      4  HN  UNK N   1      25.101  21.106   3.179  1.00  0.00     0.167 HD
HETATM    5  C   UNK N   1      24.087  19.343   3.812  0.00  0.00     0.077 A 
HETATM    6  C   UNK N   1      24.500  18.276   4.547  0.00  0.00     0.066 A 
HETATM    7  C   UNK N   1      23.662  17.202   4.833  0.00  0.00     0.061 A 
HETATM    8  C   UNK N   1      22.344  17.229   4.334  0.00  0.00     0.033 A 
HETATM    9  C   UNK N   1      21.906  18.359   3.592  0.00  0.00     0.050 A 
HETATM   10  C   UNK N   1      22.775  19.439   3.324  0.00  0.00     0.068 A 
HETATM   11  C   UNK N   1      27.459  20.304   4.451  0.00  0.00     0.089 C 
ENDROOT
BRANCH   1  12
HETATM   12  C   UNK N   1      26.448  17.467   5.795  0.00  0.00     0.169 C 
BRANCH  12  13
HETATM   13  C   UNK N   1      27.936  17.233   5.764  0.00  0.00    -0.033 A 
HETATM   14  C   UNK N   1      28.680  17.418   6.953  0.00  0.00    -0.039 A 
HETATM   15  C   UNK N   1      27.969  17.747   8.232  0.00  0.00     0.049 C 
HETATM   16  C   UNK N   1      30.093  17.347   6.922  0.00  0.00     0.054 A 
HETATM   17  C   UNK N   1      30.738  17.062   5.711  0.00  0.00     0.017 A 
HETATM   18  C   UNK N   1      30.002  16.882   4.541  0.00  0.00     0.001 A 
HETATM   19  C   UNK N   1      28.612  17.001   4.564  0.00  0.00     0.009 A 
BRANCH  16  20
HETATM   20  C   UNK N   1      30.920  17.622   8.157  0.00  0.00     0.418 C 
HETATM   21  F   UNK N   1      32.261  17.694   7.828  0.00  0.00    -0.166 F 
HETATM   22  F   UNK N   1      30.547  18.814   8.756  0.00  0.00    -0.166 F 
HETATM   23  F   UNK N   1      30.730  16.601   9.072  0.00  0.00    -0.166 F 
ENDBRANCH  16  20
ENDBRANCH  12  13
ENDBRANCH   1  12
BRANCH  10  24
HETATM   24  C   UNK N   1      22.284  20.616   2.572  0.00  0.00     0.178 C 
HETATM   25  O   UNK N   1      21.539  20.478   1.615  0.00  0.00    -0.646 OA
BRANCH  24  26
HETATM   26  O   UNK N   1      22.678  21.855   2.928  0.00  0.00    -0.773 OA
HETATM   27  H   UNK N   1      23.555  22.000   3.225  0.00  0.00     0.167 HD
ENDBRANCH  24  26
ENDBRANCH  10  24
BRANCH   8  28
HETATM   28  N   UNK N   1      21.467  16.127   4.568  0.00  0.00    -0.377 N 
HETATM   29  C   UNK N   1      20.184  16.051   3.893  0.00  0.00     0.149 C 
HETATM   30  C   UNK N   1      19.067  15.855   4.933  0.00  0.00     0.187 C 
HETATM   31  O   UNK N   1      19.551  16.060   6.241  0.00  0.00    -0.388 OA
HETATM   32  C   UNK N   1      20.466  15.018   6.496  0.00  0.00     0.187 C 
HETATM   33  C   UNK N   1      21.730  15.184   5.637  0.00  0.00     0.149 C 
ENDBRANCH   8  28
TORSDOF 6
ENDMDL
