REMARK  4 active torsions:
REMARK  status: ('A' for Active; 'I' for Inactive)
REMARK    1  A    between atoms: C_2  and  N_4 
REMARK    2  A    between atoms: C_7  and  C_10 
REMARK    3  A    between atoms: C_18  and  N_20 
REMARK    4  A    between atoms: C_21  and  N_27 
ROOT
HETATM    1  N   UNK N   1       6.655   2.724   0.174  0.00  0.00    -0.271 N 
HETATM    2  C   UNK N   1       6.036   3.913   0.125  0.00  0.00     0.140 A 
HETATM    3  C   UNK N   1       4.686   3.740   0.030  0.00  0.00     0.082 A 
HETATM    4  C   UNK N   1       4.511   2.346   0.031  0.00  0.00     0.076 A 
HETATM    5  N   UNK N   1       5.737   1.764   0.126  0.00  0.00    -0.295 N 
ATOM      6  HN  UNK N   1       5.921   0.761   0.155  1.00  0.00     0.187 HD
HETATM    7  C   UNK N   1       3.870   4.887  -0.010  0.00  0.00     0.116 A 
HETATM    8  N   UNK N   1       4.471   6.110   0.047  0.00  0.00    -0.338 N 
ATOM      9  HN  UNK N   1       3.893   6.950   0.019  1.00  0.00     0.168 HD
HETATM   10  C   UNK N   1       5.829   6.237   0.141  0.00  0.00     0.183 A 
HETATM   11  N   UNK N   1       6.623   5.131   0.182  0.00  0.00    -0.337 N 
ATOM     12  HN  UNK N   1       7.637   5.218   0.253  1.00  0.00     0.168 HD
ENDROOT
BRANCH   4  13
HETATM   13  C   UNK N   1       3.252   1.561   0.007  0.00  0.00    -0.005 A 
HETATM   14  C   UNK N   1       3.268   0.172   0.318  0.00  0.00     0.017 A 
HETATM   15  C   UNK N   1       2.063  -0.563   0.403  0.00  0.00     0.040 A 
HETATM   16  C   UNK N   1       0.877   0.126   0.162  0.00  0.00     0.106 A 
HETATM   17  C   UNK N   1       0.865   1.444  -0.164  0.00  0.00     0.070 A 
HETATM   18  O   UNK N   1      -0.360  -0.299   0.204  0.00  0.00    -0.277 OA
HETATM   19  C   UNK N   1       2.023   2.191  -0.249  0.00  0.00     0.046 A 
HETATM   20  N   UNK N   1      -0.399   1.860  -0.336  0.00  0.00    -0.320 N 
HETATM   21  C   UNK N   1      -1.121   0.741  -0.094  0.00  0.00     0.223 A 
ATOM     22  HN  UNK N   1      -0.733   2.791  -0.587  1.00  0.00     0.169 HD
BRANCH  21  23
HETATM   23  N   UNK N   1      -2.528   0.703  -0.132  0.00  0.00    -0.365 N 
HETATM   24  H   UNK N   1      -3.043   1.542  -0.159  0.00  0.00     0.159 HD
HETATM   25  H   UNK N   1      -2.997  -0.163  -0.132  0.00  0.00     0.159 HD
ENDBRANCH  21  23
ENDBRANCH   4  13
BRANCH   7  26
HETATM   26  N   UNK N   1       2.468   4.820  -0.085  0.00  0.00    -0.385 N 
HETATM   27  H   UNK N   1       1.937   5.648  -0.138  0.00  0.00     0.157 HD
HETATM   28  H   UNK N   1       2.017   3.946  -0.085  0.00  0.00     0.157 HD
ENDBRANCH   7  26
BRANCH   1  29
HETATM   29  C   UNK N   1       8.102   2.513   0.298  0.00  0.00     0.102 C 
HETATM   30  C   UNK N   1       8.838   3.146  -0.870  0.00  0.00     0.034 C 
HETATM   31  C   UNK N   1       8.457   1.038   0.367  0.00  0.00     0.034 C 
ENDBRANCH   1  29
TORSDOF 4
