MODEL 1
REMARK VINA RESULT:      -6.6      0.000      0.000
REMARK  10 active torsions:
REMARK  status: ('A' for Active; 'I' for Inactive)
REMARK    1  A    between atoms: C_15  and  C_10 
REMARK    2  A    between atoms: C_22  and  C_10 
REMARK    3  A    between atoms: C_30  and  C_15 
REMARK    4  A    between atoms: N_33  and  C_22 
REMARK    5  A    between atoms: C_30  and  C_25 
REMARK    6  A    between atoms: C_31  and  C_26 
REMARK    7  A    between atoms: C_31  and  C_27 
REMARK    8  A    between atoms: C_32  and  C_28 
REMARK    9  A    between atoms: O_35  and  C_29 
REMARK   10  A    between atoms: O_35  and  C_31 
ROOT
HETATM    1  C   UNK N   1      27.816  21.869  -7.898  0.00  0.00     0.062 C 
HETATM    2  C   UNK N   1      25.562  22.431  -7.030  0.00  0.00     0.062 C 
HETATM    3  C   UNK N   1      27.655  22.790  -9.107  0.00  0.00     0.275 C 
HETATM    4  C   UNK N   1      25.286  22.859  -8.479  0.00  0.00     0.275 C 
HETATM    5  C   UNK N   1      27.054  22.437  -6.693  0.00  0.00     0.126 C 
HETATM    6  N   UNK N   1      26.416  23.595  -9.055  0.00  0.00     0.088 N 
ENDROOT
BRANCH   6   7
HETATM    7  C   UNK N   1      26.025  24.075 -10.383  0.00  0.00     0.272 C 
BRANCH   7   8
HETATM    8  C   UNK N   1      26.030  25.598 -10.529  0.00  0.00     0.038 C 
BRANCH   8   9
HETATM    9  C   UNK N   1      26.252  26.341  -9.213  0.00  0.00     0.085 C 
BRANCH   9  10
HETATM   10  C   UNK N   1      27.562  27.067  -9.102  0.00  0.00     0.159 C 
HETATM   11  O   UNK N   1      28.196  27.299 -10.122  0.00  0.00    -0.292 OA
BRANCH  10  12
HETATM   12  C   UNK N   1      28.161  27.341  -7.779  0.00  0.00     0.010 A 
HETATM   13  C   UNK N   1      29.134  26.480  -7.258  0.00  0.00     0.015 A 
HETATM   14  C   UNK N   1      29.760  26.759  -6.053  0.00  0.00     0.009 A 
HETATM   15  C   UNK N   1      29.463  27.936  -5.357  0.00  0.00    -0.051 A 
HETATM   16  C   UNK N   1      28.473  28.799  -5.867  0.00  0.00     0.009 A 
HETATM   17  C   UNK N   1      27.813  28.492  -7.062  0.00  0.00     0.015 A 
BRANCH  15  18
HETATM   18  C   UNK N   1      30.241  28.261  -4.102  0.00  0.00    -0.024 C 
HETATM   19  C   UNK N   1      29.364  29.042  -3.140  0.00  0.00     0.019 C 
HETATM   20  C   UNK N   1      31.492  29.079  -4.383  0.00  0.00     0.019 C 
HETATM   21  C   UNK N   1      30.678  26.971  -3.425  0.00  0.00     0.019 C 
ENDBRANCH  15  18
ENDBRANCH  10  12
ENDBRANCH   9  10
ENDBRANCH   8   9
ENDBRANCH   7   8
ENDBRANCH   6   7
BRANCH   5  22
HETATM   22  O   UNK N   1      27.437  23.762  -6.395  0.00  0.00    -0.371 OA
BRANCH  22  23
HETATM   23  C   UNK N   1      27.226  23.978  -5.021  0.00  0.00     0.188 C 
BRANCH  23  24
HETATM   24  C   UNK N   1      26.550  25.305  -4.800  0.00  0.00    -0.025 A 
HETATM   25  C   UNK N   1      26.820  26.108  -3.683  0.00  0.00     0.010 A 
HETATM   26  C   UNK N   1      26.138  27.317  -3.507  0.00  0.00     0.001 A 
HETATM   27  C   UNK N   1      25.187  27.730  -4.447  0.00  0.00     0.000 A 
HETATM   28  C   UNK N   1      24.918  26.936  -5.562  0.00  0.00     0.001 A 
HETATM   29  C   UNK N   1      25.593  25.727  -5.734  0.00  0.00     0.010 A 
ENDBRANCH  23  24
BRANCH  23  30
HETATM   30  C   UNK N   1      28.490  23.682  -4.237  0.00  0.00    -0.025 A 
HETATM   31  C   UNK N   1      29.733  23.601  -4.889  0.00  0.00     0.010 A 
HETATM   32  C   UNK N   1      30.887  23.260  -4.179  0.00  0.00     0.001 A 
HETATM   33  C   UNK N   1      30.810  22.999  -2.809  0.00  0.00     0.000 A 
HETATM   34  C   UNK N   1      29.580  23.076  -2.152  0.00  0.00     0.001 A 
HETATM   35  C   UNK N   1      28.421  23.407  -2.865  0.00  0.00     0.010 A 
ENDBRANCH  23  30
ENDBRANCH  22  23
ENDBRANCH   5  22
TORSDOF 10
ENDMDL
MODEL 2
REMARK VINA RESULT:      -6.5      2.349      6.304
REMARK  10 active torsions:
REMARK  status: ('A' for Active; 'I' for Inactive)
REMARK    1  A    between atoms: C_15  and  C_10 
REMARK    2  A    between atoms: C_22  and  C_10 
REMARK    3  A    between atoms: C_30  and  C_15 
REMARK    4  A    between atoms: N_33  and  C_22 
REMARK    5  A    between atoms: C_30  and  C_25 
REMARK    6  A    between atoms: C_31  and  C_26 
REMARK    7  A    between atoms: C_31  and  C_27 
REMARK    8  A    between atoms: C_32  and  C_28 
REMARK    9  A    between atoms: O_35  and  C_29 
REMARK   10  A    between atoms: O_35  and  C_31 
ROOT
HETATM    1  C   UNK N   1      30.886  28.632  -2.332  0.00  0.00     0.062 C 
HETATM    2  C   UNK N   1      31.115  29.384  -4.684  0.00  0.00     0.062 C 
HETATM    3  C   UNK N   1      29.513  29.289  -2.184  0.00  0.00     0.275 C 
HETATM    4  C   UNK N   1      30.061  30.429  -4.285  0.00  0.00     0.275 C 
HETATM    5  C   UNK N   1      31.092  28.154  -3.776  0.00  0.00     0.126 C 
HETATM    6  N   UNK N   1      29.002  29.844  -3.455  0.00  0.00     0.088 N 
ENDROOT
BRANCH   6   7
HETATM    7  C   UNK N   1      27.978  30.867  -3.227  0.00  0.00     0.272 C 
BRANCH   7   8
HETATM    8  C   UNK N   1      26.551  30.407  -3.528  0.00  0.00     0.038 C 
BRANCH   8   9
HETATM    9  C   UNK N   1      26.477  29.203  -4.466  0.00  0.00     0.085 C 
BRANCH   9  10
HETATM   10  C   UNK N   1      26.078  27.910  -3.814  0.00  0.00     0.159 C 
HETATM   11  O   UNK N   1      25.934  27.880  -2.600  0.00  0.00    -0.292 OA
BRANCH  10  12
HETATM   12  C   UNK N   1      26.030  26.656  -4.596  0.00  0.00     0.010 A 
HETATM   13  C   UNK N   1      25.434  26.642  -5.862  0.00  0.00     0.015 A 
HETATM   14  C   UNK N   1      25.443  25.496  -6.642  0.00  0.00     0.009 A 
HETATM   15  C   UNK N   1      26.093  24.341  -6.192  0.00  0.00    -0.051 A 
HETATM   16  C   UNK N   1      26.681  24.342  -4.912  0.00  0.00     0.009 A 
HETATM   17  C   UNK N   1      26.632  25.489  -4.111  0.00  0.00     0.015 A 
BRANCH  15  18
HETATM   18  C   UNK N   1      26.177  23.143  -7.112  0.00  0.00    -0.024 C 
HETATM   19  C   UNK N   1      25.129  22.118  -6.719  0.00  0.00     0.019 C 
HETATM   20  C   UNK N   1      27.541  22.471  -7.078  0.00  0.00     0.019 C 
HETATM   21  C   UNK N   1      25.916  23.582  -8.545  0.00  0.00     0.019 C 
ENDBRANCH  15  18
ENDBRANCH  10  12
ENDBRANCH   9  10
ENDBRANCH   8   9
ENDBRANCH   7   8
ENDBRANCH   6   7
BRANCH   5  22
HETATM   22  O   UNK N   1      30.055  27.301  -4.210  0.00  0.00    -0.371 OA
BRANCH  22  23
HETATM   23  C   UNK N   1      30.588  26.418  -5.166  0.00  0.00     0.188 C 
BRANCH  23  24
HETATM   24  C   UNK N   1      29.752  26.438  -6.418  0.00  0.00    -0.025 A 
HETATM   25  C   UNK N   1      29.756  25.382  -7.340  0.00  0.00     0.010 A 
HETATM   26  C   UNK N   1      28.986  25.466  -8.506  0.00  0.00     0.001 A 
HETATM   27  C   UNK N   1      28.208  26.602  -8.752  0.00  0.00     0.000 A 
HETATM   28  C   UNK N   1      28.198  27.654  -7.836  0.00  0.00     0.001 A 
HETATM   29  C   UNK N   1      28.970  27.573  -6.677  0.00  0.00     0.010 A 
ENDBRANCH  23  24
BRANCH  23  30
HETATM   30  C   UNK N   1      30.895  25.074  -4.535  0.00  0.00    -0.025 A 
HETATM   31  C   UNK N   1      30.108  24.585  -3.477  0.00  0.00     0.010 A 
HETATM   32  C   UNK N   1      30.432  23.379  -2.848  0.00  0.00     0.001 A 
HETATM   33  C   UNK N   1      31.544  22.649  -3.273  0.00  0.00     0.000 A 
HETATM   34  C   UNK N   1      32.333  23.127  -4.323  0.00  0.00     0.001 A 
HETATM   35  C   UNK N   1      32.015  24.339  -4.946  0.00  0.00     0.010 A 
ENDBRANCH  23  30
ENDBRANCH  22  23
ENDBRANCH   5  22
TORSDOF 10
ENDMDL
MODEL 3
REMARK VINA RESULT:      -6.4     23.419     28.020
REMARK  10 active torsions:
REMARK  status: ('A' for Active; 'I' for Inactive)
REMARK    1  A    between atoms: C_15  and  C_10 
REMARK    2  A    between atoms: C_22  and  C_10 
REMARK    3  A    between atoms: C_30  and  C_15 
REMARK    4  A    between atoms: N_33  and  C_22 
REMARK    5  A    between atoms: C_30  and  C_25 
REMARK    6  A    between atoms: C_31  and  C_26 
REMARK    7  A    between atoms: C_31  and  C_27 
REMARK    8  A    between atoms: C_32  and  C_28 
REMARK    9  A    between atoms: O_35  and  C_29 
REMARK   10  A    between atoms: O_35  and  C_31 
ROOT
HETATM    1  C   UNK N   1      34.941   8.667  18.585  0.00  0.00     0.062 C 
HETATM    2  C   UNK N   1      37.293   9.164  19.190  0.00  0.00     0.062 C 
HETATM    3  C   UNK N   1      34.518  10.127  18.753  0.00  0.00     0.275 C 
HETATM    4  C   UNK N   1      36.693  10.415  19.848  0.00  0.00     0.275 C 
HETATM    5  C   UNK N   1      36.393   8.589  18.096  0.00  0.00     0.126 C 
HETATM    6  N   UNK N   1      35.660  11.030  19.007  0.00  0.00     0.088 N 
ENDROOT
BRANCH   6   7
HETATM    7  C   UNK N   1      35.232  12.279  19.642  0.00  0.00     0.272 C 
BRANCH   7   8
HETATM    8  C   UNK N   1      35.246  13.494  18.712  0.00  0.00     0.038 C 
BRANCH   8   9
HETATM    9  C   UNK N   1      35.112  13.139  17.232  0.00  0.00     0.085 C 
BRANCH   9  10
HETATM   10  C   UNK N   1      36.127  13.778  16.327  0.00  0.00     0.159 C 
HETATM   11  O   UNK N   1      36.631  14.840  16.663  0.00  0.00    -0.292 OA
BRANCH  10  12
HETATM   12  C   UNK N   1      36.384  13.229  14.979  0.00  0.00     0.010 A 
HETATM   13  C   UNK N   1      35.718  13.758  13.868  0.00  0.00     0.015 A 
HETATM   14  C   UNK N   1      35.998  13.307  12.587  0.00  0.00     0.009 A 
HETATM   15  C   UNK N   1      36.992  12.344  12.379  0.00  0.00    -0.051 A 
HETATM   16  C   UNK N   1      37.655  11.795  13.494  0.00  0.00     0.009 A 
HETATM   17  C   UNK N   1      37.338  12.222  14.788  0.00  0.00     0.015 A 
BRANCH  15  18
HETATM   18  C   UNK N   1      37.347  11.954  10.962  0.00  0.00    -0.024 C 
HETATM   19  C   UNK N   1      36.115  12.040  10.080  0.00  0.00     0.019 C 
HETATM   20  C   UNK N   1      37.909  10.544  10.865  0.00  0.00     0.019 C 
HETATM   21  C   UNK N   1      38.402  12.907  10.420  0.00  0.00     0.019 C 
ENDBRANCH  15  18
ENDBRANCH  10  12
ENDBRANCH   9  10
ENDBRANCH   8   9
ENDBRANCH   7   8
ENDBRANCH   6   7
BRANCH   5  22
HETATM   22  O   UNK N   1      36.600   9.331  16.914  0.00  0.00    -0.371 OA
BRANCH  22  23
HETATM   23  C   UNK N   1      36.443   8.463  15.820  0.00  0.00     0.188 C 
BRANCH  23  24
HETATM   24  C   UNK N   1      37.786   7.967  15.351  0.00  0.00    -0.025 A 
HETATM   25  C   UNK N   1      38.056   6.606  15.152  0.00  0.00     0.010 A 
HETATM   26  C   UNK N   1      39.331   6.196  14.749  0.00  0.00     0.001 A 
HETATM   27  C   UNK N   1      40.339   7.142  14.539  0.00  0.00     0.000 A 
HETATM   28  C   UNK N   1      40.075   8.499  14.732  0.00  0.00     0.001 A 
HETATM   29  C   UNK N   1      38.805   8.907  15.140  0.00  0.00     0.010 A 
ENDBRANCH  23  24
BRANCH  23  30
HETATM   30  C   UNK N   1      35.508   9.068  14.791  0.00  0.00    -0.025 A 
HETATM   31  C   UNK N   1      35.606   8.708  13.436  0.00  0.00     0.010 A 
HETATM   32  C   UNK N   1      34.792   9.317  12.478  0.00  0.00     0.001 A 
HETATM   33  C   UNK N   1      33.869  10.291  12.865  0.00  0.00     0.000 A 
HETATM   34  C   UNK N   1      33.765  10.658  14.209  0.00  0.00     0.001 A 
HETATM   35  C   UNK N   1      34.587  10.056  15.168  0.00  0.00     0.010 A 
ENDBRANCH  23  30
ENDBRANCH  22  23
ENDBRANCH   5  22
TORSDOF 10
ENDMDL
MODEL 4
REMARK VINA RESULT:      -6.4     18.133     22.380
REMARK  10 active torsions:
REMARK  status: ('A' for Active; 'I' for Inactive)
REMARK    1  A    between atoms: C_15  and  C_10 
REMARK    2  A    between atoms: C_22  and  C_10 
REMARK    3  A    between atoms: C_30  and  C_15 
REMARK    4  A    between atoms: N_33  and  C_22 
REMARK    5  A    between atoms: C_30  and  C_25 
REMARK    6  A    between atoms: C_31  and  C_26 
REMARK    7  A    between atoms: C_31  and  C_27 
REMARK    8  A    between atoms: C_32  and  C_28 
REMARK    9  A    between atoms: O_35  and  C_29 
REMARK   10  A    between atoms: O_35  and  C_31 
ROOT
HETATM    1  C   UNK N   1      37.068  12.902  10.795  0.00  0.00     0.062 C 
HETATM    2  C   UNK N   1      34.901  12.936  12.000  0.00  0.00     0.062 C 
HETATM    3  C   UNK N   1      37.083  14.423  10.641  0.00  0.00     0.275 C 
HETATM    4  C   UNK N   1      34.735  14.311  11.336  0.00  0.00     0.275 C 
HETATM    5  C   UNK N   1      36.366  12.509  12.102  0.00  0.00     0.126 C 
HETATM    6  N   UNK N   1      35.980  15.085  11.368  0.00  0.00     0.088 N 
ENDROOT
BRANCH   6   7
HETATM    7  C   UNK N   1      35.705  16.422  10.835  0.00  0.00     0.272 C 
BRANCH   7   8
HETATM    8  C   UNK N   1      34.653  16.453   9.724  0.00  0.00     0.038 C 
BRANCH   8   9
HETATM    9  C   UNK N   1      34.814  17.623   8.756  0.00  0.00     0.085 C 
BRANCH   9  10
HETATM   10  C   UNK N   1      34.023  17.513   7.484  0.00  0.00     0.159 C 
HETATM   11  O   UNK N   1      34.610  17.595   6.415  0.00  0.00    -0.292 OA
BRANCH  10  12
HETATM   12  C   UNK N   1      32.545  17.483   7.516  0.00  0.00     0.010 A 
HETATM   13  C   UNK N   1      31.859  17.962   8.638  0.00  0.00     0.015 A 
HETATM   14  C   UNK N   1      30.473  18.010   8.659  0.00  0.00     0.009 A 
HETATM   15  C   UNK N   1      29.735  17.623   7.535  0.00  0.00    -0.051 A 
HETATM   16  C   UNK N   1      30.418  17.124   6.408  0.00  0.00     0.009 A 
HETATM   17  C   UNK N   1      31.815  17.037   6.408  0.00  0.00     0.015 A 
BRANCH  15  18
HETATM   18  C   UNK N   1      28.232  17.790   7.552  0.00  0.00    -0.024 C 
HETATM   19  C   UNK N   1      27.735  17.824   8.986  0.00  0.00     0.019 C 
HETATM   20  C   UNK N   1      27.510  16.669   6.821  0.00  0.00     0.019 C 
HETATM   21  C   UNK N   1      27.857  19.099   6.874  0.00  0.00     0.019 C 
ENDBRANCH  15  18
ENDBRANCH  10  12
ENDBRANCH   9  10
ENDBRANCH   8   9
ENDBRANCH   7   8
ENDBRANCH   6   7
BRANCH   5  22
HETATM   22  O   UNK N   1      36.936  13.141  13.226  0.00  0.00    -0.371 OA
BRANCH  22  23
HETATM   23  C   UNK N   1      36.316  12.626  14.378  0.00  0.00     0.188 C 
BRANCH  23  24
HETATM   24  C   UNK N   1      36.373  13.632  15.496  0.00  0.00    -0.025 A 
HETATM   25  C   UNK N   1      37.191  14.769  15.442  0.00  0.00     0.010 A 
HETATM   26  C   UNK N   1      37.233  15.656  16.524  0.00  0.00     0.001 A 
HETATM   27  C   UNK N   1      36.455  15.413  17.661  0.00  0.00     0.000 A 
HETATM   28  C   UNK N   1      35.635  14.285  17.718  0.00  0.00     0.001 A 
HETATM   29  C   UNK N   1      35.599  13.397  16.642  0.00  0.00     0.010 A 
ENDBRANCH  23  24
BRANCH  23  30
HETATM   30  C   UNK N   1      36.807  11.219  14.660  0.00  0.00    -0.025 A 
HETATM   31  C   UNK N   1      35.934  10.247  15.180  0.00  0.00     0.010 A 
HETATM   32  C   UNK N   1      36.401   8.972  15.505  0.00  0.00     0.001 A 
HETATM   33  C   UNK N   1      37.747   8.654  15.313  0.00  0.00     0.000 A 
HETATM   34  C   UNK N   1      38.625   9.612  14.799  0.00  0.00     0.001 A 
HETATM   35  C   UNK N   1      38.159  10.893  14.482  0.00  0.00     0.010 A 
ENDBRANCH  23  30
ENDBRANCH  22  23
ENDBRANCH   5  22
TORSDOF 10
ENDMDL
MODEL 5
REMARK VINA RESULT:      -6.2     17.513     22.166
REMARK  10 active torsions:
REMARK  status: ('A' for Active; 'I' for Inactive)
REMARK    1  A    between atoms: C_15  and  C_10 
REMARK    2  A    between atoms: C_22  and  C_10 
REMARK    3  A    between atoms: C_30  and  C_15 
REMARK    4  A    between atoms: N_33  and  C_22 
REMARK    5  A    between atoms: C_30  and  C_25 
REMARK    6  A    between atoms: C_31  and  C_26 
REMARK    7  A    between atoms: C_31  and  C_27 
REMARK    8  A    between atoms: C_32  and  C_28 
REMARK    9  A    between atoms: O_35  and  C_29 
REMARK   10  A    between atoms: O_35  and  C_31 
ROOT
HETATM    1  C   UNK N   1      34.933  15.322   7.584  0.00  0.00     0.062 C 
HETATM    2  C   UNK N   1      34.646  17.568   8.594  0.00  0.00     0.062 C 
HETATM    3  C   UNK N   1      34.713  14.617   8.922  0.00  0.00     0.275 C 
HETATM    4  C   UNK N   1      34.986  16.846   9.907  0.00  0.00     0.275 C 
HETATM    5  C   UNK N   1      34.110  16.616   7.525  0.00  0.00     0.126 C 
HETATM    6  N   UNK N   1      34.315  15.545  10.001  0.00  0.00     0.088 N 
ENDROOT
BRANCH   6   7
HETATM    7  C   UNK N   1      34.586  14.982  11.327  0.00  0.00     0.272 C 
BRANCH   7   8
HETATM    8  C   UNK N   1      35.835  14.100  11.393  0.00  0.00     0.038 C 
BRANCH   8   9
HETATM    9  C   UNK N   1      35.826  13.106  12.552  0.00  0.00     0.085 C 
BRANCH   9  10
HETATM   10  C   UNK N   1      36.129  13.694  13.901  0.00  0.00     0.159 C 
HETATM   11  O   UNK N   1      36.567  14.834  13.962  0.00  0.00    -0.292 OA
BRANCH  10  12
HETATM   12  C   UNK N   1      36.068  12.858  15.118  0.00  0.00     0.010 A 
HETATM   13  C   UNK N   1      35.363  13.305  16.241  0.00  0.00     0.015 A 
HETATM   14  C   UNK N   1      35.232  12.505  17.366  0.00  0.00     0.009 A 
HETATM   15  C   UNK N   1      35.765  11.211  17.379  0.00  0.00    -0.051 A 
HETATM   16  C   UNK N   1      36.491  10.760  16.259  0.00  0.00     0.009 A 
HETATM   17  C   UNK N   1      36.657  11.588  15.142  0.00  0.00     0.015 A 
BRANCH  15  18
HETATM   18  C   UNK N   1      35.512  10.327  18.579  0.00  0.00    -0.024 C 
HETATM   19  C   UNK N   1      36.765   9.534  18.908  0.00  0.00     0.019 C 
HETATM   20  C   UNK N   1      34.370   9.348  18.357  0.00  0.00     0.019 C 
HETATM   21  C   UNK N   1      35.152  11.189  19.780  0.00  0.00     0.019 C 
ENDBRANCH  15  18
ENDBRANCH  10  12
ENDBRANCH   9  10
ENDBRANCH   8   9
ENDBRANCH   7   8
ENDBRANCH   6   7
BRANCH   5  22
HETATM   22  O   UNK N   1      32.741  16.390   7.776  0.00  0.00    -0.371 OA
BRANCH  22  23
HETATM   23  C   UNK N   1      31.998  17.262   6.960  0.00  0.00     0.188 C 
BRANCH  23  24
HETATM   24  C   UNK N   1      30.716  17.652   7.646  0.00  0.00    -0.025 A 
HETATM   25  C   UNK N   1      30.677  18.078   8.981  0.00  0.00     0.010 A 
HETATM   26  C   UNK N   1      29.454  18.396   9.581  0.00  0.00     0.001 A 
HETATM   27  C   UNK N   1      28.266  18.293   8.850  0.00  0.00     0.000 A 
HETATM   28  C   UNK N   1      28.299  17.874   7.519  0.00  0.00     0.001 A 
HETATM   29  C   UNK N   1      29.518  17.550   6.923  0.00  0.00     0.010 A 
ENDBRANCH  23  24
BRANCH  23  30
HETATM   30  C   UNK N   1      31.915  16.723   5.545  0.00  0.00    -0.025 A 
HETATM   31  C   UNK N   1      31.559  15.384   5.310  0.00  0.00     0.010 A 
HETATM   32  C   UNK N   1      31.549  14.868   4.012  0.00  0.00     0.001 A 
HETATM   33  C   UNK N   1      31.894  15.687   2.934  0.00  0.00     0.000 A 
HETATM   34  C   UNK N   1      32.250  17.020   3.157  0.00  0.00     0.001 A 
HETATM   35  C   UNK N   1      32.270  17.534   4.459  0.00  0.00     0.010 A 
ENDBRANCH  23  30
ENDBRANCH  22  23
ENDBRANCH   5  22
TORSDOF 10
ENDMDL
MODEL 6
REMARK VINA RESULT:      -5.9      2.503      5.950
REMARK  10 active torsions:
REMARK  status: ('A' for Active; 'I' for Inactive)
REMARK    1  A    between atoms: C_15  and  C_10 
REMARK    2  A    between atoms: C_22  and  C_10 
REMARK    3  A    between atoms: C_30  and  C_15 
REMARK    4  A    between atoms: N_33  and  C_22 
REMARK    5  A    between atoms: C_30  and  C_25 
REMARK    6  A    between atoms: C_31  and  C_26 
REMARK    7  A    between atoms: C_31  and  C_27 
REMARK    8  A    between atoms: C_32  and  C_28 
REMARK    9  A    between atoms: O_35  and  C_29 
REMARK   10  A    between atoms: O_35  and  C_31 
ROOT
HETATM    1  C   UNK N   1      32.396  23.264  -7.813  0.00  0.00     0.062 C 
HETATM    2  C   UNK N   1      33.228  24.757  -6.017  0.00  0.00     0.062 C 
HETATM    3  C   UNK N   1      32.069  22.144  -6.825  0.00  0.00     0.275 C 
HETATM    4  C   UNK N   1      33.391  23.451  -5.225  0.00  0.00     0.275 C 
HETATM    5  C   UNK N   1      32.205  24.632  -7.146  0.00  0.00     0.126 C 
HETATM    6  N   UNK N   1      32.247  22.553  -5.415  0.00  0.00     0.088 N 
ENDROOT
BRANCH   6   7
HETATM    7  C   UNK N   1      32.419  21.395  -4.533  0.00  0.00     0.272 C 
BRANCH   7   8
HETATM    8  C   UNK N   1      31.376  21.294  -3.418  0.00  0.00     0.038 C 
BRANCH   8   9
HETATM    9  C   UNK N   1      30.076  22.035  -3.721  0.00  0.00     0.085 C 
BRANCH   9  10
HETATM   10  C   UNK N   1      29.782  23.203  -2.823  0.00  0.00     0.159 C 
HETATM   11  O   UNK N   1      30.215  23.192  -1.680  0.00  0.00    -0.292 OA
BRANCH  10  12
HETATM   12  C   UNK N   1      28.843  24.262  -3.249  0.00  0.00     0.010 A 
HETATM   13  C   UNK N   1      29.333  25.483  -3.727  0.00  0.00     0.015 A 
HETATM   14  C   UNK N   1      28.472  26.461  -4.199  0.00  0.00     0.009 A 
HETATM   15  C   UNK N   1      27.093  26.224  -4.251  0.00  0.00    -0.051 A 
HETATM   16  C   UNK N   1      26.591  25.005  -3.757  0.00  0.00     0.009 A 
HETATM   17  C   UNK N   1      27.461  24.037  -3.241  0.00  0.00     0.015 A 
BRANCH  15  18
HETATM   18  C   UNK N   1      26.193  27.270  -4.871  0.00  0.00    -0.024 C 
HETATM   19  C   UNK N   1      24.943  26.611  -5.424  0.00  0.00     0.019 C 
HETATM   20  C   UNK N   1      26.872  28.034  -5.997  0.00  0.00     0.019 C 
HETATM   21  C   UNK N   1      25.783  28.281  -3.811  0.00  0.00     0.019 C 
ENDBRANCH  15  18
ENDBRANCH  10  12
ENDBRANCH   9  10
ENDBRANCH   8   9
ENDBRANCH   7   8
ENDBRANCH   6   7
BRANCH   5  22
HETATM   22  O   UNK N   1      30.914  24.783  -6.596  0.00  0.00    -0.371 OA
BRANCH  22  23
HETATM   23  C   UNK N   1      30.042  25.167  -7.630  0.00  0.00     0.188 C 
BRANCH  23  24
HETATM   24  C   UNK N   1      30.051  26.663  -7.792  0.00  0.00    -0.025 A 
HETATM   25  C   UNK N   1      30.414  27.529  -6.751  0.00  0.00     0.010 A 
HETATM   26  C   UNK N   1      30.372  28.915  -6.944  0.00  0.00     0.001 A 
HETATM   27  C   UNK N   1      29.972  29.440  -8.178  0.00  0.00     0.000 A 
HETATM   28  C   UNK N   1      29.614  28.582  -9.218  0.00  0.00     0.001 A 
HETATM   29  C   UNK N   1      29.649  27.201  -9.023  0.00  0.00     0.010 A 
ENDBRANCH  23  24
BRANCH  23  30
HETATM   30  C   UNK N   1      28.701  24.475  -7.476  0.00  0.00    -0.025 A 
HETATM   31  C   UNK N   1      27.518  25.104  -7.904  0.00  0.00     0.010 A 
HETATM   32  C   UNK N   1      26.277  24.498  -7.700  0.00  0.00     0.001 A 
HETATM   33  C   UNK N   1      26.204  23.255  -7.068  0.00  0.00     0.000 A 
HETATM   34  C   UNK N   1      27.373  22.621  -6.637  0.00  0.00     0.001 A 
HETATM   35  C   UNK N   1      28.617  23.233  -6.832  0.00  0.00     0.010 A 
ENDBRANCH  23  30
ENDBRANCH  22  23
ENDBRANCH   5  22
TORSDOF 10
ENDMDL
MODEL 7
REMARK VINA RESULT:      -5.9     11.510     15.874
REMARK  10 active torsions:
REMARK  status: ('A' for Active; 'I' for Inactive)
REMARK    1  A    between atoms: C_15  and  C_10 
REMARK    2  A    between atoms: C_22  and  C_10 
REMARK    3  A    between atoms: C_30  and  C_15 
REMARK    4  A    between atoms: N_33  and  C_22 
REMARK    5  A    between atoms: C_30  and  C_25 
REMARK    6  A    between atoms: C_31  and  C_26 
REMARK    7  A    between atoms: C_31  and  C_27 
REMARK    8  A    between atoms: C_32  and  C_28 
REMARK    9  A    between atoms: O_35  and  C_29 
REMARK   10  A    between atoms: O_35  and  C_31 
ROOT
HETATM    1  C   UNK N   1      32.664  17.473   3.995  0.00  0.00     0.062 C 
HETATM    2  C   UNK N   1      34.095  15.818   5.162  0.00  0.00     0.062 C 
HETATM    3  C   UNK N   1      31.836  16.381   3.317  0.00  0.00     0.275 C 
HETATM    4  C   UNK N   1      33.610  14.862   4.062  0.00  0.00     0.275 C 
HETATM    5  C   UNK N   1      33.143  16.996   5.372  0.00  0.00     0.126 C 
HETATM    6  N   UNK N   1      32.178  15.024   3.792  0.00  0.00     0.088 N 
ENDROOT
BRANCH   6   7
HETATM    7  C   UNK N   1      31.771  13.995   2.830  0.00  0.00     0.272 C 
BRANCH   7   8
HETATM    8  C   UNK N   1      30.527  13.206   3.242  0.00  0.00     0.038 C 
BRANCH   8   9
HETATM    9  C   UNK N   1      29.478  14.045   3.968  0.00  0.00     0.085 C 
BRANCH   9  10
HETATM   10  C   UNK N   1      28.266  14.398   3.154  0.00  0.00     0.159 C 
HETATM   11  O   UNK N   1      27.895  13.624   2.283  0.00  0.00    -0.292 OA
BRANCH  10  12
HETATM   12  C   UNK N   1      27.638  15.730   3.277  0.00  0.00     0.010 A 
HETATM   13  C   UNK N   1      26.258  15.874   3.097  0.00  0.00     0.015 A 
HETATM   14  C   UNK N   1      25.639  17.101   3.280  0.00  0.00     0.009 A 
HETATM   15  C   UNK N   1      26.382  18.212   3.697  0.00  0.00    -0.051 A 
HETATM   16  C   UNK N   1      27.774  18.079   3.864  0.00  0.00     0.009 A 
HETATM   17  C   UNK N   1      28.401  16.848   3.636  0.00  0.00     0.015 A 
BRANCH  15  18
HETATM   18  C   UNK N   1      25.659  19.508   3.991  0.00  0.00    -0.024 C 
HETATM   19  C   UNK N   1      25.962  19.956   5.409  0.00  0.00     0.019 C 
HETATM   20  C   UNK N   1      24.151  19.386   3.838  0.00  0.00     0.019 C 
HETATM   21  C   UNK N   1      26.133  20.585   3.027  0.00  0.00     0.019 C 
ENDBRANCH  15  18
ENDBRANCH  10  12
ENDBRANCH   9  10
ENDBRANCH   8   9
ENDBRANCH   7   8
ENDBRANCH   6   7
BRANCH   5  22
HETATM   22  O   UNK N   1      32.078  16.567   6.191  0.00  0.00    -0.371 OA
BRANCH  22  23
HETATM   23  C   UNK N   1      32.118  17.307   7.385  0.00  0.00     0.188 C 
BRANCH  23  24
HETATM   24  C   UNK N   1      33.019  16.634   8.386  0.00  0.00    -0.025 A 
HETATM   25  C   UNK N   1      32.778  15.336   8.858  0.00  0.00     0.010 A 
HETATM   26  C   UNK N   1      33.627  14.769   9.815  0.00  0.00     0.001 A 
HETATM   27  C   UNK N   1      34.720  15.494  10.301  0.00  0.00     0.000 A 
HETATM   28  C   UNK N   1      34.966  16.785   9.832  0.00  0.00     0.001 A 
HETATM   29  C   UNK N   1      34.116  17.352   8.882  0.00  0.00     0.010 A 
ENDBRANCH  23  24
BRANCH  23  30
HETATM   30  C   UNK N   1      30.716  17.681   7.826  0.00  0.00    -0.025 A 
HETATM   31  C   UNK N   1      30.503  18.338   9.050  0.00  0.00     0.010 A 
HETATM   32  C   UNK N   1      29.207  18.621   9.490  0.00  0.00     0.001 A 
HETATM   33  C   UNK N   1      28.111  18.251   8.708  0.00  0.00     0.000 A 
HETATM   34  C   UNK N   1      28.311  17.596   7.489  0.00  0.00     0.001 A 
HETATM   35  C   UNK N   1      29.609  17.304   7.054  0.00  0.00     0.010 A 
ENDBRANCH  23  30
ENDBRANCH  22  23
ENDBRANCH   5  22
TORSDOF 10
ENDMDL
MODEL 8
REMARK VINA RESULT:      -5.9     13.815     18.204
REMARK  10 active torsions:
REMARK  status: ('A' for Active; 'I' for Inactive)
REMARK    1  A    between atoms: C_15  and  C_10 
REMARK    2  A    between atoms: C_22  and  C_10 
REMARK    3  A    between atoms: C_30  and  C_15 
REMARK    4  A    between atoms: N_33  and  C_22 
REMARK    5  A    between atoms: C_30  and  C_25 
REMARK    6  A    between atoms: C_31  and  C_26 
REMARK    7  A    between atoms: C_31  and  C_27 
REMARK    8  A    between atoms: C_32  and  C_28 
REMARK    9  A    between atoms: O_35  and  C_29 
REMARK   10  A    between atoms: O_35  and  C_31 
ROOT
HETATM    1  C   UNK N   1      30.822  15.202   4.780  0.00  0.00     0.062 C 
HETATM    2  C   UNK N   1      31.799  16.868   3.225  0.00  0.00     0.062 C 
HETATM    3  C   UNK N   1      31.988  15.334   5.761  0.00  0.00     0.275 C 
HETATM    4  C   UNK N   1      33.115  16.529   3.941  0.00  0.00     0.275 C 
HETATM    5  C   UNK N   1      30.570  16.541   4.074  0.00  0.00     0.126 C 
HETATM    6  N   UNK N   1      32.931  16.410   5.391  0.00  0.00     0.088 N 
ENDROOT
BRANCH   6   7
HETATM    7  C   UNK N   1      34.245  16.215   6.008  0.00  0.00     0.272 C 
BRANCH   7   8
HETATM    8  C   UNK N   1      34.194  15.738   7.461  0.00  0.00     0.038 C 
BRANCH   8   9
HETATM    9  C   UNK N   1      34.015  16.868   8.474  0.00  0.00     0.085 C 
BRANCH   9  10
HETATM   10  C   UNK N   1      34.948  16.824   9.650  0.00  0.00     0.159 C 
HETATM   11  O   UNK N   1      35.531  17.847   9.979  0.00  0.00    -0.292 OA
BRANCH  10  12
HETATM   12  C   UNK N   1      35.291  15.537  10.291  0.00  0.00     0.010 A 
HETATM   13  C   UNK N   1      36.574  14.998  10.138  0.00  0.00     0.015 A 
HETATM   14  C   UNK N   1      36.939  13.830  10.790  0.00  0.00     0.009 A 
HETATM   15  C   UNK N   1      36.040  13.192  11.653  0.00  0.00    -0.051 A 
HETATM   16  C   UNK N   1      34.742  13.719  11.799  0.00  0.00     0.009 A 
HETATM   17  C   UNK N   1      34.365  14.874  11.105  0.00  0.00     0.015 A 
BRANCH  15  18
HETATM   18  C   UNK N   1      36.506  11.981  12.430  0.00  0.00    -0.024 C 
HETATM   19  C   UNK N   1      36.955  12.401  13.818  0.00  0.00     0.019 C 
HETATM   20  C   UNK N   1      37.658  11.256  11.752  0.00  0.00     0.019 C 
HETATM   21  C   UNK N   1      35.358  10.992  12.567  0.00  0.00     0.019 C 
ENDBRANCH  15  18
ENDBRANCH  10  12
ENDBRANCH   9  10
ENDBRANCH   8   9
ENDBRANCH   7   8
ENDBRANCH   6   7
BRANCH   5  22
HETATM   22  O   UNK N   1      30.366  17.597   4.987  0.00  0.00    -0.371 OA
BRANCH  22  23
HETATM   23  C   UNK N   1      29.130  17.392   5.623  0.00  0.00     0.188 C 
BRANCH  23  24
HETATM   24  C   UNK N   1      28.026  18.056   4.844  0.00  0.00    -0.025 A 
HETATM   25  C   UNK N   1      26.959  17.335   4.289  0.00  0.00     0.010 A 
HETATM   26  C   UNK N   1      25.977  17.998   3.544  0.00  0.00     0.001 A 
HETATM   27  C   UNK N   1      26.055  19.381   3.353  0.00  0.00     0.000 A 
HETATM   28  C   UNK N   1      27.113  20.104   3.906  0.00  0.00     0.001 A 
HETATM   29  C   UNK N   1      28.095  19.442   4.643  0.00  0.00     0.010 A 
ENDBRANCH  23  24
BRANCH  23  30
HETATM   30  C   UNK N   1      29.238  17.695   7.105  0.00  0.00    -0.025 A 
HETATM   31  C   UNK N   1      30.484  17.990   7.685  0.00  0.00     0.010 A 
HETATM   32  C   UNK N   1      30.596  18.200   9.062  0.00  0.00     0.001 A 
HETATM   33  C   UNK N   1      29.461  18.120   9.873  0.00  0.00     0.000 A 
HETATM   34  C   UNK N   1      28.218  17.825   9.307  0.00  0.00     0.001 A 
HETATM   35  C   UNK N   1      28.108  17.604   7.928  0.00  0.00     0.010 A 
ENDBRANCH  23  30
ENDBRANCH  22  23
ENDBRANCH   5  22
TORSDOF 10
ENDMDL
MODEL 9
REMARK VINA RESULT:      -5.9      2.356      5.668
REMARK  10 active torsions:
REMARK  status: ('A' for Active; 'I' for Inactive)
REMARK    1  A    between atoms: C_15  and  C_10 
REMARK    2  A    between atoms: C_22  and  C_10 
REMARK    3  A    between atoms: C_30  and  C_15 
REMARK    4  A    between atoms: N_33  and  C_22 
REMARK    5  A    between atoms: C_30  and  C_25 
REMARK    6  A    between atoms: C_31  and  C_26 
REMARK    7  A    between atoms: C_31  and  C_27 
REMARK    8  A    between atoms: C_32  and  C_28 
REMARK    9  A    between atoms: O_35  and  C_29 
REMARK   10  A    between atoms: O_35  and  C_31 
ROOT
HETATM    1  C   UNK N   1      32.784  27.118  -4.480  0.00  0.00     0.062 C 
HETATM    2  C   UNK N   1      31.348  26.992  -6.498  0.00  0.00     0.062 C 
HETATM    3  C   UNK N   1      31.964  28.264  -3.885  0.00  0.00     0.275 C 
HETATM    4  C   UNK N   1      30.959  28.428  -6.115  0.00  0.00     0.275 C 
HETATM    5  C   UNK N   1      31.880  26.194  -5.307  0.00  0.00     0.126 C 
HETATM    6  N   UNK N   1      30.750  28.569  -4.670  0.00  0.00     0.088 N 
ENDROOT
BRANCH   6   7
HETATM    7  C   UNK N   1      30.260  29.924  -4.405  0.00  0.00     0.272 C 
BRANCH   7   8
HETATM    8  C   UNK N   1      28.942  29.977  -3.630  0.00  0.00     0.038 C 
BRANCH   8   9
HETATM    9  C   UNK N   1      28.248  28.622  -3.503  0.00  0.00     0.085 C 
BRANCH   9  10
HETATM   10  C   UNK N   1      26.862  28.557  -4.079  0.00  0.00     0.159 C 
HETATM   11  O   UNK N   1      25.925  28.961  -3.405  0.00  0.00    -0.292 OA
BRANCH  10  12
HETATM   12  C   UNK N   1      26.609  27.860  -5.357  0.00  0.00     0.010 A 
HETATM   13  C   UNK N   1      27.641  27.712  -6.291  0.00  0.00     0.015 A 
HETATM   14  C   UNK N   1      27.445  26.999  -7.463  0.00  0.00     0.009 A 
HETATM   15  C   UNK N   1      26.219  26.372  -7.712  0.00  0.00    -0.051 A 
HETATM   16  C   UNK N   1      25.170  26.530  -6.785  0.00  0.00     0.009 A 
HETATM   17  C   UNK N   1      25.360  27.287  -5.624  0.00  0.00     0.015 A 
BRANCH  15  18
HETATM   18  C   UNK N   1      26.073  25.513  -8.949  0.00  0.00    -0.024 C 
HETATM   19  C   UNK N   1      25.450  26.325 -10.069  0.00  0.00     0.019 C 
HETATM   20  C   UNK N   1      25.210  24.283  -8.711  0.00  0.00     0.019 C 
HETATM   21  C   UNK N   1      27.444  25.032  -9.399  0.00  0.00     0.019 C 
ENDBRANCH  15  18
ENDBRANCH  10  12
ENDBRANCH   9  10
ENDBRANCH   8   9
ENDBRANCH   7   8
ENDBRANCH   6   7
BRANCH   5  22
HETATM   22  O   UNK N   1      30.780  25.717  -4.564  0.00  0.00    -0.371 OA
BRANCH  22  23
HETATM   23  C   UNK N   1      30.414  24.463  -5.084  0.00  0.00     0.188 C 
BRANCH  23  24
HETATM   24  C   UNK N   1      28.932  24.246  -4.928  0.00  0.00    -0.025 A 
HETATM   25  C   UNK N   1      28.180  23.507  -5.851  0.00  0.00     0.010 A 
HETATM   26  C   UNK N   1      26.799  23.365  -5.677  0.00  0.00     0.001 A 
HETATM   27  C   UNK N   1      26.165  23.957  -4.580  0.00  0.00     0.000 A 
HETATM   28  C   UNK N   1      26.910  24.691  -3.656  0.00  0.00     0.001 A 
HETATM   29  C   UNK N   1      28.286  24.838  -3.833  0.00  0.00     0.010 A 
ENDBRANCH  23  24
BRANCH  23  30
HETATM   30  C   UNK N   1      31.350  23.383  -4.575  0.00  0.00    -0.025 A 
HETATM   31  C   UNK N   1      32.312  22.811  -5.426  0.00  0.00     0.010 A 
HETATM   32  C   UNK N   1      33.127  21.768  -4.978  0.00  0.00     0.001 A 
HETATM   33  C   UNK N   1      32.990  21.288  -3.674  0.00  0.00     0.000 A 
HETATM   34  C   UNK N   1      32.036  21.848  -2.820  0.00  0.00     0.001 A 
HETATM   35  C   UNK N   1      31.212  22.886  -3.272  0.00  0.00     0.010 A 
ENDBRANCH  23  30
ENDBRANCH  22  23
ENDBRANCH   5  22
TORSDOF 10
ENDMDL
