REMARK  11 active torsions:
REMARK  status: ('A' for Active; 'I' for Inactive)
REMARK    1  A    between atoms: C_2  and  N_3 
REMARK    2  A    between atoms: N_3  and  C_4 
REMARK       I    between atoms: N_3  and  C_31 
REMARK    3  A    between atoms: N_7  and  C_10 
REMARK    4  A    between atoms: C_10  and  C_11 
REMARK    5  A    between atoms: C_12  and  C_11 
REMARK    6  A    between atoms: C_12  and  C_13 
REMARK    7  A    between atoms: C_12  and  C_23 
REMARK    8  A    between atoms: C_16  and  S_19 
REMARK    9  A    between atoms: C_31  and  C_33 
REMARK   10  A    between atoms: C_33  and  C_34 
REMARK   11  A    between atoms: C_37  and  S_40 
ROOT
HETATM    1  C   UNK N   1       0.870  -1.986  -0.756  0.00  0.00     0.090 C 
HETATM    2  C   UNK N   1       1.988  -2.737  -1.497  0.00  0.00     0.055 C 
HETATM    3  C   UNK N   1       2.751  -3.725  -0.597  0.00  0.00     0.274 C 
HETATM    4  N   UNK N   1       2.521  -3.464   0.829  0.00  0.00     0.088 N 
HETATM    5  C   UNK N   1       1.098  -3.559   1.203  0.00  0.00     0.274 C 
HETATM    6  C   UNK N   1       0.155  -3.018   0.121  0.00  0.00     0.055 C 
ENDROOT
BRANCH   4   7
HETATM    7  C   UNK N   1       3.335  -4.383   1.635  0.00  0.00     0.273 C 
BRANCH   7   8
HETATM    8  C   UNK N   1       2.733  -5.789   1.780  0.00  0.00     0.044 C 
BRANCH   8   9
HETATM    9  C   UNK N   1       2.622  -6.523   0.443  0.00  0.00     0.053 C 
BRANCH   9  10
HETATM   10  C   UNK N   1       1.287  -7.241   0.362  0.00  0.00    -0.050 A 
HETATM   11  C   UNK N   1       1.172  -8.627   0.183  0.00  0.00     0.009 A 
HETATM   12  C   UNK N   1      -0.085  -9.236   0.125  0.00  0.00     0.024 A 
HETATM   13  C   UNK N   1      -1.254  -8.458   0.210  0.00  0.00     0.058 A 
HETATM   14  C   UNK N   1      -1.143  -7.074   0.408  0.00  0.00     0.024 A 
HETATM   15  C   UNK N   1       0.116  -6.475   0.468  0.00  0.00     0.009 A 
BRANCH  13  16
HETATM   16  S   UNK N   1      -2.881  -9.251   0.283  0.00  0.00     0.171 S 
HETATM   17  O   UNK N   1      -4.033  -8.439  -0.329  0.00  0.00    -0.223 OA
HETATM   18  O   UNK N   1      -2.947 -10.603  -0.442  0.00  0.00    -0.223 OA
HETATM   19  C   UNK N   1      -2.450  -8.910  -1.460  0.00  0.00     0.167 C 
ENDBRANCH  13  16
ENDBRANCH   9  10
BRANCH   9  20
HETATM   20  C   UNK N   1       3.921  -7.244   0.141  0.00  0.00    -0.044 A 
HETATM   21  C   UNK N   1       5.068  -6.477  -0.115  0.00  0.00     0.050 A 
HETATM   22  C   UNK N   1       6.290  -7.095  -0.392  0.00  0.00     0.119 A 
HETATM   23  C   UNK N   1       6.379  -8.488  -0.408  0.00  0.00     0.084 A 
HETATM   24  F   UNK N   1       7.387  -6.342  -0.644  0.00  0.00    -0.206 F 
HETATM   25  C   UNK N   1       5.245  -9.262  -0.151  0.00  0.00     0.119 A 
HETATM   26  C   UNK N   1       4.023  -8.643   0.121  0.00  0.00     0.050 A 
HETATM   27  F   UNK N   1       5.330 -10.613  -0.161  0.00  0.00    -0.206 F 
ENDBRANCH   9  20
ENDBRANCH   8   9
ENDBRANCH   7   8
ENDBRANCH   4   7
BRANCH   1  28
HETATM   28  N   UNK N   1       1.269  -0.807   0.044  0.00  0.00    -0.347 N 
HETATM   29  C   UNK N   1       2.483  -0.158  -0.051  0.00  0.00     0.224 C 
HETATM   30  O   UNK N   1       2.715   0.777   0.713  0.00  0.00    -0.273 OA
BRANCH  28  31
HETATM   31  C   UNK N   1       0.289  -0.309   0.994  0.00  0.00     0.122 C 
HETATM   32  C   UNK N   1      -0.236   1.054   0.580  0.00  0.00     0.026 C 
ENDBRANCH  28  31
BRANCH  29  33
HETATM   33  C   UNK N   1       3.543  -0.529  -1.062  0.00  0.00     0.141 C 
BRANCH  33  34
HETATM   34  C   UNK N   1       4.800   0.263  -0.919  0.00  0.00    -0.049 A 
HETATM   35  C   UNK N   1       4.845   1.620  -1.272  0.00  0.00     0.009 A 
HETATM   36  C   UNK N   1       6.015   2.361  -1.067  0.00  0.00     0.024 A 
HETATM   37  C   UNK N   1       7.139   1.752  -0.472  0.00  0.00     0.058 A 
HETATM   38  C   UNK N   1       7.095   0.368  -0.188  0.00  0.00     0.024 A 
HETATM   39  C   UNK N   1       5.929  -0.361  -0.393  0.00  0.00     0.009 A 
BRANCH  37  40
HETATM   40  S   UNK N   1       8.708   2.663  -0.275  0.00  0.00     0.171 S 
HETATM   41  O   UNK N   1       8.933   3.804   0.730  0.00  0.00    -0.223 OA
HETATM   42  O   UNK N   1       9.551   1.599   0.442  0.00  0.00    -0.223 OA
HETATM   43  C   UNK N   1       7.677   2.675   1.240  0.00  0.00     0.167 C 
ENDBRANCH  37  40
ENDBRANCH  33  34
ENDBRANCH  29  33
ENDBRANCH   1  28
TORSDOF 11
