REMARK  16 active torsions:
REMARK  status: ('A' for Active; 'I' for Inactive)
REMARK    1  A    between atoms: C_2  and  C_3 
REMARK    2  A    between atoms: C_8  and  C_52 
REMARK    3  A    between atoms: C_17  and  C_31 
REMARK    4  A    between atoms: C_19  and  C_28 
REMARK    5  A    between atoms: C_28  and  O_30 
REMARK    6  A    between atoms: C_31  and  C_32 
REMARK       I    between atoms: C_32  and  N_34 
REMARK    7  A    between atoms: C_35  and  N_34 
REMARK    8  A    between atoms: C_35  and  C_36 
REMARK    9  A    between atoms: C_35  and  C_40 
REMARK   10  A    between atoms: C_36  and  C_37 
REMARK   11  A    between atoms: C_37  and  O_39 
REMARK   12  A    between atoms: C_40  and  O_42 
REMARK   13  A    between atoms: C_43  and  C_46 
REMARK   14  A    between atoms: C_46  and  C_47 
REMARK   15  A    between atoms: C_47  and  C_48 
REMARK   16  A    between atoms: C_48  and  O_50 
ROOT
HETATM    1  C   UNK N   1      -3.203  -3.250   0.120  0.00  0.00    -0.024 A 
HETATM    2  C   UNK N   1      -2.293  -4.200  -0.127  0.00  0.00    -0.027 A 
HETATM    3  C   UNK N   1      -0.992  -3.545  -0.038  0.00  0.00     0.041 A 
HETATM    4  C   UNK N   1       0.198  -4.126  -0.215  0.00  0.00     0.060 C 
HETATM    5  C   UNK N   1       1.483  -3.420  -0.075  0.00  0.00     0.045 A 
HETATM    6  C   UNK N   1       2.723  -4.009  -0.234  0.00  0.00    -0.002 A 
HETATM    7  C   UNK N   1       3.653  -3.036   0.066  0.00  0.00    -0.023 A 
HETATM    8  C   UNK N   1       2.942  -1.897   0.367  0.00  0.00     0.041 A 
HETATM    9  N   UNK N   1       1.616  -2.123   0.281  0.00  0.00    -0.355 N 
HETATM   10  C   UNK N   1       3.563  -0.618   0.711  0.00  0.00     0.055 C 
HETATM   11  C   UNK N   1       2.969   0.572   0.623  0.00  0.00     0.016 C 
HETATM   12  N   UNK N   1       1.657   0.792   0.172  0.00  0.00    -0.362 N 
ATOM     13  HN  UNK N   1       0.971   0.062  -0.022  1.00  0.00     0.165 HD
HETATM   14  C   UNK N   1       1.457   2.044   0.043  0.00  0.00     0.023 C 
HETATM   15  C   UNK N   1       0.133   2.662  -0.315  0.00  0.00     0.001 C 
HETATM   16  C   UNK N   1      -1.053   1.989  -0.378  0.00  0.00     0.059 C 
HETATM   17  C   UNK N   1      -2.321   2.531  -0.701  0.00  0.00     0.073 C 
HETATM   18  C   UNK N   1      -3.237   1.570  -0.351  0.00  0.00    -0.016 C 
HETATM   19  C   UNK N   1      -2.530   0.460   0.017  0.00  0.00     0.042 C 
HETATM   20  N   UNK N   1      -1.192   0.693  -0.023  0.00  0.00    -0.354 N 
HETATM   21  C   UNK N   1      -3.124  -0.703   0.244  0.00  0.00     0.060 C 
HETATM   22  C   UNK N   1      -2.464  -1.998   0.320  0.00  0.00     0.041 A 
HETATM   23  N   UNK N   1      -1.199  -2.177   0.216  0.00  0.00    -0.355 N 
ATOM     24  HN  UNK N   1      -0.477  -1.461   0.300  1.00  0.00     0.166 HD
HETATM   25  C   UNK N   1      -4.728   1.646  -0.483  0.00  0.00     0.052 C 
HETATM   26  C   UNK N   1       2.697   2.883   0.347  0.00  0.00     0.046 C 
HETATM   27  C   UNK N   1       3.669   1.840   0.956  0.00  0.00     0.041 C 
HETATM   28  C   UNK N   1       5.109   1.919   0.450  0.00  0.00     0.017 C 
HETATM   29  C   UNK N   1       5.140  -3.160   0.060  0.00  0.00     0.051 C 
HETATM   30  C   UNK N   1      -2.536  -5.634  -0.469  0.00  0.00     0.051 C 
HETATM   31  H   UNK N   1       0.892  -1.476   0.445  0.00  0.00     0.166 HD
HETATM   32  H   UNK N   1      -0.472   0.050   0.168  0.00  0.00     0.166 HD
ENDROOT
BRANCH  15  33
HETATM   33  C   UNK N   1       0.086   4.154  -0.252  0.00  0.00     0.145 C 
BRANCH  33  34
HETATM   34  C   UNK N   1      -0.032   4.520   1.220  0.00  0.00     0.222 C 
HETATM   35  O   UNK N   1       0.857   4.201   1.992  0.00  0.00    -0.273 OA
HETATM   36  N   UNK N   1      -1.107   5.173   1.714  0.00  0.00    -0.346 N 
HETATM   37  H   UNK N   1      -1.138   5.359   2.681  0.00  0.00     0.163 HD
BRANCH  36  38
HETATM   38  C   UNK N   1      -2.206   5.608   0.901  0.00  0.00     0.192 C 
BRANCH  38  39
HETATM   39  C   UNK N   1      -2.226   7.123   0.902  0.00  0.00     0.146 C 
BRANCH  39  40
HETATM   40  C   UNK N   1      -2.448   7.621  -0.485  0.00  0.00     0.141 C 
HETATM   41  O   UNK N   1      -1.550   8.204  -1.070  0.00  0.00    -0.650 OA
BRANCH  40  42
HETATM   42  O   UNK N   1      -3.632   7.427  -1.095  0.00  0.00    -0.776 OA
HETATM   43  H   UNK N   1      -4.161   8.074  -1.519  0.00  0.00     0.167 HD
ENDBRANCH  40  42
ENDBRANCH  39  40
ENDBRANCH  38  39
BRANCH  38  44
HETATM   44  C   UNK N   1      -3.507   5.026   1.393  0.00  0.00     0.164 C 
HETATM   45  O   UNK N   1      -4.554   5.311   0.834  0.00  0.00    -0.648 OA
BRANCH  44  46
HETATM   46  O   UNK N   1      -3.522   4.156   2.423  0.00  0.00    -0.775 OA
HETATM   47  H   UNK N   1      -4.051   3.863   3.138  0.00  0.00     0.167 HD
ENDBRANCH  44  46
ENDBRANCH  38  44
ENDBRANCH  36  38
ENDBRANCH  33  34
ENDBRANCH  15  33
BRANCH  26  48
HETATM   48  C   UNK N   1       3.258   3.518  -0.939  0.00  0.00     0.022 C 
BRANCH  48  49
HETATM   49  C   UNK N   1       2.878   4.982  -1.163  0.00  0.00     0.110 C 
BRANCH  49  50
HETATM   50  C   UNK N   1       2.980   5.825   0.073  0.00  0.00     0.139 C 
HETATM   51  O   UNK N   1       2.043   6.533   0.399  0.00  0.00    -0.650 OA
BRANCH  50  52
HETATM   52  O   UNK N   1       4.100   5.812   0.820  0.00  0.00    -0.776 OA
HETATM   53  H   UNK N   1       4.482   5.133   1.340  0.00  0.00     0.167 HD
ENDBRANCH  50  52
ENDBRANCH  49  50
ENDBRANCH  48  49
ENDBRANCH  26  48
BRANCH  17  54
HETATM   54  C   UNK N   1      -2.690   3.792  -1.409  0.00  0.00     0.179 C 
HETATM   55  O   UNK N   1      -3.867   4.082  -1.562  0.00  0.00    -0.646 OA
BRANCH  54  56
HETATM   56  O   UNK N   1      -1.766   4.517  -2.065  0.00  0.00    -0.773 OA
HETATM   57  H   UNK N   1      -1.006   4.211  -2.521  0.00  0.00     0.167 HD
ENDBRANCH  54  56
ENDBRANCH  17  54
BRANCH   1  58
HETATM   58  C   UNK N   1      -4.714  -3.321   0.137  0.00  0.00     0.037 C 
HETATM   59  C   UNK N   1      -5.310  -4.685  -0.145  0.00  0.00     0.010 C 
ENDBRANCH   1  58
BRANCH   6  60
HETATM   60  C   UNK N   1       2.956  -5.408  -0.642  0.00  0.00     0.004 C 
HETATM   61  C   UNK N   1       4.179  -5.896  -0.843  0.00  0.00     0.012 C 
ENDBRANCH   6  60
TORSDOF 16
