MODEL 1
REMARK VINA RESULT:      -7.2      0.000      0.000
REMARK  16 active torsions:
REMARK  status: ('A' for Active; 'I' for Inactive)
REMARK    1  A    between atoms: C_2  and  C_3 
REMARK    2  A    between atoms: C_8  and  C_52 
REMARK    3  A    between atoms: C_17  and  C_31 
REMARK    4  A    between atoms: C_19  and  C_28 
REMARK    5  A    between atoms: C_28  and  O_30 
REMARK    6  A    between atoms: C_31  and  C_32 
REMARK       I    between atoms: C_32  and  N_34 
REMARK    7  A    between atoms: C_35  and  N_34 
REMARK    8  A    between atoms: C_35  and  C_36 
REMARK    9  A    between atoms: C_35  and  C_40 
REMARK   10  A    between atoms: C_36  and  C_37 
REMARK   11  A    between atoms: C_37  and  O_39 
REMARK   12  A    between atoms: C_40  and  O_42 
REMARK   13  A    between atoms: C_43  and  C_46 
REMARK   14  A    between atoms: C_46  and  C_47 
REMARK   15  A    between atoms: C_47  and  C_48 
REMARK   16  A    between atoms: C_48  and  O_50 
ROOT
HETATM    1  C   UNK N   1      28.152  13.490   3.216  0.00  0.00    -0.024 A 
HETATM    2  C   UNK N   1      28.275  12.278   2.661  0.00  0.00    -0.027 A 
HETATM    3  C   UNK N   1      29.246  11.557   3.478  0.00  0.00     0.041 A 
HETATM    4  C   UNK N   1      29.668  10.305   3.281  0.00  0.00     0.060 C 
HETATM    5  C   UNK N   1      30.624   9.615   4.164  0.00  0.00     0.045 A 
HETATM    6  C   UNK N   1      31.056   8.314   3.988  0.00  0.00    -0.002 A 
HETATM    7  C   UNK N   1      31.866   8.027   5.066  0.00  0.00    -0.023 A 
HETATM    8  C   UNK N   1      31.913   9.169   5.833  0.00  0.00     0.041 A 
HETATM    9  N   UNK N   1      31.158  10.144   5.287  0.00  0.00    -0.355 N 
HETATM   10  C   UNK N   1      32.699   9.293   7.060  0.00  0.00     0.055 C 
HETATM   11  C   UNK N   1      33.091  10.443   7.607  0.00  0.00     0.016 C 
HETATM   12  N   UNK N   1      32.827  11.721   7.087  0.00  0.00    -0.362 N 
ATOM     13  HN  UNK N   1      32.204  11.920   6.303  1.00  0.00     0.165 HD
HETATM   14  C   UNK N   1      33.484  12.592   7.745  0.00  0.00     0.023 C 
HETATM   15  C   UNK N   1      33.367  14.078   7.544  0.00  0.00     0.001 C 
HETATM   16  C   UNK N   1      32.429  14.690   6.764  0.00  0.00     0.059 C 
HETATM   17  C   UNK N   1      32.277  16.083   6.553  0.00  0.00     0.073 C 
HETATM   18  C   UNK N   1      31.050  16.237   5.957  0.00  0.00    -0.016 C 
HETATM   19  C   UNK N   1      30.574  14.984   5.692  0.00  0.00     0.042 C 
HETATM   20  N   UNK N   1      31.422  14.028   6.154  0.00  0.00    -0.354 N 
HETATM   21  C   UNK N   1      29.487  14.790   4.959  0.00  0.00     0.060 C 
HETATM   22  C   UNK N   1      29.080  13.531   4.353  0.00  0.00     0.041 A 
HETATM   23  N   UNK N   1      29.709  12.422   4.486  0.00  0.00    -0.355 N 
ATOM     24  HN  UNK N   1      30.416  12.207   5.190  1.00  0.00     0.166 HD
HETATM   25  C   UNK N   1      30.404  17.520   5.529  0.00  0.00     0.052 C 
HETATM   26  C   UNK N   1      34.381  11.979   8.820  0.00  0.00     0.046 C 
HETATM   27  C   UNK N   1      33.919  10.499   8.840  0.00  0.00     0.041 C 
HETATM   28  C   UNK N   1      35.045   9.467   8.893  0.00  0.00     0.017 C 
HETATM   29  C   UNK N   1      32.576   6.749   5.362  0.00  0.00     0.051 C 
HETATM   30  C   UNK N   1      27.601  11.761   1.432  0.00  0.00     0.051 C 
HETATM   31  H   UNK N   1      31.023  11.055   5.635  0.00  0.00     0.166 HD
HETATM   32  H   UNK N   1      31.322  13.053   6.064  0.00  0.00     0.166 HD
ENDROOT
BRANCH  15  33
HETATM   33  C   UNK N   1      34.107  14.918   8.534  0.00  0.00     0.145 C 
BRANCH  33  34
HETATM   34  C   UNK N   1      33.242  14.973   9.784  0.00  0.00     0.222 C 
HETATM   35  O   UNK N   1      32.031  15.067   9.674  0.00  0.00    -0.273 OA
HETATM   36  N   UNK N   1      33.773  14.944  11.027  0.00  0.00    -0.346 N 
HETATM   37  H   UNK N   1      33.163  15.009  11.798  0.00  0.00     0.163 HD
BRANCH  36  38
HETATM   38  C   UNK N   1      35.180  14.823  11.279  0.00  0.00     0.192 C 
BRANCH  38  39
HETATM   39  C   UNK N   1      35.366  14.346  12.705  0.00  0.00     0.146 C 
BRANCH  39  40
HETATM   40  C   UNK N   1      35.427  12.857  12.730  0.00  0.00     0.141 C 
HETATM   41  O   UNK N   1      36.464  12.298  13.048  0.00  0.00    -0.650 OA
BRANCH  40  42
HETATM   42  O   UNK N   1      34.343  12.127  12.407  0.00  0.00    -0.776 OA
HETATM   43  H   UNK N   1      34.226  11.600  11.641  0.00  0.00     0.167 HD
ENDBRANCH  40  42
ENDBRANCH  39  40
ENDBRANCH  38  39
BRANCH  38  44
HETATM   44  C   UNK N   1      35.890  16.128  11.023  0.00  0.00     0.164 C 
HETATM   45  O   UNK N   1      35.271  17.179  11.069  0.00  0.00    -0.648 OA
BRANCH  44  46
HETATM   46  O   UNK N   1      37.216  16.151  10.785  0.00  0.00    -0.775 OA
HETATM   47  H   UNK N   1      38.030  15.796  11.085  0.00  0.00     0.167 HD
ENDBRANCH  44  46
ENDBRANCH  38  44
ENDBRANCH  36  38
ENDBRANCH  33  34
ENDBRANCH  15  33
BRANCH  26  48
HETATM   48  C   UNK N   1      35.867  12.119   8.439  0.00  0.00     0.022 C 
BRANCH  48  49
HETATM   49  C   UNK N   1      36.853  11.966   9.597  0.00  0.00     0.110 C 
BRANCH  49  50
HETATM   50  C   UNK N   1      37.787  13.130   9.748  0.00  0.00     0.139 C 
HETATM   51  O   UNK N   1      37.996  13.863   8.797  0.00  0.00    -0.650 OA
BRANCH  50  52
HETATM   52  O   UNK N   1      38.400  13.367  10.923  0.00  0.00    -0.776 OA
HETATM   53  H   UNK N   1      39.104  13.946  11.141  0.00  0.00     0.167 HD
ENDBRANCH  50  52
ENDBRANCH  49  50
ENDBRANCH  48  49
ENDBRANCH  26  48
BRANCH  17  54
HETATM   54  C   UNK N   1      33.235  17.209   6.755  0.00  0.00     0.179 C 
HETATM   55  O   UNK N   1      33.061  17.999   7.671  0.00  0.00    -0.646 OA
BRANCH  54  56
HETATM   56  O   UNK N   1      34.169  17.501   5.832  0.00  0.00    -0.773 OA
HETATM   57  H   UNK N   1      34.107  18.100   5.114  0.00  0.00     0.167 HD
ENDBRANCH  54  56
ENDBRANCH  17  54
BRANCH   1  58
HETATM   58  C   UNK N   1      27.317  14.679   2.797  0.00  0.00     0.037 C 
HETATM   59  C   UNK N   1      25.854  14.625   3.187  0.00  0.00     0.010 C 
ENDBRANCH   1  58
BRANCH   6  60
HETATM   60  C   UNK N   1      30.691   7.440   2.855  0.00  0.00     0.004 C 
HETATM   61  C   UNK N   1      31.427   7.367   1.748  0.00  0.00     0.012 C 
ENDBRANCH   6  60
TORSDOF 16
ENDMDL
MODEL 2
REMARK VINA RESULT:      -7.0      2.677      5.347
REMARK  16 active torsions:
REMARK  status: ('A' for Active; 'I' for Inactive)
REMARK    1  A    between atoms: C_2  and  C_3 
REMARK    2  A    between atoms: C_8  and  C_52 
REMARK    3  A    between atoms: C_17  and  C_31 
REMARK    4  A    between atoms: C_19  and  C_28 
REMARK    5  A    between atoms: C_28  and  O_30 
REMARK    6  A    between atoms: C_31  and  C_32 
REMARK       I    between atoms: C_32  and  N_34 
REMARK    7  A    between atoms: C_35  and  N_34 
REMARK    8  A    between atoms: C_35  and  C_36 
REMARK    9  A    between atoms: C_35  and  C_40 
REMARK   10  A    between atoms: C_36  and  C_37 
REMARK   11  A    between atoms: C_37  and  O_39 
REMARK   12  A    between atoms: C_40  and  O_42 
REMARK   13  A    between atoms: C_43  and  C_46 
REMARK   14  A    between atoms: C_46  and  C_47 
REMARK   15  A    between atoms: C_47  and  C_48 
REMARK   16  A    between atoms: C_48  and  O_50 
ROOT
HETATM    1  C   UNK N   1      26.923  18.940   6.264  0.00  0.00    -0.024 A 
HETATM    2  C   UNK N   1      26.322  18.582   5.122  0.00  0.00    -0.027 A 
HETATM    3  C   UNK N   1      26.974  17.349   4.693  0.00  0.00     0.041 A 
HETATM    4  C   UNK N   1      26.684  16.643   3.596  0.00  0.00     0.060 C 
HETATM    5  C   UNK N   1      27.353  15.382   3.234  0.00  0.00     0.045 A 
HETATM    6  C   UNK N   1      27.053  14.628   2.115  0.00  0.00    -0.002 A 
HETATM    7  C   UNK N   1      27.834  13.495   2.193  0.00  0.00    -0.023 A 
HETATM    8  C   UNK N   1      28.591  13.621   3.335  0.00  0.00     0.041 A 
HETATM    9  N   UNK N   1      28.304  14.771   3.976  0.00  0.00    -0.355 N 
HETATM   10  C   UNK N   1      29.582  12.635   3.767  0.00  0.00     0.055 C 
HETATM   11  C   UNK N   1      30.588  12.876   4.607  0.00  0.00     0.016 C 
HETATM   12  N   UNK N   1      30.869  14.117   5.201  0.00  0.00    -0.362 N 
ATOM     13  HN  UNK N   1      30.268  14.941   5.156  1.00  0.00     0.165 HD
HETATM   14  C   UNK N   1      31.990  14.055   5.805  0.00  0.00     0.023 C 
HETATM   15  C   UNK N   1      32.565  15.160   6.648  0.00  0.00     0.001 C 
HETATM   16  C   UNK N   1      31.896  16.292   7.016  0.00  0.00     0.059 C 
HETATM   17  C   UNK N   1      32.394  17.351   7.814  0.00  0.00     0.073 C 
HETATM   18  C   UNK N   1      31.299  18.103   8.161  0.00  0.00    -0.016 C 
HETATM   19  C   UNK N   1      30.233  17.596   7.473  0.00  0.00     0.042 C 
HETATM   20  N   UNK N   1      30.590  16.505   6.746  0.00  0.00    -0.354 N 
HETATM   21  C   UNK N   1      29.059  18.210   7.452  0.00  0.00     0.060 C 
HETATM   22  C   UNK N   1      27.975  17.949   6.517  0.00  0.00     0.041 A 
HETATM   23  N   UNK N   1      28.002  17.048   5.605  0.00  0.00    -0.355 N 
ATOM     24  HN  UNK N   1      28.650  16.262   5.550  1.00  0.00     0.166 HD
HETATM   25  C   UNK N   1      31.278  19.340   9.007  0.00  0.00     0.052 C 
HETATM   26  C   UNK N   1      32.686  12.706   5.637  0.00  0.00     0.046 C 
HETATM   27  C   UNK N   1      31.584  11.837   4.978  0.00  0.00     0.041 C 
HETATM   28  C   UNK N   1      32.052  10.965   3.814  0.00  0.00     0.017 C 
HETATM   29  C   UNK N   1      27.883  12.351   1.236  0.00  0.00     0.051 C 
HETATM   30  C   UNK N   1      25.235  19.303   4.394  0.00  0.00     0.051 C 
HETATM   31  H   UNK N   1      28.704  15.100   4.813  0.00  0.00     0.166 HD
HETATM   32  H   UNK N   1      30.015  15.978   6.145  0.00  0.00     0.166 HD
ENDROOT
BRANCH  15  33
HETATM   33  C   UNK N   1      33.812  14.812   7.394  0.00  0.00     0.145 C 
BRANCH  33  34
HETATM   34  C   UNK N   1      33.368  14.155   8.692  0.00  0.00     0.222 C 
HETATM   35  O   UNK N   1      32.205  13.810   8.825  0.00  0.00    -0.273 OA
HETATM   36  N   UNK N   1      34.218  13.955   9.724  0.00  0.00    -0.346 N 
HETATM   37  H   UNK N   1      33.865  13.548  10.549  0.00  0.00     0.163 HD
BRANCH  36  38
HETATM   38  C   UNK N   1      35.607  14.308   9.678  0.00  0.00     0.192 C 
BRANCH  38  39
HETATM   39  C   UNK N   1      36.414  13.037   9.504  0.00  0.00     0.146 C 
BRANCH  39  40
HETATM   40  C   UNK N   1      35.644  11.879  10.042  0.00  0.00     0.141 C 
HETATM   41  O   UNK N   1      35.123  11.089   9.272  0.00  0.00    -0.650 OA
BRANCH  40  42
HETATM   42  O   UNK N   1      35.525  11.701  11.371  0.00  0.00    -0.776 OA
HETATM   43  H   UNK N   1      35.648  10.903  11.846  0.00  0.00     0.167 HD
ENDBRANCH  40  42
ENDBRANCH  39  40
ENDBRANCH  38  39
BRANCH  38  44
HETATM   44  C   UNK N   1      36.014  15.069  10.915  0.00  0.00     0.164 C 
HETATM   45  O   UNK N   1      35.653  14.684  12.016  0.00  0.00    -0.648 OA
BRANCH  44  46
HETATM   46  O   UNK N   1      36.811  16.152  10.821  0.00  0.00    -0.775 OA
HETATM   47  H   UNK N   1      37.467  16.546  10.280  0.00  0.00     0.167 HD
ENDBRANCH  44  46
ENDBRANCH  38  44
ENDBRANCH  36  38
ENDBRANCH  33  34
ENDBRANCH  15  33
BRANCH  26  48
HETATM   48  C   UNK N   1      33.932  12.839   4.743  0.00  0.00     0.022 C 
BRANCH  48  49
HETATM   49  C   UNK N   1      34.081  14.182   4.027  0.00  0.00     0.110 C 
BRANCH  49  50
HETATM   50  C   UNK N   1      33.653  14.147   2.590  0.00  0.00     0.139 C 
HETATM   51  O   UNK N   1      32.467  14.178   2.313  0.00  0.00    -0.650 OA
BRANCH  50  52
HETATM   52  O   UNK N   1      34.568  14.074   1.605  0.00  0.00    -0.776 OA
HETATM   53  H   UNK N   1      34.840  14.708   0.972  0.00  0.00     0.167 HD
ENDBRANCH  50  52
ENDBRANCH  49  50
ENDBRANCH  48  49
ENDBRANCH  26  48
BRANCH  17  54
HETATM   54  C   UNK N   1      33.795  17.747   8.144  0.00  0.00     0.179 C 
HETATM   55  O   UNK N   1      34.563  18.070   7.250  0.00  0.00    -0.646 OA
BRANCH  54  56
HETATM   56  O   UNK N   1      34.299  17.561   9.377  0.00  0.00    -0.773 OA
HETATM   57  H   UNK N   1      34.482  18.207  10.032  0.00  0.00     0.167 HD
ENDBRANCH  54  56
ENDBRANCH  17  54
BRANCH   1  58
HETATM   58  C   UNK N   1      26.699  20.143   7.154  0.00  0.00     0.037 C 
HETATM   59  C   UNK N   1      27.060  21.483   6.548  0.00  0.00     0.010 C 
ENDBRANCH   1  58
BRANCH   6  60
HETATM   60  C   UNK N   1      26.077  15.002   1.072  0.00  0.00     0.004 C 
HETATM   61  C   UNK N   1      24.812  14.587   1.100  0.00  0.00     0.012 C 
ENDBRANCH   6  60
TORSDOF 16
ENDMDL
MODEL 3
REMARK VINA RESULT:      -7.0      4.882      9.093
REMARK  16 active torsions:
REMARK  status: ('A' for Active; 'I' for Inactive)
REMARK    1  A    between atoms: C_2  and  C_3 
REMARK    2  A    between atoms: C_8  and  C_52 
REMARK    3  A    between atoms: C_17  and  C_31 
REMARK    4  A    between atoms: C_19  and  C_28 
REMARK    5  A    between atoms: C_28  and  O_30 
REMARK    6  A    between atoms: C_31  and  C_32 
REMARK       I    between atoms: C_32  and  N_34 
REMARK    7  A    between atoms: C_35  and  N_34 
REMARK    8  A    between atoms: C_35  and  C_36 
REMARK    9  A    between atoms: C_35  and  C_40 
REMARK   10  A    between atoms: C_36  and  C_37 
REMARK   11  A    between atoms: C_37  and  O_39 
REMARK   12  A    between atoms: C_40  and  O_42 
REMARK   13  A    between atoms: C_43  and  C_46 
REMARK   14  A    between atoms: C_46  and  C_47 
REMARK   15  A    between atoms: C_47  and  C_48 
REMARK   16  A    between atoms: C_48  and  O_50 
ROOT
HETATM    1  C   UNK N   1      23.420  11.998   0.609  0.00  0.00    -0.024 A 
HETATM    2  C   UNK N   1      22.251  12.474   1.055  0.00  0.00    -0.027 A 
HETATM    3  C   UNK N   1      22.572  13.671   1.826  0.00  0.00     0.041 A 
HETATM    4  C   UNK N   1      21.698  14.464   2.453  0.00  0.00     0.060 C 
HETATM    5  C   UNK N   1      22.077  15.683   3.187  0.00  0.00     0.045 A 
HETATM    6  C   UNK N   1      21.186  16.526   3.823  0.00  0.00    -0.002 A 
HETATM    7  C   UNK N   1      21.930  17.582   4.305  0.00  0.00    -0.023 A 
HETATM    8  C   UNK N   1      23.238  17.323   3.965  0.00  0.00     0.041 A 
HETATM    9  N   UNK N   1      23.337  16.164   3.284  0.00  0.00    -0.355 N 
HETATM   10  C   UNK N   1      24.359  18.193   4.324  0.00  0.00     0.055 C 
HETATM   11  C   UNK N   1      25.636  17.816   4.376  0.00  0.00     0.016 C 
HETATM   12  N   UNK N   1      26.112  16.522   4.109  0.00  0.00    -0.362 N 
ATOM     13  HN  UNK N   1      25.555  15.757   3.728  1.00  0.00     0.165 HD
HETATM   14  C   UNK N   1      27.347  16.452   4.415  0.00  0.00     0.023 C 
HETATM   15  C   UNK N   1      28.220  15.253   4.163  0.00  0.00     0.001 C 
HETATM   16  C   UNK N   1      27.858  14.162   3.427  0.00  0.00     0.059 C 
HETATM   17  C   UNK N   1      28.648  13.019   3.158  0.00  0.00     0.073 C 
HETATM   18  C   UNK N   1      27.996  12.343   2.156  0.00  0.00    -0.016 C 
HETATM   19  C   UNK N   1      26.804  12.980   1.955  0.00  0.00     0.042 C 
HETATM   20  N   UNK N   1      26.693  14.078   2.747  0.00  0.00    -0.354 N 
HETATM   21  C   UNK N   1      25.863  12.470   1.173  0.00  0.00     0.060 C 
HETATM   22  C   UNK N   1      24.467  12.879   1.141  0.00  0.00     0.041 A 
HETATM   23  N   UNK N   1      23.970  13.827   1.846  0.00  0.00    -0.355 N 
ATOM     24  HN  UNK N   1      24.490  14.558   2.332  1.00  0.00     0.166 HD
HETATM   25  C   UNK N   1      28.419  11.064   1.499  0.00  0.00     0.052 C 
HETATM   26  C   UNK N   1      27.887  17.745   5.024  0.00  0.00     0.046 C 
HETATM   27  C   UNK N   1      26.725  18.743   4.783  0.00  0.00     0.041 C 
HETATM   28  C   UNK N   1      26.381  19.641   5.970  0.00  0.00     0.017 C 
HETATM   29  C   UNK N   1      21.444  18.773   5.060  0.00  0.00     0.051 C 
HETATM   30  C   UNK N   1      20.889  11.893   0.855  0.00  0.00     0.051 C 
HETATM   31  H   UNK N   1      24.158  15.753   2.929  0.00  0.00     0.166 HD
HETATM   32  H   UNK N   1      25.923  14.687   2.812  0.00  0.00     0.166 HD
ENDROOT
BRANCH  15  33
HETATM   33  C   UNK N   1      29.673  15.448   4.453  0.00  0.00     0.145 C 
BRANCH  33  34
HETATM   34  C   UNK N   1      30.266  16.142   3.236  0.00  0.00     0.222 C 
HETATM   35  O   UNK N   1      29.542  16.437   2.300  0.00  0.00    -0.273 OA
HETATM   36  N   UNK N   1      31.584  16.426   3.142  0.00  0.00    -0.346 N 
HETATM   37  H   UNK N   1      31.913  16.853   2.317  0.00  0.00     0.163 HD
BRANCH  36  38
HETATM   38  C   UNK N   1      32.528  16.137   4.183  0.00  0.00     0.192 C 
BRANCH  38  39
HETATM   39  C   UNK N   1      33.053  17.450   4.725  0.00  0.00     0.146 C 
BRANCH  39  40
HETATM   40  C   UNK N   1      33.382  17.299   6.170  0.00  0.00     0.141 C 
HETATM   41  O   UNK N   1      32.732  16.533   6.863  0.00  0.00    -0.650 OA
BRANCH  40  42
HETATM   42  O   UNK N   1      34.395  17.999   6.713  0.00  0.00    -0.776 OA
HETATM   43  H   UNK N   1      34.483  18.932   6.746  0.00  0.00     0.167 HD
ENDBRANCH  40  42
ENDBRANCH  39  40
ENDBRANCH  38  39
BRANCH  38  44
HETATM   44  C   UNK N   1      33.638  15.251   3.676  0.00  0.00     0.164 C 
HETATM   45  O   UNK N   1      34.305  14.597   4.462  0.00  0.00    -0.648 OA
BRANCH  44  46
HETATM   46  O   UNK N   1      33.875  15.140   2.354  0.00  0.00    -0.775 OA
HETATM   47  H   UNK N   1      34.176  15.625   1.611  0.00  0.00     0.167 HD
ENDBRANCH  44  46
ENDBRANCH  38  44
ENDBRANCH  36  38
ENDBRANCH  33  34
ENDBRANCH  15  33
BRANCH  26  48
HETATM   48  C   UNK N   1      28.192  17.560   6.522  0.00  0.00     0.022 C 
BRANCH  48  49
HETATM   49  C   UNK N   1      29.590  17.995   6.962  0.00  0.00     0.110 C 
BRANCH  49  50
HETATM   50  C   UNK N   1      29.772  18.016   8.451  0.00  0.00     0.139 C 
HETATM   51  O   UNK N   1      28.991  18.645   9.144  0.00  0.00    -0.650 OA
BRANCH  50  52
HETATM   52  O   UNK N   1      30.794  17.355   9.025  0.00  0.00    -0.776 OA
HETATM   53  H   UNK N   1      31.720  17.454   8.928  0.00  0.00     0.167 HD
ENDBRANCH  50  52
ENDBRANCH  49  50
ENDBRANCH  48  49
ENDBRANCH  26  48
BRANCH  17  54
HETATM   54  C   UNK N   1      29.858  12.485   3.850  0.00  0.00     0.179 C 
HETATM   55  O   UNK N   1      29.760  12.020   4.975  0.00  0.00    -0.646 OA
BRANCH  54  56
HETATM   56  O   UNK N   1      31.091  12.689   3.352  0.00  0.00    -0.773 OA
HETATM   57  H   UNK N   1      31.915  12.436   3.721  0.00  0.00     0.167 HD
ENDBRANCH  54  56
ENDBRANCH  17  54
BRANCH   1  58
HETATM   58  C   UNK N   1      23.726  10.767  -0.216  0.00  0.00     0.037 C 
HETATM   59  C   UNK N   1      23.764   9.459   0.547  0.00  0.00     0.010 C 
ENDBRANCH   1  58
BRANCH   6  60
HETATM   60  C   UNK N   1      19.732  16.300   3.935  0.00  0.00     0.004 C 
HETATM   61  C   UNK N   1      19.173  15.797   5.034  0.00  0.00     0.012 C 
ENDBRANCH   6  60
TORSDOF 16
ENDMDL
MODEL 4
REMARK VINA RESULT:      -7.0      3.045      7.273
REMARK  16 active torsions:
REMARK  status: ('A' for Active; 'I' for Inactive)
REMARK    1  A    between atoms: C_2  and  C_3 
REMARK    2  A    between atoms: C_8  and  C_52 
REMARK    3  A    between atoms: C_17  and  C_31 
REMARK    4  A    between atoms: C_19  and  C_28 
REMARK    5  A    between atoms: C_28  and  O_30 
REMARK    6  A    between atoms: C_31  and  C_32 
REMARK       I    between atoms: C_32  and  N_34 
REMARK    7  A    between atoms: C_35  and  N_34 
REMARK    8  A    between atoms: C_35  and  C_36 
REMARK    9  A    between atoms: C_35  and  C_40 
REMARK   10  A    between atoms: C_36  and  C_37 
REMARK   11  A    between atoms: C_37  and  O_39 
REMARK   12  A    between atoms: C_40  and  O_42 
REMARK   13  A    between atoms: C_43  and  C_46 
REMARK   14  A    between atoms: C_46  and  C_47 
REMARK   15  A    between atoms: C_47  and  C_48 
REMARK   16  A    between atoms: C_48  and  O_50 
ROOT
HETATM    1  C   UNK N   1      27.204  10.963   1.022  0.00  0.00    -0.024 A 
HETATM    2  C   UNK N   1      25.907  11.254   1.173  0.00  0.00    -0.027 A 
HETATM    3  C   UNK N   1      25.859  12.567   1.807  0.00  0.00     0.041 A 
HETATM    4  C   UNK N   1      24.755  13.243   2.141  0.00  0.00     0.060 C 
HETATM    5  C   UNK N   1      24.769  14.585   2.746  0.00  0.00     0.045 A 
HETATM    6  C   UNK N   1      23.638  15.307   3.079  0.00  0.00    -0.002 A 
HETATM    7  C   UNK N   1      24.082  16.532   3.530  0.00  0.00    -0.023 A 
HETATM    8  C   UNK N   1      25.456  16.492   3.477  0.00  0.00     0.041 A 
HETATM    9  N   UNK N   1      25.883  15.305   3.002  0.00  0.00    -0.355 N 
HETATM   10  C   UNK N   1      26.319  17.593   3.905  0.00  0.00     0.055 C 
HETATM   11  C   UNK N   1      27.603  17.476   4.244  0.00  0.00     0.016 C 
HETATM   12  N   UNK N   1      28.331  16.275   4.260  0.00  0.00    -0.362 N 
ATOM     13  HN  UNK N   1      27.998  15.380   3.898  1.00  0.00     0.165 HD
HETATM   14  C   UNK N   1      29.470  16.476   4.794  0.00  0.00     0.023 C 
HETATM   15  C   UNK N   1      30.562  15.445   4.884  0.00  0.00     0.001 C 
HETATM   16  C   UNK N   1      30.544  14.231   4.260  0.00  0.00     0.059 C 
HETATM   17  C   UNK N   1      31.552  13.236   4.310  0.00  0.00     0.073 C 
HETATM   18  C   UNK N   1      31.242  12.342   3.315  0.00  0.00    -0.016 C 
HETATM   19  C   UNK N   1      30.028  12.714   2.808  0.00  0.00     0.042 C 
HETATM   20  N   UNK N   1      29.576  13.851   3.398  0.00  0.00    -0.354 N 
HETATM   21  C   UNK N   1      29.366  11.951   1.950  0.00  0.00     0.060 C 
HETATM   22  C   UNK N   1      27.958  12.080   1.603  0.00  0.00     0.041 A 
HETATM   23  N   UNK N   1      27.177  12.988   2.059  0.00  0.00    -0.355 N 
ATOM     24  HN  UNK N   1      27.458  13.853   2.521  1.00  0.00     0.166 HD
HETATM   25  C   UNK N   1      31.996  11.103   2.940  0.00  0.00     0.052 C 
HETATM   26  C   UNK N   1      29.651  17.907   5.297  0.00  0.00     0.046 C 
HETATM   27  C   UNK N   1      28.416  18.632   4.704  0.00  0.00     0.041 C 
HETATM   28  C   UNK N   1      27.690  19.573   5.665  0.00  0.00     0.017 C 
HETATM   29  C   UNK N   1      23.260  17.685   4.002  0.00  0.00     0.051 C 
HETATM   30  C   UNK N   1      24.730  10.405   0.813  0.00  0.00     0.051 C 
HETATM   31  H   UNK N   1      26.816  15.021   2.866  0.00  0.00     0.166 HD
HETATM   32  H   UNK N   1      28.719  14.306   3.232  0.00  0.00     0.166 HD
ENDROOT
BRANCH  15  33
HETATM   33  C   UNK N   1      31.871  15.944   5.403  0.00  0.00     0.145 C 
BRANCH  33  34
HETATM   34  C   UNK N   1      31.901  15.612   6.888  0.00  0.00     0.222 C 
HETATM   35  O   UNK N   1      31.005  14.940   7.372  0.00  0.00    -0.273 OA
HETATM   36  N   UNK N   1      32.882  16.056   7.704  0.00  0.00    -0.346 N 
HETATM   37  H   UNK N   1      32.833  15.830   8.661  0.00  0.00     0.163 HD
BRANCH  36  38
HETATM   38  C   UNK N   1      33.991  16.842   7.245  0.00  0.00     0.192 C 
BRANCH  38  39
HETATM   39  C   UNK N   1      35.257  16.032   7.436  0.00  0.00     0.146 C 
BRANCH  39  40
HETATM   40  C   UNK N   1      35.003  14.927   8.404  0.00  0.00     0.141 C 
HETATM   41  O   UNK N   1      35.051  15.150   9.602  0.00  0.00    -0.650 OA
BRANCH  40  42
HETATM   42  O   UNK N   1      34.718  13.689   7.961  0.00  0.00    -0.776 OA
HETATM   43  H   UNK N   1      35.328  13.035   7.680  0.00  0.00     0.167 HD
ENDBRANCH  40  42
ENDBRANCH  39  40
ENDBRANCH  38  39
BRANCH  38  44
HETATM   44  C   UNK N   1      34.053  18.164   7.968  0.00  0.00     0.164 C 
HETATM   45  O   UNK N   1      33.040  18.646   8.448  0.00  0.00    -0.648 OA
BRANCH  44  46
HETATM   46  O   UNK N   1      35.230  18.803   8.127  0.00  0.00    -0.775 OA
HETATM   47  H   UNK N   1      35.791  19.434   7.723  0.00  0.00     0.167 HD
ENDBRANCH  44  46
ENDBRANCH  38  44
ENDBRANCH  36  38
ENDBRANCH  33  34
ENDBRANCH  15  33
BRANCH  26  48
HETATM   48  C   UNK N   1      29.666  17.949   6.836  0.00  0.00     0.022 C 
BRANCH  48  49
HETATM   49  C   UNK N   1      28.521  17.201   7.521  0.00  0.00     0.110 C 
BRANCH  49  50
HETATM   50  C   UNK N   1      28.410  17.487   8.989  0.00  0.00     0.139 C 
HETATM   51  O   UNK N   1      29.264  17.069   9.751  0.00  0.00    -0.650 OA
BRANCH  50  52
HETATM   52  O   UNK N   1      27.370  18.193   9.471  0.00  0.00    -0.776 OA
HETATM   53  H   UNK N   1      26.448  18.038   9.423  0.00  0.00     0.167 HD
ENDBRANCH  50  52
ENDBRANCH  49  50
ENDBRANCH  48  49
ENDBRANCH  26  48
BRANCH  17  54
HETATM   54  C   UNK N   1      32.664  13.023   5.282  0.00  0.00     0.179 C 
HETATM   55  O   UNK N   1      33.811  13.297   4.964  0.00  0.00    -0.646 OA
BRANCH  54  56
HETATM   56  O   UNK N   1      32.466  12.344   6.427  0.00  0.00    -0.773 OA
HETATM   57  H   UNK N   1      31.809  12.489   7.080  0.00  0.00     0.167 HD
ENDBRANCH  54  56
ENDBRANCH  17  54
BRANCH   1  58
HETATM   58  C   UNK N   1      27.873   9.730   0.456  0.00  0.00     0.037 C 
HETATM   59  C   UNK N   1      27.907   8.523   1.371  0.00  0.00     0.010 C 
ENDBRANCH   1  58
BRANCH   6  60
HETATM   60  C   UNK N   1      22.250  14.822   2.954  0.00  0.00     0.004 C 
HETATM   61  C   UNK N   1      21.487  15.111   1.901  0.00  0.00     0.012 C 
ENDBRANCH   6  60
TORSDOF 16
ENDMDL
MODEL 5
REMARK VINA RESULT:      -7.0      1.768      2.701
REMARK  16 active torsions:
REMARK  status: ('A' for Active; 'I' for Inactive)
REMARK    1  A    between atoms: C_2  and  C_3 
REMARK    2  A    between atoms: C_8  and  C_52 
REMARK    3  A    between atoms: C_17  and  C_31 
REMARK    4  A    between atoms: C_19  and  C_28 
REMARK    5  A    between atoms: C_28  and  O_30 
REMARK    6  A    between atoms: C_31  and  C_32 
REMARK       I    between atoms: C_32  and  N_34 
REMARK    7  A    between atoms: C_35  and  N_34 
REMARK    8  A    between atoms: C_35  and  C_36 
REMARK    9  A    between atoms: C_35  and  C_40 
REMARK   10  A    between atoms: C_36  and  C_37 
REMARK   11  A    between atoms: C_37  and  O_39 
REMARK   12  A    between atoms: C_40  and  O_42 
REMARK   13  A    between atoms: C_43  and  C_46 
REMARK   14  A    between atoms: C_46  and  C_47 
REMARK   15  A    between atoms: C_47  and  C_48 
REMARK   16  A    between atoms: C_48  and  O_50 
ROOT
HETATM    1  C   UNK N   1      27.243  16.179   4.141  0.00  0.00    -0.024 A 
HETATM    2  C   UNK N   1      27.164  15.438   3.029  0.00  0.00    -0.027 A 
HETATM    3  C   UNK N   1      28.205  14.422   3.147  0.00  0.00     0.041 A 
HETATM    4  C   UNK N   1      28.481  13.467   2.254  0.00  0.00     0.060 C 
HETATM    5  C   UNK N   1      29.522  12.443   2.445  0.00  0.00     0.045 A 
HETATM    6  C   UNK N   1      29.807  11.436   1.543  0.00  0.00    -0.002 A 
HETATM    7  C   UNK N   1      30.773  10.650   2.135  0.00  0.00    -0.023 A 
HETATM    8  C   UNK N   1      31.051  11.225   3.353  0.00  0.00     0.041 A 
HETATM    9  N   UNK N   1      30.292  12.322   3.549  0.00  0.00    -0.355 N 
HETATM   10  C   UNK N   1      32.053  10.711   4.286  0.00  0.00     0.055 C 
HETATM   11  C   UNK N   1      32.631  11.417   5.258  0.00  0.00     0.016 C 
HETATM   12  N   UNK N   1      32.382  12.771   5.535  0.00  0.00    -0.362 N 
ATOM     13  HN  UNK N   1      31.646  13.334   5.107  1.00  0.00     0.165 HD
HETATM   14  C   UNK N   1      33.217  13.188   6.403  0.00  0.00     0.023 C 
HETATM   15  C   UNK N   1      33.187  14.557   7.024  0.00  0.00     0.001 C 
HETATM   16  C   UNK N   1      32.176  15.462   6.875  0.00  0.00     0.059 C 
HETATM   17  C   UNK N   1      32.102  16.756   7.447  0.00  0.00     0.073 C 
HETATM   18  C   UNK N   1      30.804  17.167   7.271  0.00  0.00    -0.016 C 
HETATM   19  C   UNK N   1      30.188  16.224   6.498  0.00  0.00     0.042 C 
HETATM   20  N   UNK N   1      31.024  15.189   6.223  0.00  0.00    -0.354 N 
HETATM   21  C   UNK N   1      28.973  16.413   6.001  0.00  0.00     0.060 C 
HETATM   22  C   UNK N   1      28.362  15.645   4.926  0.00  0.00     0.041 A 
HETATM   23  N   UNK N   1      28.913  14.646   4.342  0.00  0.00    -0.355 N 
ATOM     24  HN  UNK N   1      29.715  14.114   4.679  1.00  0.00     0.166 HD
HETATM   25  C   UNK N   1      30.198  18.468   7.703  0.00  0.00     0.052 C 
HETATM   26  C   UNK N   1      34.240  12.127   6.806  0.00  0.00     0.046 C 
HETATM   27  C   UNK N   1      33.671  10.843   6.151  0.00  0.00     0.041 C 
HETATM   28  C   UNK N   1      34.700   9.964   5.441  0.00  0.00     0.017 C 
HETATM   29  C   UNK N   1      31.418   9.423   1.583  0.00  0.00     0.051 C 
HETATM   30  C   UNK N   1      26.238  15.620   1.871  0.00  0.00     0.051 C 
HETATM   31  H   UNK N   1      30.297  12.914   4.336  0.00  0.00     0.166 HD
HETATM   32  H   UNK N   1      30.831  14.402   5.665  0.00  0.00     0.166 HD
ENDROOT
BRANCH  15  33
HETATM   33  C   UNK N   1      34.160  14.776   8.137  0.00  0.00     0.145 C 
BRANCH  33  34
HETATM   34  C   UNK N   1      33.468  14.316   9.412  0.00  0.00     0.222 C 
HETATM   35  O   UNK N   1      32.256  14.180   9.422  0.00  0.00    -0.273 OA
HETATM   36  N   UNK N   1      34.151  14.073  10.552  0.00  0.00    -0.346 N 
HETATM   37  H   UNK N   1      33.644  13.803  11.352  0.00  0.00     0.163 HD
BRANCH  36  38
HETATM   38  C   UNK N   1      35.577  14.188  10.655  0.00  0.00     0.192 C 
BRANCH  38  39
HETATM   39  C   UNK N   1      36.086  13.032  11.492  0.00  0.00     0.146 C 
BRANCH  39  40
HETATM   40  C   UNK N   1      34.986  12.515  12.353  0.00  0.00     0.141 C 
HETATM   41  O   UNK N   1      34.716  13.083  13.399  0.00  0.00    -0.650 OA
BRANCH  40  42
HETATM   42  O   UNK N   1      34.286  11.427  11.980  0.00  0.00    -0.776 OA
HETATM   43  H   UNK N   1      34.606  10.550  11.900  0.00  0.00     0.167 HD
ENDBRANCH  40  42
ENDBRANCH  39  40
ENDBRANCH  38  39
BRANCH  38  44
HETATM   44  C   UNK N   1      35.972  15.522  11.236  0.00  0.00     0.164 C 
HETATM   45  O   UNK N   1      35.990  16.516  10.527  0.00  0.00    -0.648 OA
BRANCH  44  46
HETATM   46  O   UNK N   1      36.265  15.639  12.547  0.00  0.00    -0.775 OA
HETATM   47  H   UNK N   1      36.391  15.135  13.326  0.00  0.00     0.167 HD
ENDBRANCH  44  46
ENDBRANCH  38  44
ENDBRANCH  36  38
ENDBRANCH  33  34
ENDBRANCH  15  33
BRANCH  26  48
HETATM   48  C   UNK N   1      35.639  12.483   6.268  0.00  0.00     0.022 C 
BRANCH  48  49
HETATM   49  C   UNK N   1      36.777  12.365   7.282  0.00  0.00     0.110 C 
BRANCH  49  50
HETATM   50  C   UNK N   1      37.711  13.538   7.275  0.00  0.00     0.139 C 
HETATM   51  O   UNK N   1      38.169  13.950   8.327  0.00  0.00    -0.650 OA
BRANCH  50  52
HETATM   52  O   UNK N   1      38.042  14.142   6.119  0.00  0.00    -0.776 OA
HETATM   53  H   UNK N   1      38.135  15.050   5.906  0.00  0.00     0.167 HD
ENDBRANCH  50  52
ENDBRANCH  49  50
ENDBRANCH  48  49
ENDBRANCH  26  48
BRANCH  17  54
HETATM   54  C   UNK N   1      33.169  17.636   8.007  0.00  0.00     0.179 C 
HETATM   55  O   UNK N   1      33.948  18.202   7.255  0.00  0.00    -0.646 OA
BRANCH  54  56
HETATM   56  O   UNK N   1      33.428  17.661   9.327  0.00  0.00    -0.773 OA
HETATM   57  H   UNK N   1      32.922  17.291  10.024  0.00  0.00     0.167 HD
ENDBRANCH  54  56
ENDBRANCH  17  54
BRANCH   1  58
HETATM   58  C   UNK N   1      26.446  17.391   4.569  0.00  0.00     0.037 C 
HETATM   59  C   UNK N   1      26.852  18.703   3.929  0.00  0.00     0.010 C 
ENDBRANCH   1  58
BRANCH   6  60
HETATM   60  C   UNK N   1      29.173  11.272   0.220  0.00  0.00     0.004 C 
HETATM   61  C   UNK N   1      29.795  11.598  -0.912  0.00  0.00     0.012 C 
ENDBRANCH   6  60
TORSDOF 16
ENDMDL
MODEL 6
REMARK VINA RESULT:      -6.9      4.107      9.070
REMARK  16 active torsions:
REMARK  status: ('A' for Active; 'I' for Inactive)
REMARK    1  A    between atoms: C_2  and  C_3 
REMARK    2  A    between atoms: C_8  and  C_52 
REMARK    3  A    between atoms: C_17  and  C_31 
REMARK    4  A    between atoms: C_19  and  C_28 
REMARK    5  A    between atoms: C_28  and  O_30 
REMARK    6  A    between atoms: C_31  and  C_32 
REMARK       I    between atoms: C_32  and  N_34 
REMARK    7  A    between atoms: C_35  and  N_34 
REMARK    8  A    between atoms: C_35  and  C_36 
REMARK    9  A    between atoms: C_35  and  C_40 
REMARK   10  A    between atoms: C_36  and  C_37 
REMARK   11  A    between atoms: C_37  and  O_39 
REMARK   12  A    between atoms: C_40  and  O_42 
REMARK   13  A    between atoms: C_43  and  C_46 
REMARK   14  A    between atoms: C_46  and  C_47 
REMARK   15  A    between atoms: C_47  and  C_48 
REMARK   16  A    between atoms: C_48  and  O_50 
ROOT
HETATM    1  C   UNK N   1      34.492  14.587   8.736  0.00  0.00    -0.024 A 
HETATM    2  C   UNK N   1      34.680  13.272   8.576  0.00  0.00    -0.027 A 
HETATM    3  C   UNK N   1      33.729  12.850   7.553  0.00  0.00     0.041 A 
HETATM    4  C   UNK N   1      33.576  11.609   7.082  0.00  0.00     0.060 C 
HETATM    5  C   UNK N   1      32.622  11.249   6.019  0.00  0.00     0.045 A 
HETATM    6  C   UNK N   1      32.464   9.976   5.505  0.00  0.00    -0.002 A 
HETATM    7  C   UNK N   1      31.548  10.085   4.480  0.00  0.00    -0.023 A 
HETATM    8  C   UNK N   1      31.171  11.407   4.433  0.00  0.00     0.041 A 
HETATM    9  N   UNK N   1      31.822  12.124   5.371  0.00  0.00    -0.355 N 
HETATM   10  C   UNK N   1      30.181  11.938   3.497  0.00  0.00     0.055 C 
HETATM   11  C   UNK N   1      29.504  13.075   3.657  0.00  0.00     0.016 C 
HETATM   12  N   UNK N   1      29.622  13.940   4.758  0.00  0.00    -0.362 N 
ATOM     13  HN  UNK N   1      30.322  13.861   5.496  1.00  0.00     0.165 HD
HETATM   14  C   UNK N   1      28.719  14.837   4.691  0.00  0.00     0.023 C 
HETATM   15  C   UNK N   1      28.603  16.000   5.638  0.00  0.00     0.001 C 
HETATM   16  C   UNK N   1      29.535  16.342   6.575  0.00  0.00     0.059 C 
HETATM   17  C   UNK N   1      29.471  17.431   7.478  0.00  0.00     0.073 C 
HETATM   18  C   UNK N   1      30.734  17.554   8.004  0.00  0.00    -0.016 C 
HETATM   19  C   UNK N   1      31.462  16.492   7.544  0.00  0.00     0.042 C 
HETATM   20  N   UNK N   1      30.732  15.726   6.692  0.00  0.00    -0.354 N 
HETATM   21  C   UNK N   1      32.674  16.223   8.009  0.00  0.00     0.060 C 
HETATM   22  C   UNK N   1      33.394  14.969   7.841  0.00  0.00     0.041 A 
HETATM   23  N   UNK N   1      32.957  13.964   7.176  0.00  0.00    -0.355 N 
ATOM     24  HN  UNK N   1      32.192  13.969   6.501  1.00  0.00     0.166 HD
HETATM   25  C   UNK N   1      31.205  18.560   9.009  0.00  0.00     0.052 C 
HETATM   26  C   UNK N   1      27.778  14.652   3.502  0.00  0.00     0.046 C 
HETATM   27  C   UNK N   1      28.484  13.541   2.682  0.00  0.00     0.041 C 
HETATM   28  C   UNK N   1      27.567  12.440   2.152  0.00  0.00     0.017 C 
HETATM   29  C   UNK N   1      31.036   9.000   3.592  0.00  0.00     0.051 C 
HETATM   30  C   UNK N   1      35.633  12.387   9.312  0.00  0.00     0.051 C 
HETATM   31  H   UNK N   1      31.733  13.089   5.548  0.00  0.00     0.166 HD
HETATM   32  H   UNK N   1      31.016  14.894   6.250  0.00  0.00     0.166 HD
ENDROOT
BRANCH  15  33
HETATM   33  C   UNK N   1      27.570  17.017   5.277  0.00  0.00     0.145 C 
BRANCH  33  34
HETATM   34  C   UNK N   1      28.212  17.937   4.248  0.00  0.00     0.222 C 
HETATM   35  O   UNK N   1      29.328  17.683   3.829  0.00  0.00    -0.273 OA
HETATM   36  N   UNK N   1      27.593  19.048   3.794  0.00  0.00    -0.346 N 
HETATM   37  H   UNK N   1      28.070  19.618   3.147  0.00  0.00     0.163 HD
BRANCH  36  38
HETATM   38  C   UNK N   1      26.276  19.441   4.206  0.00  0.00     0.192 C 
BRANCH  38  39
HETATM   39  C   UNK N   1      25.555  20.017   3.004  0.00  0.00     0.146 C 
BRANCH  39  40
HETATM   40  C   UNK N   1      24.102  20.151   3.310  0.00  0.00     0.141 C 
HETATM   41  O   UNK N   1      23.519  21.188   3.038  0.00  0.00    -0.650 OA
BRANCH  40  42
HETATM   42  O   UNK N   1      23.431  19.133   3.880  0.00  0.00    -0.776 OA
HETATM   43  H   UNK N   1      23.624  18.718   4.698  0.00  0.00     0.167 HD
ENDBRANCH  40  42
ENDBRANCH  39  40
ENDBRANCH  38  39
BRANCH  38  44
HETATM   44  C   UNK N   1      26.337  20.421   5.351  0.00  0.00     0.164 C 
HETATM   45  O   UNK N   1      26.976  21.454   5.237  0.00  0.00    -0.648 OA
BRANCH  44  46
HETATM   46  O   UNK N   1      25.654  20.186   6.489  0.00  0.00    -0.775 OA
HETATM   47  H   UNK N   1      25.684  20.329   7.414  0.00  0.00     0.167 HD
ENDBRANCH  44  46
ENDBRANCH  38  44
ENDBRANCH  36  38
ENDBRANCH  33  34
ENDBRANCH  15  33
BRANCH  26  48
HETATM   48  C   UNK N   1      26.376  14.222   3.974  0.00  0.00     0.022 C 
BRANCH  48  49
HETATM   49  C   UNK N   1      25.214  15.015   3.375  0.00  0.00     0.110 C 
BRANCH  49  50
HETATM   50  C   UNK N   1      24.164  15.392   4.376  0.00  0.00     0.139 C 
HETATM   51  O   UNK N   1      24.118  16.533   4.802  0.00  0.00    -0.650 OA
BRANCH  50  52
HETATM   52  O   UNK N   1      23.277  14.478   4.814  0.00  0.00    -0.776 OA
HETATM   53  H   UNK N   1      22.528  14.568   5.369  0.00  0.00     0.167 HD
ENDBRANCH  50  52
ENDBRANCH  49  50
ENDBRANCH  48  49
ENDBRANCH  26  48
BRANCH  17  54
HETATM   54  C   UNK N   1      28.309  18.240   7.949  0.00  0.00     0.179 C 
HETATM   55  O   UNK N   1      28.212  19.413   7.622  0.00  0.00    -0.646 OA
BRANCH  54  56
HETATM   56  O   UNK N   1      27.471  17.771   8.891  0.00  0.00    -0.773 OA
HETATM   57  H   UNK N   1      26.595  18.049   9.078  0.00  0.00     0.167 HD
ENDBRANCH  54  56
ENDBRANCH  17  54
BRANCH   1  58
HETATM   58  C   UNK N   1      35.161  15.566   9.676  0.00  0.00     0.037 C 
HETATM   59  C   UNK N   1      34.780  15.439  11.136  0.00  0.00     0.010 C 
ENDBRANCH   1  58
BRANCH   6  60
HETATM   60  C   UNK N   1      33.163   8.769   5.988  0.00  0.00     0.004 C 
HETATM   61  C   UNK N   1      32.623   7.946   6.886  0.00  0.00     0.012 C 
ENDBRANCH   6  60
TORSDOF 16
ENDMDL
MODEL 7
REMARK VINA RESULT:      -6.8      4.542      7.290
REMARK  16 active torsions:
REMARK  status: ('A' for Active; 'I' for Inactive)
REMARK    1  A    between atoms: C_2  and  C_3 
REMARK    2  A    between atoms: C_8  and  C_52 
REMARK    3  A    between atoms: C_17  and  C_31 
REMARK    4  A    between atoms: C_19  and  C_28 
REMARK    5  A    between atoms: C_28  and  O_30 
REMARK    6  A    between atoms: C_31  and  C_32 
REMARK       I    between atoms: C_32  and  N_34 
REMARK    7  A    between atoms: C_35  and  N_34 
REMARK    8  A    between atoms: C_35  and  C_36 
REMARK    9  A    between atoms: C_35  and  C_40 
REMARK   10  A    between atoms: C_36  and  C_37 
REMARK   11  A    between atoms: C_37  and  O_39 
REMARK   12  A    between atoms: C_40  and  O_42 
REMARK   13  A    between atoms: C_43  and  C_46 
REMARK   14  A    between atoms: C_46  and  C_47 
REMARK   15  A    between atoms: C_47  and  C_48 
REMARK   16  A    between atoms: C_48  and  O_50 
ROOT
HETATM    1  C   UNK N   1      21.448  15.996   2.638  0.00  0.00    -0.024 A 
HETATM    2  C   UNK N   1      21.293  15.022   1.733  0.00  0.00    -0.027 A 
HETATM    3  C   UNK N   1      22.529  14.246   1.761  0.00  0.00     0.041 A 
HETATM    4  C   UNK N   1      22.805  13.174   1.012  0.00  0.00     0.060 C 
HETATM    5  C   UNK N   1      24.058  12.407   1.111  0.00  0.00     0.045 A 
HETATM    6  C   UNK N   1      24.352  11.285   0.360  0.00  0.00    -0.002 A 
HETATM    7  C   UNK N   1      25.569  10.824   0.816  0.00  0.00    -0.023 A 
HETATM    8  C   UNK N   1      25.972  11.696   1.801  0.00  0.00     0.041 A 
HETATM    9  N   UNK N   1      25.055  12.667   1.985  0.00  0.00    -0.355 N 
HETATM   10  C   UNK N   1      27.238  11.578   2.523  0.00  0.00     0.055 C 
HETATM   11  C   UNK N   1      27.846  12.570   3.175  0.00  0.00     0.016 C 
HETATM   12  N   UNK N   1      27.376  13.891   3.260  0.00  0.00    -0.362 N 
ATOM     13  HN  UNK N   1      26.462  14.213   2.941  1.00  0.00     0.165 HD
HETATM   14  C   UNK N   1      28.269  14.625   3.798  0.00  0.00     0.023 C 
HETATM   15  C   UNK N   1      28.079  16.074   4.153  0.00  0.00     0.001 C 
HETATM   16  C   UNK N   1      26.889  16.742   4.107  0.00  0.00     0.059 C 
HETATM   17  C   UNK N   1      26.663  18.100   4.440  0.00  0.00     0.073 C 
HETATM   18  C   UNK N   1      25.300  18.240   4.530  0.00  0.00    -0.016 C 
HETATM   19  C   UNK N   1      24.750  17.058   4.120  0.00  0.00     0.042 C 
HETATM   20  N   UNK N   1      25.711  16.142   3.830  0.00  0.00    -0.354 N 
HETATM   21  C   UNK N   1      23.446  16.926   3.923  0.00  0.00     0.060 C 
HETATM   22  C   UNK N   1      22.798  15.846   3.195  0.00  0.00     0.041 A 
HETATM   23  N   UNK N   1      23.411  14.847   2.676  0.00  0.00    -0.355 N 
ATOM     24  HN  UNK N   1      24.363  14.545   2.887  1.00  0.00     0.166 HD
HETATM   25  C   UNK N   1      24.536  19.485   4.864  0.00  0.00     0.052 C 
HETATM   26  C   UNK N   1      29.558  13.868   4.110  0.00  0.00     0.046 C 
HETATM   27  C   UNK N   1      29.152  12.392   3.861  0.00  0.00     0.041 C 
HETATM   28  C   UNK N   1      30.168  11.560   3.080  0.00  0.00     0.017 C 
HETATM   29  C   UNK N   1      26.329   9.629   0.345  0.00  0.00     0.051 C 
HETATM   30  C   UNK N   1      20.123  14.783   0.835  0.00  0.00     0.051 C 
HETATM   31  H   UNK N   1      25.102  13.413   2.627  0.00  0.00     0.166 HD
HETATM   32  H   UNK N   1      25.576  15.229   3.489  0.00  0.00     0.166 HD
ENDROOT
BRANCH  15  33
HETATM   33  C   UNK N   1      29.198  16.696   4.924  0.00  0.00     0.145 C 
BRANCH  33  34
HETATM   34  C   UNK N   1      28.987  16.307   6.379  0.00  0.00     0.222 C 
HETATM   35  O   UNK N   1      28.000  15.662   6.693  0.00  0.00    -0.273 OA
HETATM   36  N   UNK N   1      29.850  16.673   7.353  0.00  0.00    -0.346 N 
HETATM   37  H   UNK N   1      29.646  16.414   8.281  0.00  0.00     0.163 HD
BRANCH  36  38
HETATM   38  C   UNK N   1      31.048  17.421   7.102  0.00  0.00     0.192 C 
BRANCH  38  39
HETATM   39  C   UNK N   1      32.058  16.496   6.456  0.00  0.00     0.146 C 
BRANCH  39  40
HETATM   40  C   UNK N   1      32.998  17.290   5.615  0.00  0.00     0.141 C 
HETATM   41  O   UNK N   1      32.696  17.567   4.466  0.00  0.00    -0.650 OA
BRANCH  40  42
HETATM   42  O   UNK N   1      34.174  17.707   6.119  0.00  0.00    -0.776 OA
HETATM   43  H   UNK N   1      34.900  18.060   5.642  0.00  0.00     0.167 HD
ENDBRANCH  40  42
ENDBRANCH  39  40
ENDBRANCH  38  39
BRANCH  38  44
HETATM   44  C   UNK N   1      31.578  18.036   8.373  0.00  0.00     0.164 C 
HETATM   45  O   UNK N   1      30.886  18.814   9.010  0.00  0.00    -0.648 OA
BRANCH  44  46
HETATM   46  O   UNK N   1      32.798  17.701   8.839  0.00  0.00    -0.775 OA
HETATM   47  H   UNK N   1      33.265  17.011   9.267  0.00  0.00     0.167 HD
ENDBRANCH  44  46
ENDBRANCH  38  44
ENDBRANCH  36  38
ENDBRANCH  33  34
ENDBRANCH  15  33
BRANCH  26  48
HETATM   48  C   UNK N   1      30.699  14.320   3.179  0.00  0.00     0.022 C 
BRANCH  48  49
HETATM   49  C   UNK N   1      32.107  14.188   3.760  0.00  0.00     0.110 C 
BRANCH  49  50
HETATM   50  C   UNK N   1      33.195  14.339   2.739  0.00  0.00     0.139 C 
HETATM   51  O   UNK N   1      33.659  13.348   2.202  0.00  0.00    -0.650 OA
BRANCH  50  52
HETATM   52  O   UNK N   1      33.667  15.557   2.417  0.00  0.00    -0.776 OA
HETATM   53  H   UNK N   1      33.333  16.210   1.834  0.00  0.00     0.167 HD
ENDBRANCH  50  52
ENDBRANCH  49  50
ENDBRANCH  48  49
ENDBRANCH  26  48
BRANCH  17  54
HETATM   54  C   UNK N   1      27.611  19.248   4.544  0.00  0.00     0.179 C 
HETATM   55  O   UNK N   1      27.962  19.650   5.643  0.00  0.00    -0.646 OA
BRANCH  54  56
HETATM   56  O   UNK N   1      27.930  19.986   3.465  0.00  0.00    -0.773 OA
HETATM   57  H   UNK N   1      28.235  19.689   2.629  0.00  0.00     0.167 HD
ENDBRANCH  54  56
ENDBRANCH  17  54
BRANCH   1  58
HETATM   58  C   UNK N   1      20.520  17.124   3.032  0.00  0.00     0.037 C 
HETATM   59  C   UNK N   1      19.569  16.822   4.172  0.00  0.00     0.010 C 
ENDBRANCH   1  58
BRANCH   6  60
HETATM   60  C   UNK N   1      23.499  10.726  -0.707  0.00  0.00     0.004 C 
HETATM   61  C   UNK N   1      22.697   9.682  -0.502  0.00  0.00     0.012 C 
ENDBRANCH   6  60
TORSDOF 16
ENDMDL
MODEL 8
REMARK VINA RESULT:      -6.7      6.388     10.714
REMARK  16 active torsions:
REMARK  status: ('A' for Active; 'I' for Inactive)
REMARK    1  A    between atoms: C_2  and  C_3 
REMARK    2  A    between atoms: C_8  and  C_52 
REMARK    3  A    between atoms: C_17  and  C_31 
REMARK    4  A    between atoms: C_19  and  C_28 
REMARK    5  A    between atoms: C_28  and  O_30 
REMARK    6  A    between atoms: C_31  and  C_32 
REMARK       I    between atoms: C_32  and  N_34 
REMARK    7  A    between atoms: C_35  and  N_34 
REMARK    8  A    between atoms: C_35  and  C_36 
REMARK    9  A    between atoms: C_35  and  C_40 
REMARK   10  A    between atoms: C_36  and  C_37 
REMARK   11  A    between atoms: C_37  and  O_39 
REMARK   12  A    between atoms: C_40  and  O_42 
REMARK   13  A    between atoms: C_43  and  C_46 
REMARK   14  A    between atoms: C_46  and  C_47 
REMARK   15  A    between atoms: C_47  and  C_48 
REMARK   16  A    between atoms: C_48  and  O_50 
ROOT
HETATM    1  C   UNK N   1      32.110  15.904   3.542  0.00  0.00    -0.024 A 
HETATM    2  C   UNK N   1      32.652  14.683   3.619  0.00  0.00    -0.027 A 
HETATM    3  C   UNK N   1      31.612  13.752   3.191  0.00  0.00     0.041 A 
HETATM    4  C   UNK N   1      31.725  12.423   3.114  0.00  0.00     0.060 C 
HETATM    5  C   UNK N   1      30.650  11.536   2.637  0.00  0.00     0.045 A 
HETATM    6  C   UNK N   1      30.756  10.162   2.531  0.00  0.00    -0.002 A 
HETATM    7  C   UNK N   1      29.575   9.727   1.968  0.00  0.00    -0.023 A 
HETATM    8  C   UNK N   1      28.797  10.846   1.782  0.00  0.00     0.041 A 
HETATM    9  N   UNK N   1      29.446  11.955   2.190  0.00  0.00    -0.355 N 
HETATM   10  C   UNK N   1      27.441  10.812   1.232  0.00  0.00     0.055 C 
HETATM   11  C   UNK N   1      26.523  11.765   1.393  0.00  0.00     0.016 C 
HETATM   12  N   UNK N   1      26.704  12.949   2.128  0.00  0.00    -0.362 N 
ATOM     13  HN  UNK N   1      27.590  13.271   2.517  1.00  0.00     0.165 HD
HETATM   14  C   UNK N   1      25.589  13.557   2.232  0.00  0.00     0.023 C 
HETATM   15  C   UNK N   1      25.415  14.914   2.857  0.00  0.00     0.001 C 
HETATM   16  C   UNK N   1      26.436  15.739   3.234  0.00  0.00     0.059 C 
HETATM   17  C   UNK N   1      26.318  17.024   3.817  0.00  0.00     0.073 C 
HETATM   18  C   UNK N   1      27.571  17.581   3.745  0.00  0.00    -0.016 C 
HETATM   19  C   UNK N   1      28.414  16.611   3.282  0.00  0.00     0.042 C 
HETATM   20  N   UNK N   1      27.737  15.468   2.993  0.00  0.00    -0.354 N 
HETATM   21  C   UNK N   1      29.729  16.777   3.265  0.00  0.00     0.060 C 
HETATM   22  C   UNK N   1      30.720  15.723   3.106  0.00  0.00     0.041 A 
HETATM   23  N   UNK N   1      30.443  14.486   2.919  0.00  0.00    -0.355 N 
ATOM     24  HN  UNK N   1      29.543  14.104   2.628  1.00  0.00     0.166 HD
HETATM   25  C   UNK N   1      27.989  18.940   4.220  0.00  0.00     0.052 C 
HETATM   26  C   UNK N   1      24.427  12.792   1.599  0.00  0.00     0.046 C 
HETATM   27  C   UNK N   1      25.150  11.653   0.836  0.00  0.00     0.041 C 
HETATM   28  C   UNK N   1      24.520  10.268   0.984  0.00  0.00     0.017 C 
HETATM   29  C   UNK N   1      29.185   8.327   1.631  0.00  0.00     0.051 C 
HETATM   30  C   UNK N   1      34.023  14.317   4.086  0.00  0.00     0.051 C 
HETATM   31  H   UNK N   1      29.111  12.881   2.166  0.00  0.00     0.166 HD
HETATM   32  H   UNK N   1      28.117  14.619   2.673  0.00  0.00     0.166 HD
ENDROOT
BRANCH  15  33
HETATM   33  C   UNK N   1      24.050  15.509   2.726  0.00  0.00     0.145 C 
BRANCH  33  34
HETATM   34  C   UNK N   1      23.362  15.308   4.068  0.00  0.00     0.222 C 
HETATM   35  O   UNK N   1      23.862  14.564   4.895  0.00  0.00    -0.273 OA
HETATM   36  N   UNK N   1      22.192  15.912   4.372  0.00  0.00    -0.346 N 
HETATM   37  H   UNK N   1      21.781  15.722   5.248  0.00  0.00     0.163 HD
BRANCH  36  38
HETATM   38  C   UNK N   1      21.517  16.815   3.485  0.00  0.00     0.192 C 
BRANCH  38  39
HETATM   39  C   UNK N   1      21.115  18.044   4.274  0.00  0.00     0.146 C 
BRANCH  39  40
HETATM   40  C   UNK N   1      21.230  17.761   5.733  0.00  0.00     0.141 C 
HETATM   41  O   UNK N   1      20.428  17.014   6.269  0.00  0.00    -0.650 OA
BRANCH  40  42
HETATM   42  O   UNK N   1      22.214  18.322   6.459  0.00  0.00    -0.776 OA
HETATM   43  H   UNK N   1      22.830  18.967   6.171  0.00  0.00     0.167 HD
ENDBRANCH  40  42
ENDBRANCH  39  40
ENDBRANCH  38  39
BRANCH  38  44
HETATM   44  C   UNK N   1      20.331  16.149   2.834  0.00  0.00     0.164 C 
HETATM   45  O   UNK N   1      20.328  15.947   1.630  0.00  0.00    -0.648 OA
BRANCH  44  46
HETATM   46  O   UNK N   1      19.286  15.733   3.577  0.00  0.00    -0.775 OA
HETATM   47  H   UNK N   1      19.053  15.136   4.260  0.00  0.00     0.167 HD
ENDBRANCH  44  46
ENDBRANCH  38  44
ENDBRANCH  36  38
ENDBRANCH  33  34
ENDBRANCH  15  33
BRANCH  26  48
HETATM   48  C   UNK N   1      23.473  12.253   2.681  0.00  0.00     0.022 C 
BRANCH  48  49
HETATM   49  C   UNK N   1      21.987  12.309   2.326  0.00  0.00     0.110 C 
BRANCH  49  50
HETATM   50  C   UNK N   1      21.098  12.583   3.502  0.00  0.00     0.139 C 
HETATM   51  O   UNK N   1      19.905  12.760   3.328  0.00  0.00    -0.650 OA
BRANCH  50  52
HETATM   52  O   UNK N   1      21.609  12.643   4.747  0.00  0.00    -0.776 OA
HETATM   53  H   UNK N   1      22.186  13.266   5.143  0.00  0.00     0.167 HD
ENDBRANCH  50  52
ENDBRANCH  49  50
ENDBRANCH  48  49
ENDBRANCH  26  48
BRANCH  17  54
HETATM   54  C   UNK N   1      25.175  17.674   4.522  0.00  0.00     0.179 C 
HETATM   55  O   UNK N   1      24.642  18.661   4.037  0.00  0.00    -0.646 OA
BRANCH  54  56
HETATM   56  O   UNK N   1      24.845  17.326   5.779  0.00  0.00    -0.773 OA
HETATM   57  H   UNK N   1      25.390  16.930   6.433  0.00  0.00     0.167 HD
ENDBRANCH  54  56
ENDBRANCH  17  54
BRANCH   1  58
HETATM   58  C   UNK N   1      32.691  17.258   3.885  0.00  0.00     0.037 C 
HETATM   59  C   UNK N   1      32.913  17.522   5.360  0.00  0.00     0.010 C 
ENDBRANCH   1  58
BRANCH   6  60
HETATM   60  C   UNK N   1      31.924   9.363   2.948  0.00  0.00     0.004 C 
HETATM   61  C   UNK N   1      31.947   8.680   4.092  0.00  0.00     0.012 C 
ENDBRANCH   6  60
TORSDOF 16
ENDMDL
MODEL 9
REMARK VINA RESULT:      -6.5      2.725      5.813
REMARK  16 active torsions:
REMARK  status: ('A' for Active; 'I' for Inactive)
REMARK    1  A    between atoms: C_2  and  C_3 
REMARK    2  A    between atoms: C_8  and  C_52 
REMARK    3  A    between atoms: C_17  and  C_31 
REMARK    4  A    between atoms: C_19  and  C_28 
REMARK    5  A    between atoms: C_28  and  O_30 
REMARK    6  A    between atoms: C_31  and  C_32 
REMARK       I    between atoms: C_32  and  N_34 
REMARK    7  A    between atoms: C_35  and  N_34 
REMARK    8  A    between atoms: C_35  and  C_36 
REMARK    9  A    between atoms: C_35  and  C_40 
REMARK   10  A    between atoms: C_36  and  C_37 
REMARK   11  A    between atoms: C_37  and  O_39 
REMARK   12  A    between atoms: C_40  and  O_42 
REMARK   13  A    between atoms: C_43  and  C_46 
REMARK   14  A    between atoms: C_46  and  C_47 
REMARK   15  A    between atoms: C_47  and  C_48 
REMARK   16  A    between atoms: C_48  and  O_50 
ROOT
HETATM    1  C   UNK N   1      27.008  18.831   6.152  0.00  0.00    -0.024 A 
HETATM    2  C   UNK N   1      26.252  18.522   5.091  0.00  0.00    -0.027 A 
HETATM    3  C   UNK N   1      26.721  17.220   4.628  0.00  0.00     0.041 A 
HETATM    4  C   UNK N   1      26.241  16.533   3.587  0.00  0.00     0.060 C 
HETATM    5  C   UNK N   1      26.731  15.203   3.188  0.00  0.00     0.045 A 
HETATM    6  C   UNK N   1      26.233  14.469   2.128  0.00  0.00    -0.002 A 
HETATM    7  C   UNK N   1      26.896  13.260   2.151  0.00  0.00    -0.023 A 
HETATM    8  C   UNK N   1      27.782  13.322   3.203  0.00  0.00     0.041 A 
HETATM    9  N   UNK N   1      27.689  14.506   3.839  0.00  0.00    -0.355 N 
HETATM   10  C   UNK N   1      28.707  12.243   3.551  0.00  0.00     0.055 C 
HETATM   11  C   UNK N   1      29.819  12.388   4.271  0.00  0.00     0.016 C 
HETATM   12  N   UNK N   1      30.291  13.601   4.799  0.00  0.00    -0.362 N 
ATOM     13  HN  UNK N   1      29.778  14.483   4.798  1.00  0.00     0.165 HD
HETATM   14  C   UNK N   1      31.458  13.429   5.281  0.00  0.00     0.023 C 
HETATM   15  C   UNK N   1      32.234  14.479   6.028  0.00  0.00     0.001 C 
HETATM   16  C   UNK N   1      31.731  15.681   6.436  0.00  0.00     0.059 C 
HETATM   17  C   UNK N   1      32.421  16.693   7.148  0.00  0.00     0.073 C 
HETATM   18  C   UNK N   1      31.455  17.562   7.589  0.00  0.00    -0.016 C 
HETATM   19  C   UNK N   1      30.273  17.161   7.033  0.00  0.00     0.042 C 
HETATM   20  N   UNK N   1      30.433  16.028   6.301  0.00  0.00    -0.354 N 
HETATM   21  C   UNK N   1      29.174  17.897   7.123  0.00  0.00     0.060 C 
HETATM   22  C   UNK N   1      27.973  17.738   6.317  0.00  0.00     0.041 A 
HETATM   23  N   UNK N   1      27.806  16.826   5.431  0.00  0.00    -0.355 N 
ATOM     24  HN  UNK N   1      28.358  15.974   5.328  1.00  0.00     0.166 HD
HETATM   25  C   UNK N   1      31.656  18.807   8.400  0.00  0.00     0.052 C 
HETATM   26  C   UNK N   1      31.987  12.011   5.075  0.00  0.00     0.046 C 
HETATM   27  C   UNK N   1      30.735  11.255   4.561  0.00  0.00     0.041 C 
HETATM   28  C   UNK N   1      30.980  10.320   3.377  0.00  0.00     0.017 C 
HETATM   29  C   UNK N   1      26.720  12.103   1.226  0.00  0.00     0.051 C 
HETATM   30  C   UNK N   1      25.173  19.344   4.465  0.00  0.00     0.051 C 
HETATM   31  H   UNK N   1      28.210  14.803   4.620  0.00  0.00     0.166 HD
HETATM   32  H   UNK N   1      29.744  15.556   5.780  0.00  0.00     0.166 HD
ENDROOT
BRANCH  15  33
HETATM   33  C   UNK N   1      33.512  14.012   6.645  0.00  0.00     0.145 C 
BRANCH  33  34
HETATM   34  C   UNK N   1      33.130  13.269   7.917  0.00  0.00     0.222 C 
HETATM   35  O   UNK N   1      32.300  13.752   8.669  0.00  0.00    -0.273 OA
HETATM   36  N   UNK N   1      33.699  12.092   8.260  0.00  0.00    -0.346 N 
HETATM   37  H   UNK N   1      33.430  11.672   9.110  0.00  0.00     0.163 HD
BRANCH  36  38
HETATM   38  C   UNK N   1      34.677  11.425   7.450  0.00  0.00     0.192 C 
BRANCH  38  39
HETATM   39  C   UNK N   1      34.219   9.997   7.234  0.00  0.00     0.146 C 
BRANCH  39  40
HETATM   40  C   UNK N   1      33.204   9.636   8.265  0.00  0.00     0.141 C 
HETATM   41  O   UNK N   1      33.568   9.296   9.379  0.00  0.00    -0.650 OA
BRANCH  40  42
HETATM   42  O   UNK N   1      31.891   9.687   7.973  0.00  0.00    -0.776 OA
HETATM   43  H   UNK N   1      31.503   9.969   7.169  0.00  0.00     0.167 HD
ENDBRANCH  40  42
ENDBRANCH  39  40
ENDBRANCH  38  39
BRANCH  38  44
HETATM   44  C   UNK N   1      36.042  11.489   8.086  0.00  0.00     0.164 C 
HETATM   45  O   UNK N   1      36.148  11.669   9.288  0.00  0.00    -0.648 OA
BRANCH  44  46
HETATM   46  O   UNK N   1      37.153  11.307   7.343  0.00  0.00    -0.775 OA
HETATM   47  H   UNK N   1      37.873  11.769   6.962  0.00  0.00     0.167 HD
ENDBRANCH  44  46
ENDBRANCH  38  44
ENDBRANCH  36  38
ENDBRANCH  33  34
ENDBRANCH  15  33
BRANCH  26  48
HETATM   48  C   UNK N   1      33.135  11.997   4.049  0.00  0.00     0.022 C 
BRANCH  48  49
HETATM   49  C   UNK N   1      32.977  12.971   2.881  0.00  0.00     0.110 C 
BRANCH  49  50
HETATM   50  C   UNK N   1      34.064  14.001   2.806  0.00  0.00     0.139 C 
HETATM   51  O   UNK N   1      35.184  13.726   3.201  0.00  0.00    -0.650 OA
BRANCH  50  52
HETATM   52  O   UNK N   1      33.812  15.228   2.313  0.00  0.00    -0.776 OA
HETATM   53  H   UNK N   1      33.462  15.497   1.486  0.00  0.00     0.167 HD
ENDBRANCH  50  52
ENDBRANCH  49  50
ENDBRANCH  48  49
ENDBRANCH  26  48
BRANCH  17  54
HETATM   54  C   UNK N   1      33.883  16.942   7.314  0.00  0.00     0.179 C 
HETATM   55  O   UNK N   1      34.443  16.615   8.350  0.00  0.00    -0.646 OA
BRANCH  54  56
HETATM   56  O   UNK N   1      34.563  17.705   6.439  0.00  0.00    -0.773 OA
HETATM   57  H   UNK N   1      34.232  18.385   5.885  0.00  0.00     0.167 HD
ENDBRANCH  54  56
ENDBRANCH  17  54
BRANCH   1  58
HETATM   58  C   UNK N   1      27.009  20.064   7.028  0.00  0.00     0.037 C 
HETATM   59  C   UNK N   1      27.442  21.349   6.353  0.00  0.00     0.010 C 
ENDBRANCH   1  58
BRANCH   6  60
HETATM   60  C   UNK N   1      25.194  14.929   1.187  0.00  0.00     0.004 C 
HETATM   61  C   UNK N   1      23.923  14.543   1.286  0.00  0.00     0.012 C 
ENDBRANCH   6  60
TORSDOF 16
ENDMDL
