MODEL 1
REMARK VINA RESULT:      -6.7      0.000      0.000
REMARK  30 active torsions:
REMARK  status: ('A' for Active; 'I' for Inactive)
REMARK    1  A    between atoms: C_32  and  C_12 
REMARK    2  A    between atoms: C_17  and  C_14 
REMARK    3  A    between atoms: C_18  and  C_14 
REMARK    4  A    between atoms: C_23  and  C_17 
REMARK    5  A    between atoms: C_26  and  C_18 
REMARK    6  A    between atoms: C_38  and  C_23 
REMARK    7  A    between atoms: N_57  and  C_26 
REMARK    8  A    between atoms: C_34  and  C_28 
REMARK    9  A    between atoms: C_35  and  C_28 
REMARK   10  A    between atoms: C_37  and  C_29 
REMARK   11  A    between atoms: C_41  and  C_29 
REMARK   12  A    between atoms: C_42  and  C_30 
REMARK   13  A    between atoms: C_43  and  C_31 
REMARK   14  A    between atoms: C_44  and  C_32 
REMARK   15  A    between atoms: C_45  and  C_33 
REMARK   16  A    between atoms: C_46  and  C_33 
REMARK   17  A    between atoms: C_49  and  C_35 
REMARK   18  A    between atoms: C_35  and  N_50 
REMARK   19  A    between atoms: C_36  and  C_45 
REMARK   20  A    between atoms: C_44  and  C_37 
REMARK   21  A    between atoms: C_37  and  O_67 
REMARK       I    between atoms: N_54  and  C_38 
REMARK       I    between atoms: N_56  and  C_41 
REMARK   22  A    between atoms: C_48  and  C_42 
REMARK   23  A    between atoms: C_42  and  N_52 
REMARK   24  A    between atoms: C_47  and  C_43 
REMARK   25  A    between atoms: C_43  and  N_54 
REMARK   26  A    between atoms: C_44  and  N_55 
REMARK   27  A    between atoms: O_68  and  C_45 
REMARK   28  A    between atoms: C_46  and  O_62 
REMARK   29  A    between atoms: C_47  and  O_63 
REMARK       I    between atoms: N_55  and  C_48 
REMARK   30  A    between atoms: O_66  and  C_49 
ROOT
HETATM    1  C   UNK N   1      27.320  17.266   5.097  0.00  0.00     0.119 C 
ENDROOT
BRANCH   1   2
HETATM    2  C   UNK N   1      27.037  18.559   4.277  0.00  0.00     0.006 C 
HETATM    3  C   UNK N   1      28.116  19.592   4.594  0.00  0.00     0.012 C 
BRANCH   2   4
HETATM    4  C   UNK N   1      25.682  19.158   4.672  0.00  0.00     0.002 C 
HETATM    5  C   UNK N   1      25.026  19.955   3.555  0.00  0.00     0.005 C 
ENDBRANCH   2   4
ENDBRANCH   1   2
BRANCH   1   6
HETATM    6  C   UNK N   1      26.236  16.127   4.970  0.00  0.00     0.152 C 
BRANCH   6   7
HETATM    7  C   UNK N   1      25.514  16.143   3.605  0.00  0.00     0.137 C 
BRANCH   7   8
HETATM    8  C   UNK N   1      25.460  14.821   2.928  0.00  0.00     0.222 C 
HETATM    9  N   UNK N   1      24.454  13.931   3.158  0.00  0.00    -0.345 N 
HETATM   10  C   UNK N   1      24.495  12.633   2.537  0.00  0.00     0.126 C 
HETATM   11  C   UNK N   1      23.307  14.143   4.030  0.00  0.00     0.116 C 
HETATM   12  C   UNK N   1      23.216  11.949   2.960  0.00  0.00     0.022 C 
HETATM   13  C   UNK N   1      22.752  12.723   4.179  0.00  0.00     0.029 C 
HETATM   14  O   UNK N   1      26.361  14.540   2.149  0.00  0.00    -0.273 OA
BRANCH  11  15
HETATM   15  C   UNK N   1      22.190  15.112   3.458  0.00  0.00     0.155 C 
BRANCH  15  16
HETATM   16  C   UNK N   1      21.654  16.248   4.404  0.00  0.00     0.087 C 
HETATM   17  C   UNK N   1      22.070  17.635   3.929  0.00  0.00     0.021 C 
BRANCH  16  18
HETATM   18  C   UNK N   1      20.168  16.231   4.780  0.00  0.00     0.118 C 
HETATM   19  N   UNK N   1      19.717  16.294   6.002  0.00  0.00    -0.359 N 
ATOM     20  HN  UNK N   1      18.704  16.258   6.111  1.00  0.00     0.162 HD
BRANCH  19  21
HETATM   21  C   UNK N   1      20.494  16.407   7.229  0.00  0.00     0.185 C 
BRANCH  21  22
HETATM   22  C   UNK N   1      19.976  15.382   8.251  0.00  0.00     0.074 C 
BRANCH  22  23
HETATM   23  C   UNK N   1      20.883  14.240   8.596  0.00  0.00    -0.056 A 
HETATM   24  C   UNK N   1      21.770  13.693   7.658  0.00  0.00     0.007 A 
HETATM   25  C   UNK N   1      22.602  12.630   8.022  0.00  0.00     0.001 A 
HETATM   26  C   UNK N   1      22.564  12.124   9.325  0.00  0.00     0.000 A 
HETATM   27  C   UNK N   1      21.691  12.678  10.265  0.00  0.00     0.001 A 
HETATM   28  C   UNK N   1      20.849  13.731   9.898  0.00  0.00     0.007 A 
ENDBRANCH  22  23
ENDBRANCH  21  22
BRANCH  21  29
HETATM   29  C   UNK N   1      20.463  17.822   7.756  0.00  0.00     0.163 C 
HETATM   30  O   UNK N   1      19.972  18.054   8.850  0.00  0.00    -0.648 OA
BRANCH  29  31
HETATM   31  O   UNK N   1      20.972  18.836   7.028  0.00  0.00    -0.775 OA
HETATM   32  H   UNK N   1      20.560  19.611   6.702  0.00  0.00     0.167 HD
ENDBRANCH  29  31
ENDBRANCH  21  29
ENDBRANCH  19  21
BRANCH  18  33
HETATM   33  O   UNK N   1      19.274  16.032   3.793  0.00  0.00    -0.349 OA
HETATM   34  H   UNK N   1      18.828  15.633   3.072  0.00  0.00     0.219 HD
ENDBRANCH  18  33
ENDBRANCH  16  18
ENDBRANCH  15  16
BRANCH  15  35
HETATM   35  O   UNK N   1      21.234  14.497   2.613  0.00  0.00    -0.388 OA
HETATM   36  C   UNK N   1      21.475  14.803   1.273  0.00  0.00     0.202 C 
ENDBRANCH  15  35
ENDBRANCH  11  15
ENDBRANCH   7   8
ENDBRANCH   6   7
BRANCH   6  37
HETATM   37  O   UNK N   1      25.289  16.073   6.031  0.00  0.00    -0.388 OA
HETATM   38  C   UNK N   1      25.655  15.111   6.994  0.00  0.00     0.202 C 
ENDBRANCH   6  37
ENDBRANCH   1   6
BRANCH   1  39
HETATM   39  N   UNK N   1      28.654  16.732   4.870  0.00  0.00    -0.347 N 
HETATM   40  C   UNK N   1      29.054  16.523   3.492  0.00  0.00     0.153 C 
HETATM   41  C   UNK N   1      29.560  16.555   5.891  0.00  0.00     0.243 C 
HETATM   42  O   UNK N   1      29.227  16.717   7.058  0.00  0.00    -0.271 OA
BRANCH  41  43
HETATM   43  C   UNK N   1      31.001  16.273   5.551  0.00  0.00     0.179 C 
BRANCH  43  44
HETATM   44  C   UNK N   1      32.023  17.368   5.903  0.00  0.00     0.009 C 
HETATM   45  C   UNK N   1      32.935  16.895   7.027  0.00  0.00     0.012 C 
HETATM   46  C   UNK N   1      32.925  17.707   4.718  0.00  0.00     0.012 C 
ENDBRANCH  43  44
BRANCH  43  47
HETATM   47  N   UNK N   1      31.303  14.903   5.949  0.00  0.00    -0.359 N 
HETATM   48  C   UNK N   1      31.459  13.786   5.298  0.00  0.00     0.136 C 
ATOM     49  HN  UNK N   1      31.418  14.797   6.957  1.00  0.00     0.162 HD
BRANCH  48  50
HETATM   50  C   UNK N   1      31.064  13.503   3.832  0.00  0.00     0.164 C 
BRANCH  50  51
HETATM   51  C   UNK N   1      29.890  12.538   3.610  0.00  0.00     0.008 C 
HETATM   52  C   UNK N   1      28.717  12.969   4.465  0.00  0.00     0.012 C 
HETATM   53  C   UNK N   1      29.420  12.583   2.165  0.00  0.00     0.012 C 
ENDBRANCH  50  51
BRANCH  50  54
HETATM   54  N   UNK N   1      32.308  13.166   3.147  0.00  0.00    -0.344 N 
HETATM   55  C   UNK N   1      32.844  11.833   3.245  0.00  0.00     0.153 C 
HETATM   56  C   UNK N   1      33.134  14.220   2.871  0.00  0.00     0.220 C 
HETATM   57  O   UNK N   1      32.659  15.294   2.526  0.00  0.00    -0.273 OA
BRANCH  56  58
HETATM   58  C   UNK N   1      34.541  14.229   3.384  0.00  0.00     0.103 C 
BRANCH  58  59
HETATM   59  C   UNK N   1      34.765  14.701   4.786  0.00  0.00     0.009 C 
BRANCH  59  60
HETATM   60  C   UNK N   1      35.581  13.637   5.470  0.00  0.00     0.002 C 
BRANCH  60  61
HETATM   61  C   UNK N   1      36.297  14.261   6.646  0.00  0.00     0.020 C 
BRANCH  61  62
HETATM   62  C   UNK N   1      36.175  13.418   7.911  0.00  0.00     0.135 C 
BRANCH  62  63
HETATM   63  N   UNK N   1      35.382  14.138   8.878  0.00  0.00    -0.281 N 
HETATM   64  C   UNK N   1      34.046  14.118   8.955  0.00  0.00     0.250 A 
HETATM   65  C   UNK N   1      33.597  14.951  10.079  0.00  0.00     0.080 A 
HETATM   66  O   UNK N   1      33.325  13.487   8.199  0.00  0.00    -0.268 OA
HETATM   67  C   UNK N   1      34.713  15.455  10.642  0.00  0.00     0.080 A 
HETATM   68  C   UNK N   1      35.841  14.925   9.859  0.00  0.00     0.250 A 
HETATM   69  O   UNK N   1      37.022  15.159  10.063  0.00  0.00    -0.268 OA
ENDBRANCH  62  63
ENDBRANCH  61  62
ENDBRANCH  60  61
ENDBRANCH  59  60
ENDBRANCH  58  59
ENDBRANCH  56  58
ENDBRANCH  50  54
ENDBRANCH  48  50
BRANCH  48  70
HETATM   70  O   UNK N   1      31.902  12.729   6.006  0.00  0.00    -0.348 OA
HETATM   71  H   UNK N   1      31.899  11.822   6.241  0.00  0.00     0.219 HD
ENDBRANCH  48  70
ENDBRANCH  43  47
ENDBRANCH  41  43
ENDBRANCH   1  39
TORSDOF 30
ENDMDL
MODEL 2
REMARK VINA RESULT:      -6.6      2.334      5.142
REMARK  30 active torsions:
REMARK  status: ('A' for Active; 'I' for Inactive)
REMARK    1  A    between atoms: C_32  and  C_12 
REMARK    2  A    between atoms: C_17  and  C_14 
REMARK    3  A    between atoms: C_18  and  C_14 
REMARK    4  A    between atoms: C_23  and  C_17 
REMARK    5  A    between atoms: C_26  and  C_18 
REMARK    6  A    between atoms: C_38  and  C_23 
REMARK    7  A    between atoms: N_57  and  C_26 
REMARK    8  A    between atoms: C_34  and  C_28 
REMARK    9  A    between atoms: C_35  and  C_28 
REMARK   10  A    between atoms: C_37  and  C_29 
REMARK   11  A    between atoms: C_41  and  C_29 
REMARK   12  A    between atoms: C_42  and  C_30 
REMARK   13  A    between atoms: C_43  and  C_31 
REMARK   14  A    between atoms: C_44  and  C_32 
REMARK   15  A    between atoms: C_45  and  C_33 
REMARK   16  A    between atoms: C_46  and  C_33 
REMARK   17  A    between atoms: C_49  and  C_35 
REMARK   18  A    between atoms: C_35  and  N_50 
REMARK   19  A    between atoms: C_36  and  C_45 
REMARK   20  A    between atoms: C_44  and  C_37 
REMARK   21  A    between atoms: C_37  and  O_67 
REMARK       I    between atoms: N_54  and  C_38 
REMARK       I    between atoms: N_56  and  C_41 
REMARK   22  A    between atoms: C_48  and  C_42 
REMARK   23  A    between atoms: C_42  and  N_52 
REMARK   24  A    between atoms: C_47  and  C_43 
REMARK   25  A    between atoms: C_43  and  N_54 
REMARK   26  A    between atoms: C_44  and  N_55 
REMARK   27  A    between atoms: O_68  and  C_45 
REMARK   28  A    between atoms: C_46  and  O_62 
REMARK   29  A    between atoms: C_47  and  O_63 
REMARK       I    between atoms: N_55  and  C_48 
REMARK   30  A    between atoms: O_66  and  C_49 
ROOT
HETATM    1  C   UNK N   1      26.830  18.423   5.553  0.00  0.00     0.119 C 
ENDROOT
BRANCH   1   2
HETATM    2  C   UNK N   1      26.837  19.892   5.038  0.00  0.00     0.006 C 
HETATM    3  C   UNK N   1      26.895  20.836   6.236  0.00  0.00     0.012 C 
BRANCH   2   4
HETATM    4  C   UNK N   1      25.551  20.194   4.262  0.00  0.00     0.002 C 
HETATM    5  C   UNK N   1      25.796  20.564   2.806  0.00  0.00     0.005 C 
ENDBRANCH   2   4
ENDBRANCH   1   2
BRANCH   1   6
HETATM    6  C   UNK N   1      25.895  17.427   4.763  0.00  0.00     0.152 C 
BRANCH   6   7
HETATM    7  C   UNK N   1      24.852  16.742   5.672  0.00  0.00     0.137 C 
BRANCH   7   8
HETATM    8  C   UNK N   1      23.442  16.980   5.269  0.00  0.00     0.222 C 
HETATM    9  N   UNK N   1      22.661  15.992   4.748  0.00  0.00    -0.345 N 
HETATM   10  C   UNK N   1      21.328  16.297   4.299  0.00  0.00     0.126 C 
HETATM   11  C   UNK N   1      23.056  14.603   4.554  0.00  0.00     0.116 C 
HETATM   12  C   UNK N   1      20.748  14.978   3.848  0.00  0.00     0.022 C 
HETATM   13  C   UNK N   1      21.953  14.085   3.626  0.00  0.00     0.029 C 
HETATM   14  O   UNK N   1      22.989  18.108   5.409  0.00  0.00    -0.273 OA
BRANCH  11  15
HETATM   15  C   UNK N   1      23.121  13.726   5.873  0.00  0.00     0.155 C 
BRANCH  15  16
HETATM   16  C   UNK N   1      24.513  13.116   6.277  0.00  0.00     0.087 C 
HETATM   17  C   UNK N   1      24.696  13.051   7.789  0.00  0.00     0.021 C 
BRANCH  16  18
HETATM   18  C   UNK N   1      24.937  11.794   5.626  0.00  0.00     0.118 C 
HETATM   19  N   UNK N   1      25.754  11.700   4.615  0.00  0.00    -0.359 N 
ATOM     20  HN  UNK N   1      25.938  10.758   4.271  1.00  0.00     0.162 HD
BRANCH  19  21
HETATM   21  C   UNK N   1      26.432  12.785   3.918  0.00  0.00     0.185 C 
BRANCH  21  22
HETATM   22  C   UNK N   1      26.691  12.366   2.461  0.00  0.00     0.074 C 
BRANCH  22  23
HETATM   23  C   UNK N   1      25.514  12.348   1.534  0.00  0.00    -0.056 A 
HETATM   24  C   UNK N   1      25.081  11.167   0.915  0.00  0.00     0.007 A 
HETATM   25  C   UNK N   1      23.974  11.193   0.060  0.00  0.00     0.001 A 
HETATM   26  C   UNK N   1      23.289  12.391  -0.164  0.00  0.00     0.000 A 
HETATM   27  C   UNK N   1      23.711  13.566   0.464  0.00  0.00     0.001 A 
HETATM   28  C   UNK N   1      24.824  13.543   1.308  0.00  0.00     0.007 A 
ENDBRANCH  22  23
ENDBRANCH  21  22
BRANCH  21  29
HETATM   29  C   UNK N   1      27.695  13.183   4.643  0.00  0.00     0.163 C 
HETATM   30  O   UNK N   1      28.696  12.490   4.548  0.00  0.00    -0.648 OA
BRANCH  29  31
HETATM   31  O   UNK N   1      27.729  14.299   5.399  0.00  0.00    -0.775 OA
HETATM   32  H   UNK N   1      28.416  14.922   5.525  0.00  0.00     0.167 HD
ENDBRANCH  29  31
ENDBRANCH  21  29
ENDBRANCH  19  21
BRANCH  18  33
HETATM   33  O   UNK N   1      24.345  10.665   6.059  0.00  0.00    -0.349 OA
HETATM   34  H   UNK N   1      23.768   9.927   6.094  0.00  0.00     0.219 HD
ENDBRANCH  18  33
ENDBRANCH  16  18
ENDBRANCH  15  16
BRANCH  15  35
HETATM   35  O   UNK N   1      21.987  12.912   6.112  0.00  0.00    -0.388 OA
HETATM   36  C   UNK N   1      21.198  13.435   7.137  0.00  0.00     0.202 C 
ENDBRANCH  15  35
ENDBRANCH  11  15
ENDBRANCH   7   8
ENDBRANCH   6   7
BRANCH   6  37
HETATM   37  O   UNK N   1      26.576  16.459   3.972  0.00  0.00    -0.388 OA
HETATM   38  C   UNK N   1      26.092  16.450   2.647  0.00  0.00     0.202 C 
ENDBRANCH   6  37
ENDBRANCH   1   6
BRANCH   1  39
HETATM   39  N   UNK N   1      28.166  17.866   5.699  0.00  0.00    -0.347 N 
HETATM   40  C   UNK N   1      29.163  18.286   4.733  0.00  0.00     0.153 C 
HETATM   41  C   UNK N   1      28.526  17.084   6.773  0.00  0.00     0.243 C 
HETATM   42  O   UNK N   1      27.688  16.715   7.586  0.00  0.00    -0.271 OA
BRANCH  41  43
HETATM   43  C   UNK N   1      29.984  16.783   7.004  0.00  0.00     0.179 C 
BRANCH  43  44
HETATM   44  C   UNK N   1      30.550  17.125   8.393  0.00  0.00     0.009 C 
HETATM   45  C   UNK N   1      31.326  15.939   8.952  0.00  0.00     0.012 C 
HETATM   46  C   UNK N   1      31.524  18.300   8.338  0.00  0.00     0.012 C 
ENDBRANCH  43  44
BRANCH  43  47
HETATM   47  N   UNK N   1      30.269  15.462   6.456  0.00  0.00    -0.359 N 
HETATM   48  C   UNK N   1      31.242  14.969   5.745  0.00  0.00     0.136 C 
ATOM     49  HN  UNK N   1      29.549  14.774   6.679  1.00  0.00     0.162 HD
BRANCH  48  50
HETATM   50  C   UNK N   1      32.323  15.759   4.975  0.00  0.00     0.164 C 
BRANCH  50  51
HETATM   51  C   UNK N   1      32.262  15.694   3.443  0.00  0.00     0.008 C 
HETATM   52  C   UNK N   1      32.125  17.095   2.885  0.00  0.00     0.012 C 
HETATM   53  C   UNK N   1      33.549  15.119   2.875  0.00  0.00     0.012 C 
ENDBRANCH  50  51
BRANCH  50  54
HETATM   54  N   UNK N   1      33.595  15.381   5.582  0.00  0.00    -0.344 N 
HETATM   55  C   UNK N   1      33.869  13.996   5.871  0.00  0.00     0.153 C 
HETATM   56  C   UNK N   1      34.233  16.367   6.281  0.00  0.00     0.220 C 
HETATM   57  O   UNK N   1      34.211  17.520   5.868  0.00  0.00    -0.273 OA
BRANCH  56  58
HETATM   58  C   UNK N   1      34.582  16.166   7.722  0.00  0.00     0.103 C 
BRANCH  58  59
HETATM   59  C   UNK N   1      34.795  17.384   8.562  0.00  0.00     0.009 C 
BRANCH  59  60
HETATM   60  C   UNK N   1      34.834  16.917   9.993  0.00  0.00     0.002 C 
BRANCH  60  61
HETATM   61  C   UNK N   1      35.522  15.572  10.041  0.00  0.00     0.020 C 
BRANCH  61  62
HETATM   62  C   UNK N   1      36.339  15.388  11.316  0.00  0.00     0.135 C 
BRANCH  62  63
HETATM   63  N   UNK N   1      36.475  13.976  11.584  0.00  0.00    -0.281 N 
HETATM   64  C   UNK N   1      35.622  13.240  12.307  0.00  0.00     0.250 A 
HETATM   65  C   UNK N   1      36.074  11.842  12.342  0.00  0.00     0.080 A 
HETATM   66  O   UNK N   1      34.618  13.681  12.842  0.00  0.00    -0.268 OA
HETATM   67  C   UNK N   1      37.213  11.798  11.624  0.00  0.00     0.080 A 
HETATM   68  C   UNK N   1      37.452  13.171  11.151  0.00  0.00     0.250 A 
HETATM   69  O   UNK N   1      38.394  13.534  10.465  0.00  0.00    -0.268 OA
ENDBRANCH  62  63
ENDBRANCH  61  62
ENDBRANCH  60  61
ENDBRANCH  59  60
ENDBRANCH  58  59
ENDBRANCH  56  58
ENDBRANCH  50  54
ENDBRANCH  48  50
BRANCH  48  70
HETATM   70  O   UNK N   1      31.242  13.634   5.561  0.00  0.00    -0.348 OA
HETATM   71  H   UNK N   1      31.659  12.820   5.357  0.00  0.00     0.219 HD
ENDBRANCH  48  70
ENDBRANCH  43  47
ENDBRANCH  41  43
ENDBRANCH   1  39
TORSDOF 30
ENDMDL
MODEL 3
REMARK VINA RESULT:      -6.6      2.282      3.849
REMARK  30 active torsions:
REMARK  status: ('A' for Active; 'I' for Inactive)
REMARK    1  A    between atoms: C_32  and  C_12 
REMARK    2  A    between atoms: C_17  and  C_14 
REMARK    3  A    between atoms: C_18  and  C_14 
REMARK    4  A    between atoms: C_23  and  C_17 
REMARK    5  A    between atoms: C_26  and  C_18 
REMARK    6  A    between atoms: C_38  and  C_23 
REMARK    7  A    between atoms: N_57  and  C_26 
REMARK    8  A    between atoms: C_34  and  C_28 
REMARK    9  A    between atoms: C_35  and  C_28 
REMARK   10  A    between atoms: C_37  and  C_29 
REMARK   11  A    between atoms: C_41  and  C_29 
REMARK   12  A    between atoms: C_42  and  C_30 
REMARK   13  A    between atoms: C_43  and  C_31 
REMARK   14  A    between atoms: C_44  and  C_32 
REMARK   15  A    between atoms: C_45  and  C_33 
REMARK   16  A    between atoms: C_46  and  C_33 
REMARK   17  A    between atoms: C_49  and  C_35 
REMARK   18  A    between atoms: C_35  and  N_50 
REMARK   19  A    between atoms: C_36  and  C_45 
REMARK   20  A    between atoms: C_44  and  C_37 
REMARK   21  A    between atoms: C_37  and  O_67 
REMARK       I    between atoms: N_54  and  C_38 
REMARK       I    between atoms: N_56  and  C_41 
REMARK   22  A    between atoms: C_48  and  C_42 
REMARK   23  A    between atoms: C_42  and  N_52 
REMARK   24  A    between atoms: C_47  and  C_43 
REMARK   25  A    between atoms: C_43  and  N_54 
REMARK   26  A    between atoms: C_44  and  N_55 
REMARK   27  A    between atoms: O_68  and  C_45 
REMARK   28  A    between atoms: C_46  and  O_62 
REMARK   29  A    between atoms: C_47  and  O_63 
REMARK       I    between atoms: N_55  and  C_48 
REMARK   30  A    between atoms: O_66  and  C_49 
ROOT
HETATM    1  C   UNK N   1      26.819  17.791   5.075  0.00  0.00     0.119 C 
ENDROOT
BRANCH   1   2
HETATM    2  C   UNK N   1      26.613  19.195   4.434  0.00  0.00     0.006 C 
HETATM    3  C   UNK N   1      26.203  20.181   5.525  0.00  0.00     0.012 C 
BRANCH   2   4
HETATM    4  C   UNK N   1      25.488  19.149   3.395  0.00  0.00     0.002 C 
HETATM    5  C   UNK N   1      25.306  20.460   2.644  0.00  0.00     0.005 C 
ENDBRANCH   2   4
ENDBRANCH   1   2
BRANCH   1   6
HETATM    6  C   UNK N   1      26.349  16.566   4.199  0.00  0.00     0.152 C 
BRANCH   6   7
HETATM    7  C   UNK N   1      25.277  15.707   4.904  0.00  0.00     0.137 C 
BRANCH   7   8
HETATM    8  C   UNK N   1      23.897  15.918   4.395  0.00  0.00     0.222 C 
HETATM    9  N   UNK N   1      23.454  15.342   3.242  0.00  0.00    -0.345 N 
HETATM   10  C   UNK N   1      22.135  15.645   2.753  0.00  0.00     0.126 C 
HETATM   11  C   UNK N   1      24.217  14.440   2.389  0.00  0.00     0.116 C 
HETATM   12  C   UNK N   1      21.966  14.801   1.512  0.00  0.00     0.022 C 
HETATM   13  C   UNK N   1      23.379  14.427   1.107  0.00  0.00     0.029 C 
HETATM   14  O   UNK N   1      23.152  16.640   5.043  0.00  0.00    -0.273 OA
BRANCH  11  15
HETATM   15  C   UNK N   1      24.391  12.965   2.946  0.00  0.00     0.155 C 
BRANCH  15  16
HETATM   16  C   UNK N   1      23.287  12.417   3.921  0.00  0.00     0.087 C 
HETATM   17  C   UNK N   1      22.355  11.424   3.236  0.00  0.00     0.021 C 
BRANCH  16  18
HETATM   18  C   UNK N   1      23.731  11.883   5.288  0.00  0.00     0.118 C 
HETATM   19  N   UNK N   1      23.326  12.359   6.431  0.00  0.00    -0.359 N 
ATOM     20  HN  UNK N   1      23.714  11.919   7.265  1.00  0.00     0.162 HD
BRANCH  19  21
HETATM   21  C   UNK N   1      22.385  13.448   6.656  0.00  0.00     0.185 C 
BRANCH  21  22
HETATM   22  C   UNK N   1      22.773  14.193   7.944  0.00  0.00     0.074 C 
BRANCH  22  23
HETATM   23  C   UNK N   1      23.009  13.366   9.170  0.00  0.00    -0.056 A 
HETATM   24  C   UNK N   1      24.301  13.008   9.581  0.00  0.00     0.007 A 
HETATM   25  C   UNK N   1      24.478  12.238  10.736  0.00  0.00     0.001 A 
HETATM   26  C   UNK N   1      23.370  11.840  11.490  0.00  0.00     0.000 A 
HETATM   27  C   UNK N   1      22.082  12.209  11.089  0.00  0.00     0.001 A 
HETATM   28  C   UNK N   1      21.904  12.966   9.929  0.00  0.00     0.007 A 
ENDBRANCH  22  23
ENDBRANCH  21  22
BRANCH  21  29
HETATM   29  C   UNK N   1      20.965  12.934   6.686  0.00  0.00     0.163 C 
HETATM   30  O   UNK N   1      20.754  11.738   6.810  0.00  0.00    -0.648 OA
BRANCH  29  31
HETATM   31  O   UNK N   1      19.926  13.784   6.574  0.00  0.00    -0.775 OA
HETATM   32  H   UNK N   1      19.602  14.425   7.175  0.00  0.00     0.167 HD
ENDBRANCH  29  31
ENDBRANCH  21  29
ENDBRANCH  19  21
BRANCH  18  33
HETATM   33  O   UNK N   1      24.683  10.931   5.308  0.00  0.00    -0.349 OA
HETATM   34  H   UNK N   1      25.526  10.523   5.267  0.00  0.00     0.219 HD
ENDBRANCH  18  33
ENDBRANCH  16  18
ENDBRANCH  15  16
BRANCH  15  35
HETATM   35  O   UNK N   1      25.724  12.582   3.231  0.00  0.00    -0.388 OA
HETATM   36  C   UNK N   1      26.342  12.030   2.107  0.00  0.00     0.202 C 
ENDBRANCH  15  35
ENDBRANCH  11  15
ENDBRANCH   7   8
ENDBRANCH   6   7
BRANCH   6  37
HETATM   37  O   UNK N   1      27.398  15.740   3.703  0.00  0.00    -0.388 OA
HETATM   38  C   UNK N   1      27.355  15.650   2.297  0.00  0.00     0.202 C 
ENDBRANCH   6  37
ENDBRANCH   1   6
BRANCH   1  39
HETATM   39  N   UNK N   1      28.174  17.584   5.563  0.00  0.00    -0.347 N 
HETATM   40  C   UNK N   1      29.238  18.275   4.862  0.00  0.00     0.153 C 
HETATM   41  C   UNK N   1      28.443  16.879   6.714  0.00  0.00     0.243 C 
HETATM   42  O   UNK N   1      27.552  16.282   7.305  0.00  0.00    -0.271 OA
BRANCH  41  43
HETATM   43  C   UNK N   1      29.827  16.947   7.308  0.00  0.00     0.179 C 
BRANCH  43  44
HETATM   44  C   UNK N   1      29.958  17.622   8.684  0.00  0.00     0.009 C 
HETATM   45  C   UNK N   1      31.051  18.682   8.649  0.00  0.00     0.012 C 
HETATM   46  C   UNK N   1      28.670  18.332   9.096  0.00  0.00     0.012 C 
ENDBRANCH  43  44
BRANCH  43  47
HETATM   47  N   UNK N   1      30.467  15.651   7.119  0.00  0.00    -0.359 N 
HETATM   48  C   UNK N   1      31.533  15.253   6.484  0.00  0.00     0.136 C 
ATOM     49  HN  UNK N   1      29.973  14.890   7.585  1.00  0.00     0.162 HD
BRANCH  48  50
HETATM   50  C   UNK N   1      32.339  16.048   5.434  0.00  0.00     0.164 C 
BRANCH  50  51
HETATM   51  C   UNK N   1      32.107  15.675   3.963  0.00  0.00     0.008 C 
HETATM   52  C   UNK N   1      30.691  15.168   3.791  0.00  0.00     0.012 C 
HETATM   53  C   UNK N   1      32.249  16.894   3.067  0.00  0.00     0.012 C 
ENDBRANCH  50  51
BRANCH  50  54
HETATM   54  N   UNK N   1      33.724  16.014   5.892  0.00  0.00    -0.344 N 
HETATM   55  C   UNK N   1      34.470  14.783   5.835  0.00  0.00     0.153 C 
HETATM   56  C   UNK N   1      34.075  16.988   6.785  0.00  0.00     0.220 C 
HETATM   57  O   UNK N   1      33.628  18.121   6.659  0.00  0.00    -0.273 OA
BRANCH  56  58
HETATM   58  C   UNK N   1      34.629  16.619   8.125  0.00  0.00     0.103 C 
BRANCH  58  59
HETATM   59  C   UNK N   1      33.658  16.248   9.200  0.00  0.00     0.009 C 
BRANCH  59  60
HETATM   60  C   UNK N   1      34.005  14.846   9.626  0.00  0.00     0.002 C 
BRANCH  60  61
HETATM   61  C   UNK N   1      35.506  14.678   9.549  0.00  0.00     0.020 C 
BRANCH  61  62
HETATM   62  C   UNK N   1      36.192  15.008  10.870  0.00  0.00     0.135 C 
BRANCH  62  63
HETATM   63  N   UNK N   1      36.497  13.777  11.559  0.00  0.00    -0.281 N 
HETATM   64  C   UNK N   1      37.587  13.027  11.359  0.00  0.00     0.250 A 
HETATM   65  C   UNK N   1      37.567  11.865  12.257  0.00  0.00     0.080 A 
HETATM   66  O   UNK N   1      38.463  13.292  10.550  0.00  0.00    -0.268 OA
HETATM   67  C   UNK N   1      36.431  11.966  12.975  0.00  0.00     0.080 A 
HETATM   68  C   UNK N   1      35.762  13.192  12.513  0.00  0.00     0.250 A 
HETATM   69  O   UNK N   1      34.698  13.624  12.928  0.00  0.00    -0.268 OA
ENDBRANCH  62  63
ENDBRANCH  61  62
ENDBRANCH  60  61
ENDBRANCH  59  60
ENDBRANCH  58  59
ENDBRANCH  56  58
ENDBRANCH  50  54
ENDBRANCH  48  50
BRANCH  48  70
HETATM   70  O   UNK N   1      31.908  13.972   6.674  0.00  0.00    -0.348 OA
HETATM   71  H   UNK N   1      32.433  13.221   6.484  0.00  0.00     0.219 HD
ENDBRANCH  48  70
ENDBRANCH  43  47
ENDBRANCH  41  43
ENDBRANCH   1  39
TORSDOF 30
ENDMDL
MODEL 4
REMARK VINA RESULT:      -6.5      2.161      3.333
REMARK  30 active torsions:
REMARK  status: ('A' for Active; 'I' for Inactive)
REMARK    1  A    between atoms: C_32  and  C_12 
REMARK    2  A    between atoms: C_17  and  C_14 
REMARK    3  A    between atoms: C_18  and  C_14 
REMARK    4  A    between atoms: C_23  and  C_17 
REMARK    5  A    between atoms: C_26  and  C_18 
REMARK    6  A    between atoms: C_38  and  C_23 
REMARK    7  A    between atoms: N_57  and  C_26 
REMARK    8  A    between atoms: C_34  and  C_28 
REMARK    9  A    between atoms: C_35  and  C_28 
REMARK   10  A    between atoms: C_37  and  C_29 
REMARK   11  A    between atoms: C_41  and  C_29 
REMARK   12  A    between atoms: C_42  and  C_30 
REMARK   13  A    between atoms: C_43  and  C_31 
REMARK   14  A    between atoms: C_44  and  C_32 
REMARK   15  A    between atoms: C_45  and  C_33 
REMARK   16  A    between atoms: C_46  and  C_33 
REMARK   17  A    between atoms: C_49  and  C_35 
REMARK   18  A    between atoms: C_35  and  N_50 
REMARK   19  A    between atoms: C_36  and  C_45 
REMARK   20  A    between atoms: C_44  and  C_37 
REMARK   21  A    between atoms: C_37  and  O_67 
REMARK       I    between atoms: N_54  and  C_38 
REMARK       I    between atoms: N_56  and  C_41 
REMARK   22  A    between atoms: C_48  and  C_42 
REMARK   23  A    between atoms: C_42  and  N_52 
REMARK   24  A    between atoms: C_47  and  C_43 
REMARK   25  A    between atoms: C_43  and  N_54 
REMARK   26  A    between atoms: C_44  and  N_55 
REMARK   27  A    between atoms: O_68  and  C_45 
REMARK   28  A    between atoms: C_46  and  O_62 
REMARK   29  A    between atoms: C_47  and  O_63 
REMARK       I    between atoms: N_55  and  C_48 
REMARK   30  A    between atoms: O_66  and  C_49 
ROOT
HETATM    1  C   UNK N   1      27.789  17.457   4.465  0.00  0.00     0.119 C 
ENDROOT
BRANCH   1   2
HETATM    2  C   UNK N   1      27.459  18.946   4.151  0.00  0.00     0.006 C 
HETATM    3  C   UNK N   1      27.141  19.668   5.458  0.00  0.00     0.012 C 
BRANCH   2   4
HETATM    4  C   UNK N   1      26.226  19.043   3.247  0.00  0.00     0.002 C 
HETATM    5  C   UNK N   1      25.810  20.474   2.943  0.00  0.00     0.005 C 
ENDBRANCH   2   4
ENDBRANCH   1   2
BRANCH   1   6
HETATM    6  C   UNK N   1      27.689  16.464   3.242  0.00  0.00     0.152 C 
BRANCH   6   7
HETATM    7  C   UNK N   1      26.373  15.657   3.238  0.00  0.00     0.137 C 
BRANCH   7   8
HETATM    8  C   UNK N   1      26.412  14.423   4.064  0.00  0.00     0.222 C 
HETATM    9  N   UNK N   1      25.789  14.341   5.273  0.00  0.00    -0.345 N 
HETATM   10  C   UNK N   1      25.928  13.149   6.068  0.00  0.00     0.126 C 
HETATM   11  C   UNK N   1      24.990  15.387   5.897  0.00  0.00     0.116 C 
HETATM   12  C   UNK N   1      25.072  13.383   7.290  0.00  0.00     0.022 C 
HETATM   13  C   UNK N   1      24.877  14.886   7.340  0.00  0.00     0.029 C 
HETATM   14  O   UNK N   1      27.036  13.464   3.631  0.00  0.00    -0.273 OA
BRANCH  11  15
HETATM   15  C   UNK N   1      23.547  15.600   5.274  0.00  0.00     0.155 C 
BRANCH  15  16
HETATM   16  C   UNK N   1      22.761  16.899   5.680  0.00  0.00     0.087 C 
HETATM   17  C   UNK N   1      23.420  18.163   5.139  0.00  0.00     0.021 C 
BRANCH  16  18
HETATM   18  C   UNK N   1      21.248  16.933   5.434  0.00  0.00     0.118 C 
HETATM   19  N   UNK N   1      20.355  16.493   6.274  0.00  0.00    -0.359 N 
ATOM     20  HN  UNK N   1      19.382  16.563   5.977  1.00  0.00     0.162 HD
BRANCH  19  21
HETATM   21  C   UNK N   1      20.585  15.911   7.590  0.00  0.00     0.185 C 
BRANCH  21  22
HETATM   22  C   UNK N   1      20.304  14.401   7.532  0.00  0.00     0.074 C 
BRANCH  22  23
HETATM   23  C   UNK N   1      21.211  13.504   8.317  0.00  0.00    -0.056 A 
HETATM   24  C   UNK N   1      21.689  12.295   7.792  0.00  0.00     0.007 A 
HETATM   25  C   UNK N   1      22.538  11.489   8.558  0.00  0.00     0.001 A 
HETATM   26  C   UNK N   1      22.926  11.896   9.838  0.00  0.00     0.000 A 
HETATM   27  C   UNK N   1      22.462  13.109  10.357  0.00  0.00     0.001 A 
HETATM   28  C   UNK N   1      21.603  13.907   9.598  0.00  0.00     0.007 A 
ENDBRANCH  22  23
ENDBRANCH  21  22
BRANCH  21  29
HETATM   29  C   UNK N   1      19.763  16.617   8.642  0.00  0.00     0.163 C 
HETATM   30  O   UNK N   1      18.786  16.064   9.123  0.00  0.00    -0.648 OA
BRANCH  29  31
HETATM   31  O   UNK N   1      20.095  17.856   9.055  0.00  0.00    -0.775 OA
HETATM   32  H   UNK N   1      19.551  18.572   9.316  0.00  0.00     0.167 HD
ENDBRANCH  29  31
ENDBRANCH  21  29
ENDBRANCH  19  21
BRANCH  18  33
HETATM   33  O   UNK N   1      20.820  17.346   4.226  0.00  0.00    -0.349 OA
HETATM   34  H   UNK N   1      20.831  17.686   3.353  0.00  0.00     0.219 HD
ENDBRANCH  18  33
ENDBRANCH  16  18
ENDBRANCH  15  16
BRANCH  15  35
HETATM   35  O   UNK N   1      22.775  14.421   5.125  0.00  0.00    -0.388 OA
HETATM   36  C   UNK N   1      22.681  14.047   3.783  0.00  0.00     0.202 C 
ENDBRANCH  15  35
ENDBRANCH  11  15
ENDBRANCH   7   8
ENDBRANCH   6   7
BRANCH   6  37
HETATM   37  O   UNK N   1      28.805  15.596   3.076  0.00  0.00    -0.388 OA
HETATM   38  C   UNK N   1      28.940  15.188   1.734  0.00  0.00     0.202 C 
ENDBRANCH   6  37
ENDBRANCH   1   6
BRANCH   1  39
HETATM   39  N   UNK N   1      29.058  17.292   5.157  0.00  0.00    -0.347 N 
HETATM   40  C   UNK N   1      30.225  17.901   4.549  0.00  0.00     0.153 C 
HETATM   41  C   UNK N   1      29.148  16.706   6.400  0.00  0.00     0.243 C 
HETATM   42  O   UNK N   1      28.170  16.178   6.914  0.00  0.00    -0.271 OA
BRANCH  41  43
HETATM   43  C   UNK N   1      30.435  16.824   7.174  0.00  0.00     0.179 C 
BRANCH  43  44
HETATM   44  C   UNK N   1      30.409  17.710   8.431  0.00  0.00     0.009 C 
HETATM   45  C   UNK N   1      29.315  18.762   8.312  0.00  0.00     0.012 C 
HETATM   46  C   UNK N   1      30.105  16.902   9.691  0.00  0.00     0.012 C 
ENDBRANCH  43  44
BRANCH  43  47
HETATM   47  N   UNK N   1      31.023  15.494   7.287  0.00  0.00    -0.359 N 
HETATM   48  C   UNK N   1      32.079  14.926   6.779  0.00  0.00     0.136 C 
ATOM     49  HN  UNK N   1      30.490  14.874   7.898  1.00  0.00     0.162 HD
BRANCH  48  50
HETATM   50  C   UNK N   1      32.932  15.439   5.598  0.00  0.00     0.164 C 
BRANCH  50  51
HETATM   51  C   UNK N   1      33.066  14.502   4.389  0.00  0.00     0.008 C 
HETATM   52  C   UNK N   1      31.694  14.008   3.982  0.00  0.00     0.012 C 
HETATM   53  C   UNK N   1      33.639  15.244   3.192  0.00  0.00     0.012 C 
ENDBRANCH  50  51
BRANCH  50  54
HETATM   54  N   UNK N   1      34.182  15.906   6.189  0.00  0.00    -0.344 N 
HETATM   55  C   UNK N   1      35.143  14.953   6.682  0.00  0.00     0.153 C 
HETATM   56  C   UNK N   1      34.162  17.180   6.684  0.00  0.00     0.220 C 
HETATM   57  O   UNK N   1      33.542  18.055   6.093  0.00  0.00    -0.273 OA
BRANCH  56  58
HETATM   58  C   UNK N   1      34.504  17.437   8.118  0.00  0.00     0.103 C 
BRANCH  58  59
HETATM   59  C   UNK N   1      33.807  16.615   9.156  0.00  0.00     0.009 C 
BRANCH  59  60
HETATM   60  C   UNK N   1      34.839  16.281  10.201  0.00  0.00     0.002 C 
BRANCH  60  61
HETATM   61  C   UNK N   1      34.450  14.977  10.861  0.00  0.00     0.020 C 
BRANCH  61  62
HETATM   62  C   UNK N   1      35.657  14.083  11.125  0.00  0.00     0.135 C 
BRANCH  62  63
HETATM   63  N   UNK N   1      35.517  13.482  12.430  0.00  0.00    -0.281 N 
HETATM   64  C   UNK N   1      35.904  14.037  13.584  0.00  0.00     0.250 A 
HETATM   65  C   UNK N   1      35.577  13.143  14.704  0.00  0.00     0.080 A 
HETATM   66  O   UNK N   1      36.438  15.131  13.674  0.00  0.00    -0.268 OA
HETATM   67  C   UNK N   1      34.998  12.056  14.158  0.00  0.00     0.080 A 
HETATM   68  C   UNK N   1      34.970  12.291  12.706  0.00  0.00     0.250 A 
HETATM   69  O   UNK N   1      34.519  11.526  11.868  0.00  0.00    -0.268 OA
ENDBRANCH  62  63
ENDBRANCH  61  62
ENDBRANCH  60  61
ENDBRANCH  59  60
ENDBRANCH  58  59
ENDBRANCH  56  58
ENDBRANCH  50  54
ENDBRANCH  48  50
BRANCH  48  70
HETATM   70  O   UNK N   1      32.396  13.705   7.252  0.00  0.00    -0.348 OA
HETATM   71  H   UNK N   1      32.984  13.089   7.643  0.00  0.00     0.219 HD
ENDBRANCH  48  70
ENDBRANCH  43  47
ENDBRANCH  41  43
ENDBRANCH   1  39
TORSDOF 30
ENDMDL
MODEL 5
REMARK VINA RESULT:      -6.4      2.209      4.199
REMARK  30 active torsions:
REMARK  status: ('A' for Active; 'I' for Inactive)
REMARK    1  A    between atoms: C_32  and  C_12 
REMARK    2  A    between atoms: C_17  and  C_14 
REMARK    3  A    between atoms: C_18  and  C_14 
REMARK    4  A    between atoms: C_23  and  C_17 
REMARK    5  A    between atoms: C_26  and  C_18 
REMARK    6  A    between atoms: C_38  and  C_23 
REMARK    7  A    between atoms: N_57  and  C_26 
REMARK    8  A    between atoms: C_34  and  C_28 
REMARK    9  A    between atoms: C_35  and  C_28 
REMARK   10  A    between atoms: C_37  and  C_29 
REMARK   11  A    between atoms: C_41  and  C_29 
REMARK   12  A    between atoms: C_42  and  C_30 
REMARK   13  A    between atoms: C_43  and  C_31 
REMARK   14  A    between atoms: C_44  and  C_32 
REMARK   15  A    between atoms: C_45  and  C_33 
REMARK   16  A    between atoms: C_46  and  C_33 
REMARK   17  A    between atoms: C_49  and  C_35 
REMARK   18  A    between atoms: C_35  and  N_50 
REMARK   19  A    between atoms: C_36  and  C_45 
REMARK   20  A    between atoms: C_44  and  C_37 
REMARK   21  A    between atoms: C_37  and  O_67 
REMARK       I    between atoms: N_54  and  C_38 
REMARK       I    between atoms: N_56  and  C_41 
REMARK   22  A    between atoms: C_48  and  C_42 
REMARK   23  A    between atoms: C_42  and  N_52 
REMARK   24  A    between atoms: C_47  and  C_43 
REMARK   25  A    between atoms: C_43  and  N_54 
REMARK   26  A    between atoms: C_44  and  N_55 
REMARK   27  A    between atoms: O_68  and  C_45 
REMARK   28  A    between atoms: C_46  and  O_62 
REMARK   29  A    between atoms: C_47  and  O_63 
REMARK       I    between atoms: N_55  and  C_48 
REMARK   30  A    between atoms: O_66  and  C_49 
ROOT
HETATM    1  C   UNK N   1      27.853  18.031   4.943  0.00  0.00     0.119 C 
ENDROOT
BRANCH   1   2
HETATM    2  C   UNK N   1      27.837  19.557   4.634  0.00  0.00     0.006 C 
HETATM    3  C   UNK N   1      27.466  20.315   5.906  0.00  0.00     0.012 C 
BRANCH   2   4
HETATM    4  C   UNK N   1      26.782  19.878   3.571  0.00  0.00     0.002 C 
HETATM    5  C   UNK N   1      25.534  20.539   4.138  0.00  0.00     0.005 C 
ENDBRANCH   2   4
ENDBRANCH   1   2
BRANCH   1   6
HETATM    6  C   UNK N   1      27.223  17.104   3.832  0.00  0.00     0.152 C 
BRANCH   6   7
HETATM    7  C   UNK N   1      26.200  16.100   4.407  0.00  0.00     0.137 C 
BRANCH   7   8
HETATM    8  C   UNK N   1      24.842  16.206   3.812  0.00  0.00     0.222 C 
HETATM    9  N   UNK N   1      24.173  15.118   3.337  0.00  0.00    -0.345 N 
HETATM   10  C   UNK N   1      22.895  15.289   2.696  0.00  0.00     0.126 C 
HETATM   11  C   UNK N   1      24.645  13.740   3.374  0.00  0.00     0.116 C 
HETATM   12  C   UNK N   1      22.430  13.894   2.357  0.00  0.00     0.022 C 
HETATM   13  C   UNK N   1      23.688  13.049   2.398  0.00  0.00     0.029 C 
HETATM   14  O   UNK N   1      24.330  17.315   3.749  0.00  0.00    -0.273 OA
BRANCH  11  15
HETATM   15  C   UNK N   1      24.581  13.040   4.795  0.00  0.00     0.155 C 
BRANCH  15  16
HETATM   16  C   UNK N   1      23.351  13.366   5.717  0.00  0.00     0.087 C 
HETATM   17  C   UNK N   1      22.784  12.118   6.384  0.00  0.00     0.021 C 
BRANCH  16  18
HETATM   18  C   UNK N   1      23.493  14.503   6.735  0.00  0.00     0.118 C 
HETATM   19  N   UNK N   1      22.660  15.499   6.848  0.00  0.00    -0.359 N 
ATOM     20  HN  UNK N   1      22.883  16.195   7.558  1.00  0.00     0.162 HD
BRANCH  19  21
HETATM   21  C   UNK N   1      21.446  15.733   6.076  0.00  0.00     0.185 C 
BRANCH  21  22
HETATM   22  C   UNK N   1      21.162  17.243   6.027  0.00  0.00     0.074 C 
BRANCH  22  23
HETATM   23  C   UNK N   1      20.900  17.848   4.681  0.00  0.00    -0.056 A 
HETATM   24  C   UNK N   1      20.066  17.225   3.742  0.00  0.00     0.007 A 
HETATM   25  C   UNK N   1      19.845  17.827   2.499  0.00  0.00     0.001 A 
HETATM   26  C   UNK N   1      20.438  19.056   2.199  0.00  0.00     0.000 A 
HETATM   27  C   UNK N   1      21.258  19.685   3.140  0.00  0.00     0.001 A 
HETATM   28  C   UNK N   1      21.491  19.079   4.377  0.00  0.00     0.007 A 
ENDBRANCH  22  23
ENDBRANCH  21  22
BRANCH  21  29
HETATM   29  C   UNK N   1      20.291  14.940   6.637  0.00  0.00     0.163 C 
HETATM   30  O   UNK N   1      19.985  15.059   7.813  0.00  0.00    -0.648 OA
BRANCH  29  31
HETATM   31  O   UNK N   1      19.592  14.098   5.852  0.00  0.00    -0.775 OA
HETATM   32  H   UNK N   1      19.005  14.278   5.144  0.00  0.00     0.167 HD
ENDBRANCH  29  31
ENDBRANCH  21  29
ENDBRANCH  19  21
BRANCH  18  33
HETATM   33  O   UNK N   1      24.608  14.532   7.489  0.00  0.00    -0.349 OA
HETATM   34  H   UNK N   1      25.400  14.256   7.906  0.00  0.00     0.219 HD
ENDBRANCH  18  33
ENDBRANCH  16  18
ENDBRANCH  15  16
BRANCH  15  35
HETATM   35  O   UNK N   1      25.829  12.886   5.448  0.00  0.00    -0.388 OA
HETATM   36  C   UNK N   1      26.646  11.982   4.767  0.00  0.00     0.202 C 
ENDBRANCH  15  35
ENDBRANCH  11  15
ENDBRANCH   7   8
ENDBRANCH   6   7
BRANCH   6  37
HETATM   37  O   UNK N   1      28.163  16.433   3.000  0.00  0.00    -0.388 OA
HETATM   38  C   UNK N   1      27.999  15.034   3.069  0.00  0.00     0.202 C 
ENDBRANCH   6  37
ENDBRANCH   1   6
BRANCH   1  39
HETATM   39  N   UNK N   1      29.168  17.545   5.331  0.00  0.00    -0.347 N 
HETATM   40  C   UNK N   1      30.294  17.978   4.527  0.00  0.00     0.153 C 
HETATM   41  C   UNK N   1      29.375  16.818   6.482  0.00  0.00     0.243 C 
HETATM   42  O   UNK N   1      28.429  16.438   7.160  0.00  0.00    -0.271 OA
BRANCH  41  43
HETATM   43  C   UNK N   1      30.785  16.597   6.965  0.00  0.00     0.179 C 
BRANCH  43  44
HETATM   44  C   UNK N   1      31.160  17.219   8.320  0.00  0.00     0.009 C 
HETATM   45  C   UNK N   1      30.174  18.321   8.685  0.00  0.00     0.012 C 
HETATM   46  C   UNK N   1      31.110  16.194   9.451  0.00  0.00     0.012 C 
ENDBRANCH  43  44
BRANCH  43  47
HETATM   47  N   UNK N   1      31.130  15.198   6.737  0.00  0.00    -0.359 N 
HETATM   48  C   UNK N   1      32.088  14.596   6.091  0.00  0.00     0.136 C 
ATOM     49  HN  UNK N   1      30.478  14.550   7.179  1.00  0.00     0.162 HD
BRANCH  48  50
HETATM   50  C   UNK N   1      33.056  15.227   5.067  0.00  0.00     0.164 C 
BRANCH  50  51
HETATM   51  C   UNK N   1      33.039  14.635   3.650  0.00  0.00     0.008 C 
HETATM   52  C   UNK N   1      31.612  14.573   3.149  0.00  0.00     0.012 C 
HETATM   53  C   UNK N   1      33.806  15.523   2.684  0.00  0.00     0.012 C 
ENDBRANCH  50  51
BRANCH  50  54
HETATM   54  N   UNK N   1      34.356  15.270   5.727  0.00  0.00    -0.344 N 
HETATM   55  C   UNK N   1      35.114  14.057   5.901  0.00  0.00     0.153 C 
HETATM   56  C   UNK N   1      34.560  16.332   6.564  0.00  0.00     0.220 C 
HETATM   57  O   UNK N   1      34.126  17.437   6.264  0.00  0.00    -0.273 OA
BRANCH  56  58
HETATM   58  C   UNK N   1      34.909  16.103   8.001  0.00  0.00     0.103 C 
BRANCH  58  59
HETATM   59  C   UNK N   1      34.632  17.210   8.968  0.00  0.00     0.009 C 
BRANCH  59  60
HETATM   60  C   UNK N   1      35.292  16.822  10.264  0.00  0.00     0.002 C 
BRANCH  60  61
HETATM   61  C   UNK N   1      35.418  15.316  10.307  0.00  0.00     0.020 C 
BRANCH  61  62
HETATM   62  C   UNK N   1      34.537  14.693  11.385  0.00  0.00     0.135 C 
BRANCH  62  63
HETATM   63  N   UNK N   1      35.299  13.688  12.088  0.00  0.00    -0.281 N 
HETATM   64  C   UNK N   1      35.299  12.380  11.809  0.00  0.00     0.250 A 
HETATM   65  C   UNK N   1      36.212  11.674  12.718  0.00  0.00     0.080 A 
HETATM   66  O   UNK N   1      34.638  11.868  10.918  0.00  0.00    -0.268 OA
HETATM   67  C   UNK N   1      36.731  12.613  13.532  0.00  0.00     0.080 A 
HETATM   68  C   UNK N   1      36.134  13.892  13.114  0.00  0.00     0.250 A 
HETATM   69  O   UNK N   1      36.358  14.981  13.617  0.00  0.00    -0.268 OA
ENDBRANCH  62  63
ENDBRANCH  61  62
ENDBRANCH  60  61
ENDBRANCH  59  60
ENDBRANCH  58  59
ENDBRANCH  56  58
ENDBRANCH  50  54
ENDBRANCH  48  50
BRANCH  48  70
HETATM   70  O   UNK N   1      32.174  13.260   6.242  0.00  0.00    -0.348 OA
HETATM   71  H   UNK N   1      32.561  12.425   6.070  0.00  0.00     0.219 HD
ENDBRANCH  48  70
ENDBRANCH  43  47
ENDBRANCH  41  43
ENDBRANCH   1  39
TORSDOF 30
ENDMDL
MODEL 6
REMARK VINA RESULT:      -6.4      2.328      4.054
REMARK  30 active torsions:
REMARK  status: ('A' for Active; 'I' for Inactive)
REMARK    1  A    between atoms: C_32  and  C_12 
REMARK    2  A    between atoms: C_17  and  C_14 
REMARK    3  A    between atoms: C_18  and  C_14 
REMARK    4  A    between atoms: C_23  and  C_17 
REMARK    5  A    between atoms: C_26  and  C_18 
REMARK    6  A    between atoms: C_38  and  C_23 
REMARK    7  A    between atoms: N_57  and  C_26 
REMARK    8  A    between atoms: C_34  and  C_28 
REMARK    9  A    between atoms: C_35  and  C_28 
REMARK   10  A    between atoms: C_37  and  C_29 
REMARK   11  A    between atoms: C_41  and  C_29 
REMARK   12  A    between atoms: C_42  and  C_30 
REMARK   13  A    between atoms: C_43  and  C_31 
REMARK   14  A    between atoms: C_44  and  C_32 
REMARK   15  A    between atoms: C_45  and  C_33 
REMARK   16  A    between atoms: C_46  and  C_33 
REMARK   17  A    between atoms: C_49  and  C_35 
REMARK   18  A    between atoms: C_35  and  N_50 
REMARK   19  A    between atoms: C_36  and  C_45 
REMARK   20  A    between atoms: C_44  and  C_37 
REMARK   21  A    between atoms: C_37  and  O_67 
REMARK       I    between atoms: N_54  and  C_38 
REMARK       I    between atoms: N_56  and  C_41 
REMARK   22  A    between atoms: C_48  and  C_42 
REMARK   23  A    between atoms: C_42  and  N_52 
REMARK   24  A    between atoms: C_47  and  C_43 
REMARK   25  A    between atoms: C_43  and  N_54 
REMARK   26  A    between atoms: C_44  and  N_55 
REMARK   27  A    between atoms: O_68  and  C_45 
REMARK   28  A    between atoms: C_46  and  O_62 
REMARK   29  A    between atoms: C_47  and  O_63 
REMARK       I    between atoms: N_55  and  C_48 
REMARK   30  A    between atoms: O_66  and  C_49 
ROOT
HETATM    1  C   UNK N   1      26.874  18.085   5.330  0.00  0.00     0.119 C 
ENDROOT
BRANCH   1   2
HETATM    2  C   UNK N   1      26.826  19.504   4.693  0.00  0.00     0.006 C 
HETATM    3  C   UNK N   1      26.153  20.463   5.671  0.00  0.00     0.012 C 
BRANCH   2   4
HETATM    4  C   UNK N   1      25.996  19.486   3.405  0.00  0.00     0.002 C 
HETATM    5  C   UNK N   1      24.782  20.401   3.456  0.00  0.00     0.005 C 
ENDBRANCH   2   4
ENDBRANCH   1   2
BRANCH   1   6
HETATM    6  C   UNK N   1      26.092  16.959   4.548  0.00  0.00     0.152 C 
BRANCH   6   7
HETATM    7  C   UNK N   1      24.881  16.419   5.339  0.00  0.00     0.137 C 
BRANCH   7   8
HETATM    8  C   UNK N   1      23.577  17.001   4.930  0.00  0.00     0.222 C 
HETATM    9  N   UNK N   1      22.787  16.416   3.987  0.00  0.00    -0.345 N 
HETATM   10  C   UNK N   1      21.572  17.066   3.570  0.00  0.00     0.126 C 
HETATM   11  C   UNK N   1      23.065  15.165   3.294  0.00  0.00     0.116 C 
HETATM   12  C   UNK N   1      20.936  16.122   2.577  0.00  0.00     0.022 C 
HETATM   13  C   UNK N   1      22.065  15.212   2.134  0.00  0.00     0.029 C 
HETATM   14  O   UNK N   1      23.222  18.043   5.465  0.00  0.00    -0.273 OA
BRANCH  11  15
HETATM   15  C   UNK N   1      22.848  13.850   4.153  0.00  0.00     0.155 C 
BRANCH  15  16
HETATM   16  C   UNK N   1      23.971  12.752   4.105  0.00  0.00     0.087 C 
HETATM   17  C   UNK N   1      24.725  12.758   2.780  0.00  0.00     0.021 C 
BRANCH  16  18
HETATM   18  C   UNK N   1      24.952  12.670   5.281  0.00  0.00     0.118 C 
HETATM   19  N   UNK N   1      24.640  12.240   6.471  0.00  0.00    -0.359 N 
ATOM     20  HN  UNK N   1      25.386  12.253   7.165  1.00  0.00     0.162 HD
BRANCH  19  21
HETATM   21  C   UNK N   1      23.348  11.742   6.924  0.00  0.00     0.185 C 
BRANCH  21  22
HETATM   22  C   UNK N   1      23.065  12.284   8.335  0.00  0.00     0.074 C 
BRANCH  22  23
HETATM   23  C   UNK N   1      22.131  13.450   8.447  0.00  0.00    -0.056 A 
HETATM   24  C   UNK N   1      22.215  14.548   7.579  0.00  0.00     0.007 A 
HETATM   25  C   UNK N   1      21.320  15.615   7.716  0.00  0.00     0.001 A 
HETATM   26  C   UNK N   1      20.331  15.579   8.703  0.00  0.00     0.000 A 
HETATM   27  C   UNK N   1      20.237  14.478   9.560  0.00  0.00     0.001 A 
HETATM   28  C   UNK N   1      21.139  13.419   9.433  0.00  0.00     0.007 A 
ENDBRANCH  22  23
ENDBRANCH  21  22
BRANCH  21  29
HETATM   29  C   UNK N   1      23.298  10.235   6.857  0.00  0.00     0.163 C 
HETATM   30  O   UNK N   1      24.025   9.570   7.579  0.00  0.00    -0.648 OA
BRANCH  29  31
HETATM   31  O   UNK N   1      22.459   9.614   6.006  0.00  0.00    -0.775 OA
HETATM   32  H   UNK N   1      22.638   9.149   5.212  0.00  0.00     0.167 HD
ENDBRANCH  29  31
ENDBRANCH  21  29
ENDBRANCH  19  21
BRANCH  18  33
HETATM   33  O   UNK N   1      26.187  13.176   5.102  0.00  0.00    -0.349 OA
HETATM   34  H   UNK N   1      26.873  13.768   4.866  0.00  0.00     0.219 HD
ENDBRANCH  18  33
ENDBRANCH  16  18
ENDBRANCH  15  16
BRANCH  15  35
HETATM   35  O   UNK N   1      21.513  13.379   4.207  0.00  0.00    -0.388 OA
HETATM   36  C   UNK N   1      21.428  12.055   3.776  0.00  0.00     0.202 C 
ENDBRANCH  15  35
ENDBRANCH  11  15
ENDBRANCH   7   8
ENDBRANCH   6   7
BRANCH   6  37
HETATM   37  O   UNK N   1      26.894  15.884   4.073  0.00  0.00    -0.388 OA
HETATM   38  C   UNK N   1      26.856  15.801   2.666  0.00  0.00     0.202 C 
ENDBRANCH   6  37
ENDBRANCH   1   6
BRANCH   1  39
HETATM   39  N   UNK N   1      28.227  17.648   5.640  0.00  0.00    -0.347 N 
HETATM   40  C   UNK N   1      29.290  18.137   4.784  0.00  0.00     0.153 C 
HETATM   41  C   UNK N   1      28.525  16.916   6.767  0.00  0.00     0.243 C 
HETATM   42  O   UNK N   1      27.632  16.488   7.489  0.00  0.00    -0.271 OA
BRANCH  41  43
HETATM   43  C   UNK N   1      29.967  16.746   7.170  0.00  0.00     0.179 C 
BRANCH  43  44
HETATM   44  C   UNK N   1      30.340  17.163   8.603  0.00  0.00     0.009 C 
HETATM   45  C   UNK N   1      31.219  16.101   9.249  0.00  0.00     0.012 C 
HETATM   46  C   UNK N   1      31.134  18.467   8.629  0.00  0.00     0.012 C 
ENDBRANCH  43  44
BRANCH  43  47
HETATM   47  N   UNK N   1      30.421  15.443   6.698  0.00  0.00    -0.359 N 
HETATM   48  C   UNK N   1      31.395  15.049   5.928  0.00  0.00     0.136 C 
ATOM     49  HN  UNK N   1      29.851  14.672   7.046  1.00  0.00     0.162 HD
BRANCH  48  50
HETATM   50  C   UNK N   1      32.252  15.929   4.992  0.00  0.00     0.164 C 
BRANCH  50  51
HETATM   51  C   UNK N   1      32.056  15.722   3.484  0.00  0.00     0.008 C 
HETATM   52  C   UNK N   1      30.626  15.302   3.216  0.00  0.00     0.012 C 
HETATM   53  C   UNK N   1      32.282  17.020   2.726  0.00  0.00     0.012 C 
ENDBRANCH  50  51
BRANCH  50  54
HETATM   54  N   UNK N   1      33.621  15.809   5.482  0.00  0.00    -0.344 N 
HETATM   55  C   UNK N   1      34.305  14.544   5.402  0.00  0.00     0.153 C 
HETATM   56  C   UNK N   1      33.998  16.735   6.416  0.00  0.00     0.220 C 
HETATM   57  O   UNK N   1      33.612  17.892   6.317  0.00  0.00    -0.273 OA
BRANCH  56  58
HETATM   58  C   UNK N   1      34.498  16.293   7.756  0.00  0.00     0.103 C 
BRANCH  58  59
HETATM   59  C   UNK N   1      34.621  17.330   8.827  0.00  0.00     0.009 C 
BRANCH  59  60
HETATM   60  C   UNK N   1      35.026  16.603  10.081  0.00  0.00     0.002 C 
BRANCH  60  61
HETATM   61  C   UNK N   1      35.712  15.313   9.690  0.00  0.00     0.020 C 
BRANCH  61  62
HETATM   62  C   UNK N   1      36.584  14.760  10.812  0.00  0.00     0.135 C 
BRANCH  62  63
HETATM   63  N   UNK N   1      36.152  13.419  11.123  0.00  0.00    -0.281 N 
HETATM   64  C   UNK N   1      36.607  12.303  10.540  0.00  0.00     0.250 A 
HETATM   65  C   UNK N   1      35.955  11.127  11.131  0.00  0.00     0.080 A 
HETATM   66  O   UNK N   1      37.448  12.286   9.655  0.00  0.00    -0.268 OA
HETATM   67  C   UNK N   1      35.107  11.599  12.066  0.00  0.00     0.080 A 
HETATM   68  C   UNK N   1      35.247  13.064  12.043  0.00  0.00     0.250 A 
HETATM   69  O   UNK N   1      34.638  13.849  12.753  0.00  0.00    -0.268 OA
ENDBRANCH  62  63
ENDBRANCH  61  62
ENDBRANCH  60  61
ENDBRANCH  59  60
ENDBRANCH  58  59
ENDBRANCH  56  58
ENDBRANCH  50  54
ENDBRANCH  48  50
BRANCH  48  70
HETATM   70  O   UNK N   1      31.605  13.721   5.848  0.00  0.00    -0.348 OA
HETATM   71  H   UNK N   1      32.123  12.970   5.636  0.00  0.00     0.219 HD
ENDBRANCH  48  70
ENDBRANCH  43  47
ENDBRANCH  41  43
ENDBRANCH   1  39
TORSDOF 30
ENDMDL
MODEL 7
REMARK VINA RESULT:      -6.4      1.957      3.072
REMARK  30 active torsions:
REMARK  status: ('A' for Active; 'I' for Inactive)
REMARK    1  A    between atoms: C_32  and  C_12 
REMARK    2  A    between atoms: C_17  and  C_14 
REMARK    3  A    between atoms: C_18  and  C_14 
REMARK    4  A    between atoms: C_23  and  C_17 
REMARK    5  A    between atoms: C_26  and  C_18 
REMARK    6  A    between atoms: C_38  and  C_23 
REMARK    7  A    between atoms: N_57  and  C_26 
REMARK    8  A    between atoms: C_34  and  C_28 
REMARK    9  A    between atoms: C_35  and  C_28 
REMARK   10  A    between atoms: C_37  and  C_29 
REMARK   11  A    between atoms: C_41  and  C_29 
REMARK   12  A    between atoms: C_42  and  C_30 
REMARK   13  A    between atoms: C_43  and  C_31 
REMARK   14  A    between atoms: C_44  and  C_32 
REMARK   15  A    between atoms: C_45  and  C_33 
REMARK   16  A    between atoms: C_46  and  C_33 
REMARK   17  A    between atoms: C_49  and  C_35 
REMARK   18  A    between atoms: C_35  and  N_50 
REMARK   19  A    between atoms: C_36  and  C_45 
REMARK   20  A    between atoms: C_44  and  C_37 
REMARK   21  A    between atoms: C_37  and  O_67 
REMARK       I    between atoms: N_54  and  C_38 
REMARK       I    between atoms: N_56  and  C_41 
REMARK   22  A    between atoms: C_48  and  C_42 
REMARK   23  A    between atoms: C_42  and  N_52 
REMARK   24  A    between atoms: C_47  and  C_43 
REMARK   25  A    between atoms: C_43  and  N_54 
REMARK   26  A    between atoms: C_44  and  N_55 
REMARK   27  A    between atoms: O_68  and  C_45 
REMARK   28  A    between atoms: C_46  and  O_62 
REMARK   29  A    between atoms: C_47  and  O_63 
REMARK       I    between atoms: N_55  and  C_48 
REMARK   30  A    between atoms: O_66  and  C_49 
ROOT
HETATM    1  C   UNK N   1      26.455  17.209   4.671  0.00  0.00     0.119 C 
ENDROOT
BRANCH   1   2
HETATM    2  C   UNK N   1      26.089  18.573   4.016  0.00  0.00     0.006 C 
HETATM    3  C   UNK N   1      26.466  19.699   4.976  0.00  0.00     0.012 C 
BRANCH   2   4
HETATM    4  C   UNK N   1      24.581  18.658   3.760  0.00  0.00     0.002 C 
HETATM    5  C   UNK N   1      24.122  20.035   3.302  0.00  0.00     0.005 C 
ENDBRANCH   2   4
ENDBRANCH   1   2
BRANCH   1   6
HETATM    6  C   UNK N   1      26.048  15.926   3.846  0.00  0.00     0.152 C 
BRANCH   6   7
HETATM    7  C   UNK N   1      24.517  15.749   3.740  0.00  0.00     0.137 C 
BRANCH   7   8
HETATM    8  C   UNK N   1      24.057  15.191   2.443  0.00  0.00     0.222 C 
HETATM    9  N   UNK N   1      22.793  14.713   2.267  0.00  0.00    -0.345 N 
HETATM   10  C   UNK N   1      22.425  14.110   1.013  0.00  0.00     0.126 C 
HETATM   11  C   UNK N   1      21.733  14.713   3.266  0.00  0.00     0.116 C 
HETATM   12  C   UNK N   1      20.964  13.756   1.155  0.00  0.00     0.022 C 
HETATM   13  C   UNK N   1      20.714  13.749   2.651  0.00  0.00     0.029 C 
HETATM   14  O   UNK N   1      24.856  15.163   1.516  0.00  0.00    -0.273 OA
BRANCH  11  15
HETATM   15  C   UNK N   1      21.059  16.122   3.542  0.00  0.00     0.155 C 
BRANCH  15  16
HETATM   16  C   UNK N   1      20.808  16.531   5.039  0.00  0.00     0.087 C 
HETATM   17  C   UNK N   1      21.281  17.949   5.335  0.00  0.00     0.021 C 
BRANCH  16  18
HETATM   18  C   UNK N   1      19.411  16.296   5.626  0.00  0.00     0.118 C 
HETATM   19  N   UNK N   1      19.132  16.331   6.898  0.00  0.00    -0.359 N 
ATOM     20  HN  UNK N   1      18.163  16.141   7.152  1.00  0.00     0.162 HD
BRANCH  19  21
HETATM   21  C   UNK N   1      20.044  16.607   8.000  0.00  0.00     0.185 C 
BRANCH  21  22
HETATM   22  C   UNK N   1      20.075  15.397   8.947  0.00  0.00     0.074 C 
BRANCH  22  23
HETATM   23  C   UNK N   1      21.281  14.509   8.886  0.00  0.00    -0.056 A 
HETATM   24  C   UNK N   1      21.565  13.580   9.896  0.00  0.00     0.007 A 
HETATM   25  C   UNK N   1      22.699  12.767   9.797  0.00  0.00     0.001 A 
HETATM   26  C   UNK N   1      23.539  12.867   8.684  0.00  0.00     0.000 A 
HETATM   27  C   UNK N   1      23.248  13.783   7.669  0.00  0.00     0.001 A 
HETATM   28  C   UNK N   1      22.123  14.604   7.773  0.00  0.00     0.007 A 
ENDBRANCH  22  23
ENDBRANCH  21  22
BRANCH  21  29
HETATM   29  C   UNK N   1      19.665  17.889   8.703  0.00  0.00     0.163 C 
HETATM   30  O   UNK N   1      18.749  17.891   9.511  0.00  0.00    -0.648 OA
BRANCH  29  31
HETATM   31  O   UNK N   1      20.329  19.033   8.448  0.00  0.00    -0.775 OA
HETATM   32  H   UNK N   1      20.026  19.920   8.449  0.00  0.00     0.167 HD
ENDBRANCH  29  31
ENDBRANCH  21  29
ENDBRANCH  19  21
BRANCH  18  33
HETATM   33  O   UNK N   1      18.431  15.925   4.780  0.00  0.00    -0.349 OA
HETATM   34  H   UNK N   1      17.667  15.498   4.446  0.00  0.00     0.219 HD
ENDBRANCH  18  33
ENDBRANCH  16  18
ENDBRANCH  15  16
BRANCH  15  35
HETATM   35  O   UNK N   1      20.063  16.506   2.611  0.00  0.00    -0.388 OA
HETATM   36  C   UNK N   1      20.496  17.570   1.820  0.00  0.00     0.202 C 
ENDBRANCH  15  35
ENDBRANCH  11  15
ENDBRANCH   7   8
ENDBRANCH   6   7
BRANCH   6  37
HETATM   37  O   UNK N   1      26.659  14.714   4.274  0.00  0.00    -0.388 OA
HETATM   38  C   UNK N   1      27.527  14.203   3.287  0.00  0.00     0.202 C 
ENDBRANCH   6  37
ENDBRANCH   1   6
BRANCH   1  39
HETATM   39  N   UNK N   1      27.848  17.133   5.083  0.00  0.00    -0.347 N 
HETATM   40  C   UNK N   1      28.841  17.602   4.136  0.00  0.00     0.153 C 
HETATM   41  C   UNK N   1      28.221  16.764   6.355  0.00  0.00     0.243 C 
HETATM   42  O   UNK N   1      27.390  16.354   7.156  0.00  0.00    -0.271 OA
BRANCH  41  43
HETATM   43  C   UNK N   1      29.647  16.981   6.793  0.00  0.00     0.179 C 
BRANCH  43  44
HETATM   44  C   UNK N   1      29.865  17.878   8.023  0.00  0.00     0.009 C 
HETATM   45  C   UNK N   1      28.759  18.920   8.118  0.00  0.00     0.012 C 
HETATM   46  C   UNK N   1      29.829  17.079   9.324  0.00  0.00     0.012 C 
ENDBRANCH  43  44
BRANCH  43  47
HETATM   47  N   UNK N   1      30.336  15.697   6.753  0.00  0.00    -0.359 N 
HETATM   48  C   UNK N   1      31.499  15.308   6.313  0.00  0.00     0.136 C 
ATOM     49  HN  UNK N   1      29.788  14.937   7.157  1.00  0.00     0.162 HD
BRANCH  48  50
HETATM   50  C   UNK N   1      32.449  16.092   5.382  0.00  0.00     0.164 C 
BRANCH  50  51
HETATM   51  C   UNK N   1      32.467  15.671   3.906  0.00  0.00     0.008 C 
HETATM   52  C   UNK N   1      31.235  14.843   3.604  0.00  0.00     0.012 C 
HETATM   53  C   UNK N   1      32.412  16.887   2.996  0.00  0.00     0.012 C 
ENDBRANCH  50  51
BRANCH  50  54
HETATM   54  N   UNK N   1      33.741  16.107   6.059  0.00  0.00    -0.344 N 
HETATM   55  C   UNK N   1      34.643  14.994   5.910  0.00  0.00     0.153 C 
HETATM   56  C   UNK N   1      33.821  16.913   7.161  0.00  0.00     0.220 C 
HETATM   57  O   UNK N   1      33.252  17.997   7.166  0.00  0.00    -0.273 OA
BRANCH  56  58
HETATM   58  C   UNK N   1      34.212  16.340   8.487  0.00  0.00     0.103 C 
BRANCH  58  59
HETATM   59  C   UNK N   1      33.169  15.591   9.254  0.00  0.00     0.009 C 
BRANCH  59  60
HETATM   60  C   UNK N   1      33.849  15.043  10.479  0.00  0.00     0.002 C 
BRANCH  60  61
HETATM   61  C   UNK N   1      35.269  14.669  10.115  0.00  0.00     0.020 C 
BRANCH  61  62
HETATM   62  C   UNK N   1      36.246  14.935  11.255  0.00  0.00     0.135 C 
BRANCH  62  63
HETATM   63  N   UNK N   1      36.598  13.679  11.872  0.00  0.00    -0.281 N 
HETATM   64  C   UNK N   1      35.959  13.116  12.904  0.00  0.00     0.250 A 
HETATM   65  C   UNK N   1      36.587  11.831  13.241  0.00  0.00     0.080 A 
HETATM   66  O   UNK N   1      34.993  13.609  13.464  0.00  0.00    -0.268 OA
HETATM   67  C   UNK N   1      37.609  11.675  12.376  0.00  0.00     0.080 A 
HETATM   68  C   UNK N   1      37.600  12.866  11.512  0.00  0.00     0.250 A 
HETATM   69  O   UNK N   1      38.380  13.091  10.601  0.00  0.00    -0.268 OA
ENDBRANCH  62  63
ENDBRANCH  61  62
ENDBRANCH  60  61
ENDBRANCH  59  60
ENDBRANCH  58  59
ENDBRANCH  56  58
ENDBRANCH  50  54
ENDBRANCH  48  50
BRANCH  48  70
HETATM   70  O   UNK N   1      31.864  14.043   6.603  0.00  0.00    -0.348 OA
HETATM   71  H   UNK N   1      32.231  13.390   7.164  0.00  0.00     0.219 HD
ENDBRANCH  48  70
ENDBRANCH  43  47
ENDBRANCH  41  43
ENDBRANCH   1  39
TORSDOF 30
ENDMDL
MODEL 8
REMARK VINA RESULT:      -6.3      2.196      3.467
REMARK  30 active torsions:
REMARK  status: ('A' for Active; 'I' for Inactive)
REMARK    1  A    between atoms: C_32  and  C_12 
REMARK    2  A    between atoms: C_17  and  C_14 
REMARK    3  A    between atoms: C_18  and  C_14 
REMARK    4  A    between atoms: C_23  and  C_17 
REMARK    5  A    between atoms: C_26  and  C_18 
REMARK    6  A    between atoms: C_38  and  C_23 
REMARK    7  A    between atoms: N_57  and  C_26 
REMARK    8  A    between atoms: C_34  and  C_28 
REMARK    9  A    between atoms: C_35  and  C_28 
REMARK   10  A    between atoms: C_37  and  C_29 
REMARK   11  A    between atoms: C_41  and  C_29 
REMARK   12  A    between atoms: C_42  and  C_30 
REMARK   13  A    between atoms: C_43  and  C_31 
REMARK   14  A    between atoms: C_44  and  C_32 
REMARK   15  A    between atoms: C_45  and  C_33 
REMARK   16  A    between atoms: C_46  and  C_33 
REMARK   17  A    between atoms: C_49  and  C_35 
REMARK   18  A    between atoms: C_35  and  N_50 
REMARK   19  A    between atoms: C_36  and  C_45 
REMARK   20  A    between atoms: C_44  and  C_37 
REMARK   21  A    between atoms: C_37  and  O_67 
REMARK       I    between atoms: N_54  and  C_38 
REMARK       I    between atoms: N_56  and  C_41 
REMARK   22  A    between atoms: C_48  and  C_42 
REMARK   23  A    between atoms: C_42  and  N_52 
REMARK   24  A    between atoms: C_47  and  C_43 
REMARK   25  A    between atoms: C_43  and  N_54 
REMARK   26  A    between atoms: C_44  and  N_55 
REMARK   27  A    between atoms: O_68  and  C_45 
REMARK   28  A    between atoms: C_46  and  O_62 
REMARK   29  A    between atoms: C_47  and  O_63 
REMARK       I    between atoms: N_55  and  C_48 
REMARK   30  A    between atoms: O_66  and  C_49 
ROOT
HETATM    1  C   UNK N   1      27.076  17.554   4.406  0.00  0.00     0.119 C 
ENDROOT
BRANCH   1   2
HETATM    2  C   UNK N   1      26.736  19.028   4.036  0.00  0.00     0.006 C 
HETATM    3  C   UNK N   1      26.396  19.792   5.313  0.00  0.00     0.012 C 
BRANCH   2   4
HETATM    4  C   UNK N   1      25.513  19.082   3.115  0.00  0.00     0.002 C 
HETATM    5  C   UNK N   1      25.095  20.498   2.748  0.00  0.00     0.005 C 
ENDBRANCH   2   4
ENDBRANCH   1   2
BRANCH   1   6
HETATM    6  C   UNK N   1      26.880  16.499   3.249  0.00  0.00     0.152 C 
BRANCH   6   7
HETATM    7  C   UNK N   1      25.634  15.611   3.459  0.00  0.00     0.137 C 
BRANCH   7   8
HETATM    8  C   UNK N   1      24.897  15.290   2.210  0.00  0.00     0.222 C 
HETATM    9  N   UNK N   1      23.643  14.757   2.226  0.00  0.00    -0.345 N 
HETATM   10  C   UNK N   1      23.008  14.390   0.987  0.00  0.00     0.126 C 
HETATM   11  C   UNK N   1      22.850  14.472   3.414  0.00  0.00     0.116 C 
HETATM   12  C   UNK N   1      21.633  13.899   1.375  0.00  0.00     0.022 C 
HETATM   13  C   UNK N   1      21.745  13.572   2.852  0.00  0.00     0.029 C 
HETATM   14  O   UNK N   1      25.454  15.511   1.144  0.00  0.00    -0.273 OA
BRANCH  11  15
HETATM   15  C   UNK N   1      22.217  15.739   4.128  0.00  0.00     0.155 C 
BRANCH  15  16
HETATM   16  C   UNK N   1      22.614  16.008   5.625  0.00  0.00     0.087 C 
HETATM   17  C   UNK N   1      23.846  16.898   5.742  0.00  0.00     0.021 C 
BRANCH  16  18
HETATM   18  C   UNK N   1      21.518  16.476   6.589  0.00  0.00     0.118 C 
HETATM   19  N   UNK N   1      20.885  15.696   7.418  0.00  0.00    -0.359 N 
ATOM     20  HN  UNK N   1      20.167  16.136   7.993  1.00  0.00     0.162 HD
BRANCH  19  21
HETATM   21  C   UNK N   1      21.082  14.266   7.619  0.00  0.00     0.185 C 
BRANCH  21  22
HETATM   22  C   UNK N   1      22.569  13.996   7.906  0.00  0.00     0.074 C 
BRANCH  22  23
HETATM   23  C   UNK N   1      22.900  13.257   9.165  0.00  0.00    -0.056 A 
HETATM   24  C   UNK N   1      24.221  12.929   9.503  0.00  0.00     0.007 A 
HETATM   25  C   UNK N   1      24.487  12.242  10.692  0.00  0.00     0.001 A 
HETATM   26  C   UNK N   1      23.441  11.897  11.552  0.00  0.00     0.000 A 
HETATM   27  C   UNK N   1      22.125  12.236  11.224  0.00  0.00     0.001 A 
HETATM   28  C   UNK N   1      21.857  12.911  10.031  0.00  0.00     0.007 A 
ENDBRANCH  22  23
ENDBRANCH  21  22
BRANCH  21  29
HETATM   29  C   UNK N   1      20.564  13.481   6.438  0.00  0.00     0.163 C 
HETATM   30  O   UNK N   1      21.089  12.421   6.135  0.00  0.00    -0.648 OA
BRANCH  29  31
HETATM   31  O   UNK N   1      19.527  13.940   5.711  0.00  0.00    -0.775 OA
HETATM   32  H   UNK N   1      18.655  14.159   5.974  0.00  0.00     0.167 HD
ENDBRANCH  29  31
ENDBRANCH  21  29
ENDBRANCH  19  21
BRANCH  18  33
HETATM   33  O   UNK N   1      21.109  17.755   6.498  0.00  0.00    -0.349 OA
HETATM   34  H   UNK N   1      20.996  18.663   6.699  0.00  0.00     0.219 HD
ENDBRANCH  18  33
ENDBRANCH  16  18
ENDBRANCH  15  16
BRANCH  15  35
HETATM   35  O   UNK N   1      20.875  16.022   3.775  0.00  0.00    -0.388 OA
HETATM   36  C   UNK N   1      20.793  17.169   2.984  0.00  0.00     0.202 C 
ENDBRANCH  15  35
ENDBRANCH  11  15
ENDBRANCH   7   8
ENDBRANCH   6   7
BRANCH   6  37
HETATM   37  O   UNK N   1      28.020  15.695   2.965  0.00  0.00    -0.388 OA
HETATM   38  C   UNK N   1      27.817  14.360   3.369  0.00  0.00     0.202 C 
ENDBRANCH   6  37
ENDBRANCH   1   6
BRANCH   1  39
HETATM   39  N   UNK N   1      28.390  17.411   5.014  0.00  0.00    -0.347 N 
HETATM   40  C   UNK N   1      29.453  18.245   4.490  0.00  0.00     0.153 C 
HETATM   41  C   UNK N   1      28.605  16.627   6.125  0.00  0.00     0.243 C 
HETATM   42  O   UNK N   1      27.716  15.910   6.566  0.00  0.00    -0.271 OA
BRANCH  41  43
HETATM   43  C   UNK N   1      29.913  16.748   6.865  0.00  0.00     0.179 C 
BRANCH  43  44
HETATM   44  C   UNK N   1      29.872  17.450   8.233  0.00  0.00     0.009 C 
HETATM   45  C   UNK N   1      31.244  18.013   8.578  0.00  0.00     0.012 C 
HETATM   46  C   UNK N   1      28.900  18.628   8.241  0.00  0.00     0.012 C 
ENDBRANCH  43  44
BRANCH  43  47
HETATM   47  N   UNK N   1      30.608  15.470   6.773  0.00  0.00    -0.359 N 
HETATM   48  C   UNK N   1      31.774  15.105   6.321  0.00  0.00     0.136 C 
ATOM     49  HN  UNK N   1      30.063  14.692   7.144  1.00  0.00     0.162 HD
BRANCH  48  50
HETATM   50  C   UNK N   1      32.723  15.933   5.426  0.00  0.00     0.164 C 
BRANCH  50  51
HETATM   51  C   UNK N   1      32.600  15.718   3.911  0.00  0.00     0.008 C 
HETATM   52  C   UNK N   1      31.262  15.079   3.601  0.00  0.00     0.012 C 
HETATM   53  C   UNK N   1      32.633  17.046   3.173  0.00  0.00     0.012 C 
ENDBRANCH  50  51
BRANCH  50  54
HETATM   54  N   UNK N   1      34.056  15.751   5.992  0.00  0.00    -0.344 N 
HETATM   55  C   UNK N   1      34.732  14.487   5.848  0.00  0.00     0.153 C 
HETATM   56  C   UNK N   1      34.379  16.589   7.023  0.00  0.00     0.220 C 
HETATM   57  O   UNK N   1      34.011  17.756   6.999  0.00  0.00    -0.273 OA
BRANCH  56  58
HETATM   58  C   UNK N   1      34.786  16.029   8.350  0.00  0.00     0.103 C 
BRANCH  58  59
HETATM   59  C   UNK N   1      34.473  16.836   9.570  0.00  0.00     0.009 C 
BRANCH  59  60
HETATM   60  C   UNK N   1      35.686  16.754  10.459  0.00  0.00     0.002 C 
BRANCH  60  61
HETATM   61  C   UNK N   1      35.363  15.855  11.631  0.00  0.00     0.020 C 
BRANCH  61  62
HETATM   62  C   UNK N   1      36.344  14.694  11.755  0.00  0.00     0.135 C 
BRANCH  62  63
HETATM   63  N   UNK N   1      35.843  13.761  12.735  0.00  0.00    -0.281 N 
HETATM   64  C   UNK N   1      36.045  13.841  14.056  0.00  0.00     0.250 A 
HETATM   65  C   UNK N   1      35.364  12.731  14.735  0.00  0.00     0.080 A 
HETATM   66  O   UNK N   1      36.695  14.721  14.598  0.00  0.00    -0.268 OA
HETATM   67  C   UNK N   1      34.770  12.007  13.766  0.00  0.00     0.080 A 
HETATM   68  C   UNK N   1      35.090  12.680  12.497  0.00  0.00     0.250 A 
HETATM   69  O   UNK N   1      34.728  12.320  11.388  0.00  0.00    -0.268 OA
ENDBRANCH  62  63
ENDBRANCH  61  62
ENDBRANCH  60  61
ENDBRANCH  59  60
ENDBRANCH  58  59
ENDBRANCH  56  58
ENDBRANCH  50  54
ENDBRANCH  48  50
BRANCH  48  70
HETATM   70  O   UNK N   1      32.145  13.832   6.559  0.00  0.00    -0.348 OA
HETATM   71  H   UNK N   1      32.272  12.939   6.304  0.00  0.00     0.219 HD
ENDBRANCH  48  70
ENDBRANCH  43  47
ENDBRANCH  41  43
ENDBRANCH   1  39
TORSDOF 30
ENDMDL
MODEL 9
REMARK VINA RESULT:      -6.3      2.377      4.034
REMARK  30 active torsions:
REMARK  status: ('A' for Active; 'I' for Inactive)
REMARK    1  A    between atoms: C_32  and  C_12 
REMARK    2  A    between atoms: C_17  and  C_14 
REMARK    3  A    between atoms: C_18  and  C_14 
REMARK    4  A    between atoms: C_23  and  C_17 
REMARK    5  A    between atoms: C_26  and  C_18 
REMARK    6  A    between atoms: C_38  and  C_23 
REMARK    7  A    between atoms: N_57  and  C_26 
REMARK    8  A    between atoms: C_34  and  C_28 
REMARK    9  A    between atoms: C_35  and  C_28 
REMARK   10  A    between atoms: C_37  and  C_29 
REMARK   11  A    between atoms: C_41  and  C_29 
REMARK   12  A    between atoms: C_42  and  C_30 
REMARK   13  A    between atoms: C_43  and  C_31 
REMARK   14  A    between atoms: C_44  and  C_32 
REMARK   15  A    between atoms: C_45  and  C_33 
REMARK   16  A    between atoms: C_46  and  C_33 
REMARK   17  A    between atoms: C_49  and  C_35 
REMARK   18  A    between atoms: C_35  and  N_50 
REMARK   19  A    between atoms: C_36  and  C_45 
REMARK   20  A    between atoms: C_44  and  C_37 
REMARK   21  A    between atoms: C_37  and  O_67 
REMARK       I    between atoms: N_54  and  C_38 
REMARK       I    between atoms: N_56  and  C_41 
REMARK   22  A    between atoms: C_48  and  C_42 
REMARK   23  A    between atoms: C_42  and  N_52 
REMARK   24  A    between atoms: C_47  and  C_43 
REMARK   25  A    between atoms: C_43  and  N_54 
REMARK   26  A    between atoms: C_44  and  N_55 
REMARK   27  A    between atoms: O_68  and  C_45 
REMARK   28  A    between atoms: C_46  and  O_62 
REMARK   29  A    between atoms: C_47  and  O_63 
REMARK       I    between atoms: N_55  and  C_48 
REMARK   30  A    between atoms: O_66  and  C_49 
ROOT
HETATM    1  C   UNK N   1      27.133  17.805   5.235  0.00  0.00     0.119 C 
ENDROOT
BRANCH   1   2
HETATM    2  C   UNK N   1      27.086  19.241   4.634  0.00  0.00     0.006 C 
HETATM    3  C   UNK N   1      26.575  20.206   5.701  0.00  0.00     0.012 C 
BRANCH   2   4
HETATM    4  C   UNK N   1      26.117  19.294   3.448  0.00  0.00     0.002 C 
HETATM    5  C   UNK N   1      24.961  20.262   3.656  0.00  0.00     0.005 C 
ENDBRANCH   2   4
ENDBRANCH   1   2
BRANCH   1   6
HETATM    6  C   UNK N   1      26.199  16.743   4.536  0.00  0.00     0.152 C 
BRANCH   6   7
HETATM    7  C   UNK N   1      24.849  16.569   5.264  0.00  0.00     0.137 C 
BRANCH   7   8
HETATM    8  C   UNK N   1      24.803  15.412   6.195  0.00  0.00     0.222 C 
HETATM    9  N   UNK N   1      23.868  14.427   6.082  0.00  0.00    -0.345 N 
HETATM   10  C   UNK N   1      23.820  13.373   7.061  0.00  0.00     0.126 C 
HETATM   11  C   UNK N   1      22.842  14.336   5.052  0.00  0.00     0.116 C 
HETATM   12  C   UNK N   1      22.723  12.446   6.594  0.00  0.00     0.022 C 
HETATM   13  C   UNK N   1      21.897  13.282   5.635  0.00  0.00     0.029 C 
HETATM   14  O   UNK N   1      25.635  15.366   7.091  0.00  0.00    -0.273 OA
BRANCH  11  15
HETATM   15  C   UNK N   1      23.355  13.884   3.621  0.00  0.00     0.155 C 
BRANCH  15  16
HETATM   16  C   UNK N   1      22.772  14.630   2.367  0.00  0.00     0.087 C 
HETATM   17  C   UNK N   1      23.702  14.542   1.162  0.00  0.00     0.021 C 
BRANCH  16  18
HETATM   18  C   UNK N   1      21.327  14.327   1.954  0.00  0.00     0.118 C 
HETATM   19  N   UNK N   1      20.396  15.228   1.815  0.00  0.00    -0.359 N 
ATOM     20  HN  UNK N   1      19.473  14.886   1.551  1.00  0.00     0.162 HD
BRANCH  19  21
HETATM   21  C   UNK N   1      20.522  16.668   1.996  0.00  0.00     0.185 C 
BRANCH  21  22
HETATM   22  C   UNK N   1      19.562  17.124   3.108  0.00  0.00     0.074 C 
BRANCH  22  23
HETATM   23  C   UNK N   1      20.051  17.020   4.520  0.00  0.00    -0.056 A 
HETATM   24  C   UNK N   1      19.449  16.159   5.448  0.00  0.00     0.007 A 
HETATM   25  C   UNK N   1      19.939  16.089   6.756  0.00  0.00     0.001 A 
HETATM   26  C   UNK N   1      21.041  16.863   7.134  0.00  0.00     0.000 A 
HETATM   27  C   UNK N   1      21.651  17.712   6.206  0.00  0.00     0.001 A 
HETATM   28  C   UNK N   1      21.153  17.792   4.903  0.00  0.00     0.007 A 
ENDBRANCH  22  23
ENDBRANCH  21  22
BRANCH  21  29
HETATM   29  C   UNK N   1      20.292  17.396   0.693  0.00  0.00     0.163 C 
HETATM   30  O   UNK N   1      19.993  16.768  -0.310  0.00  0.00    -0.648 OA
BRANCH  29  31
HETATM   31  O   UNK N   1      20.417  18.736   0.625  0.00  0.00    -0.775 OA
HETATM   32  H   UNK N   1      19.871  19.412   0.973  0.00  0.00     0.167 HD
ENDBRANCH  29  31
ENDBRANCH  21  29
ENDBRANCH  19  21
BRANCH  18  33
HETATM   33  O   UNK N   1      20.969  13.034   1.831  0.00  0.00    -0.349 OA
HETATM   34  H   UNK N   1      20.435  12.270   1.740  0.00  0.00     0.219 HD
ENDBRANCH  18  33
ENDBRANCH  16  18
ENDBRANCH  15  16
BRANCH  15  35
HETATM   35  O   UNK N   1      23.582  12.493   3.474  0.00  0.00    -0.388 OA
HETATM   36  C   UNK N   1      24.939  12.189   3.588  0.00  0.00     0.202 C 
ENDBRANCH  15  35
ENDBRANCH  11  15
ENDBRANCH   7   8
ENDBRANCH   6   7
BRANCH   6  37
HETATM   37  O   UNK N   1      26.800  15.475   4.295  0.00  0.00    -0.388 OA
HETATM   38  C   UNK N   1      26.860  15.191   2.916  0.00  0.00     0.202 C 
ENDBRANCH   6  37
ENDBRANCH   1   6
BRANCH   1  39
HETATM   39  N   UNK N   1      28.488  17.290   5.366  0.00  0.00    -0.347 N 
HETATM   40  C   UNK N   1      29.339  17.371   4.196  0.00  0.00     0.153 C 
HETATM   41  C   UNK N   1      29.001  16.867   6.571  0.00  0.00     0.243 C 
HETATM   42  O   UNK N   1      28.285  16.783   7.561  0.00  0.00    -0.271 OA
BRANCH  41  43
HETATM   43  C   UNK N   1      30.483  16.619   6.689  0.00  0.00     0.179 C 
BRANCH  43  44
HETATM   44  C   UNK N   1      31.190  17.218   7.916  0.00  0.00     0.009 C 
HETATM   45  C   UNK N   1      31.468  16.132   8.947  0.00  0.00     0.012 C 
HETATM   46  C   UNK N   1      32.539  17.834   7.552  0.00  0.00     0.012 C 
ENDBRANCH  43  44
BRANCH  43  47
HETATM   47  N   UNK N   1      30.737  15.218   6.370  0.00  0.00    -0.359 N 
HETATM   48  C   UNK N   1      31.741  14.579   5.842  0.00  0.00     0.136 C 
ATOM     49  HN  UNK N   1      29.958  14.606   6.615  1.00  0.00     0.162 HD
BRANCH  48  50
HETATM   50  C   UNK N   1      32.936  15.194   5.082  0.00  0.00     0.164 C 
BRANCH  50  51
HETATM   51  C   UNK N   1      32.748  15.425   3.576  0.00  0.00     0.008 C 
HETATM   52  C   UNK N   1      32.754  16.913   3.291  0.00  0.00     0.012 C 
HETATM   53  C   UNK N   1      33.900  14.823   2.788  0.00  0.00     0.012 C 
ENDBRANCH  50  51
BRANCH  50  54
HETATM   54  N   UNK N   1      34.099  14.401   5.467  0.00  0.00    -0.344 N 
HETATM   55  C   UNK N   1      34.086  12.972   5.284  0.00  0.00     0.153 C 
HETATM   56  C   UNK N   1      34.914  14.965   6.409  0.00  0.00     0.220 C 
HETATM   57  O   UNK N   1      35.128  16.170   6.387  0.00  0.00    -0.273 OA
BRANCH  56  58
HETATM   58  C   UNK N   1      35.197  14.244   7.690  0.00  0.00     0.103 C 
BRANCH  58  59
HETATM   59  C   UNK N   1      34.948  14.978   8.969  0.00  0.00     0.009 C 
BRANCH  59  60
HETATM   60  C   UNK N   1      34.411  13.966   9.945  0.00  0.00     0.002 C 
BRANCH  60  61
HETATM   61  C   UNK N   1      34.976  14.273  11.314  0.00  0.00     0.020 C 
BRANCH  61  62
HETATM   62  C   UNK N   1      35.888  13.162  11.824  0.00  0.00     0.135 C 
BRANCH  62  63
HETATM   63  N   UNK N   1      35.090  12.185  12.525  0.00  0.00    -0.281 N 
HETATM   64  C   UNK N   1      34.661  11.025  12.014  0.00  0.00     0.250 A 
HETATM   65  C   UNK N   1      33.899  10.283  13.028  0.00  0.00     0.080 A 
HETATM   66  O   UNK N   1      34.889  10.650  10.875  0.00  0.00    -0.268 OA
HETATM   67  C   UNK N   1      33.896  11.054  14.133  0.00  0.00     0.080 A 
HETATM   68  C   UNK N   1      34.660  12.264  13.790  0.00  0.00     0.250 A 
HETATM   69  O   UNK N   1      34.879  13.205  14.537  0.00  0.00    -0.268 OA
ENDBRANCH  62  63
ENDBRANCH  61  62
ENDBRANCH  60  61
ENDBRANCH  59  60
ENDBRANCH  58  59
ENDBRANCH  56  58
ENDBRANCH  50  54
ENDBRANCH  48  50
BRANCH  48  70
HETATM   70  O   UNK N   1      31.676  13.233   5.854  0.00  0.00    -0.348 OA
HETATM   71  H   UNK N   1      31.313  12.413   5.584  0.00  0.00     0.219 HD
ENDBRANCH  48  70
ENDBRANCH  43  47
ENDBRANCH  41  43
ENDBRANCH   1  39
TORSDOF 30
ENDMDL
