MODEL 1
REMARK VINA RESULT:      -8.7      0.000      0.000
REMARK  8 active torsions:
REMARK  status: ('A' for Active; 'I' for Inactive)
REMARK    1  A    between atoms: C_3  and  N_8 
REMARK       I    between atoms: N_8  and  C_9 
REMARK       I    between atoms: C_9  and  N_11 
REMARK    2  A    between atoms: N_11  and  C_12 
REMARK    3  A    between atoms: C_15  and  C_18 
REMARK    4  A    between atoms: C_23  and  N_37 
REMARK    5  A    between atoms: C_27  and  C_28 
REMARK    6  A    between atoms: N_32  and  C_34 
REMARK    7  A    between atoms: C_34  and  C_35 
REMARK    8  A    between atoms: C_35  and  O_36 
ROOT
HETATM    1  C   UNK N   1      31.264  16.787   7.405  0.00  0.00    -0.004 A 
HETATM    2  C   UNK N   1      31.522  16.656   6.024  0.00  0.00     0.063 A 
HETATM    3  S   UNK N   1      30.250  17.367   5.246  0.00  0.00    -0.099 SA
HETATM    4  C   UNK N   1      29.374  17.901   6.548  0.00  0.00     0.032 A 
HETATM    5  C   UNK N   1      30.042  17.517   7.708  0.00  0.00     0.037 A 
HETATM    6  C   UNK N   1      29.472  17.931   8.956  0.00  0.00     0.111 A 
HETATM    7  N   UNK N   1      28.335  18.673   8.953  0.00  0.00    -0.351 N 
ATOM      8  HN  UNK N   1      27.947  18.975   9.847  1.00  0.00     0.166 HD
HETATM    9  C   UNK N   1      27.695  19.030   7.815  0.00  0.00     0.103 A 
HETATM   10  C   UNK N   1      28.190  18.641   6.574  0.00  0.00     0.010 A 
ENDROOT
BRANCH   1  11
HETATM   11  C   UNK N   1      32.272  16.363   8.382  0.00  0.00    -0.024 A 
HETATM   12  C   UNK N   1      33.348  17.182   8.730  0.00  0.00     0.014 A 
HETATM   13  C   UNK N   1      34.487  16.662   9.330  0.00  0.00     0.030 A 
HETATM   14  C   UNK N   1      34.531  15.306   9.602  0.00  0.00     0.036 A 
HETATM   15  C   UNK N   1      33.397  14.502   9.384  0.00  0.00     0.030 A 
HETATM   16  C   UNK N   1      32.275  15.025   8.770  0.00  0.00     0.014 A 
BRANCH  14  17
HETATM   17  N   UNK N   1      35.676  14.701  10.154  0.00  0.00    -0.309 N 
HETATM   18  C   UNK N   1      35.539  14.255  11.408  0.00  0.00     0.325 C 
HETATM   19  N   UNK N   1      35.837  12.965  11.676  0.00  0.00    -0.309 N 
HETATM   20  O   UNK N   1      34.835  14.888  12.187  0.00  0.00    -0.247 OA
HETATM   21  H   UNK N   1      36.589  12.497  11.245  0.00  0.00     0.170 HD
HETATM   22  H   UNK N   1      36.519  14.613   9.652  0.00  0.00     0.170 HD
BRANCH  19  23
HETATM   23  C   UNK N   1      34.998  12.334  12.618  0.00  0.00     0.039 A 
HETATM   24  C   UNK N   1      34.368  11.133  12.303  0.00  0.00     0.030 A 
HETATM   25  C   UNK N   1      33.805  10.362  13.325  0.00  0.00     0.005 A 
HETATM   26  C   UNK N   1      33.908  10.772  14.661  0.00  0.00     0.042 A 
HETATM   27  C   UNK N   1      34.552  11.968  14.978  0.00  0.00     0.118 A 
HETATM   28  C   UNK N   1      35.106  12.737  13.961  0.00  0.00     0.071 A 
HETATM   29  F   UNK N   1      34.686  12.359  16.270  0.00  0.00    -0.206 F 
ENDBRANCH  19  23
ENDBRANCH  14  17
ENDBRANCH   1  11
BRANCH   6  30
HETATM   30  N   UNK N   1      30.037  17.642  10.206  0.00  0.00    -0.385 N 
HETATM   31  H   UNK N   1      30.159  18.358  10.870  0.00  0.00     0.157 HD
HETATM   32  H   UNK N   1      30.311  16.722  10.419  0.00  0.00     0.157 HD
ENDBRANCH   6  30
BRANCH  10  33
HETATM   33  C   UNK N   1      27.418  18.952   5.371  0.00  0.00     0.011 A 
HETATM   34  C   UNK N   1      27.736  19.890   4.404  0.00  0.00     0.121 A 
HETATM   35  N   UNK N   1      26.684  19.990   3.571  0.00  0.00    -0.309 N 
HETATM   36  N   UNK N   1      25.740  19.166   3.994  0.00  0.00    -0.301 N 
ATOM     37  HN  UNK N   1      26.624  20.598   2.753  1.00  0.00     0.186 HD
HETATM   38  C   UNK N   1      26.148  18.514   5.089  0.00  0.00     0.124 A 
BRANCH  36  39
HETATM   39  C   UNK N   1      24.412  19.078   3.414  0.00  0.00     0.174 C 
BRANCH  39  40
HETATM   40  C   UNK N   1      23.881  20.456   3.077  0.00  0.00     0.185 C 
BRANCH  40  41
HETATM   41  O   UNK N   1      24.539  20.947   1.952  0.00  0.00    -0.399 OA
HETATM   42  H   UNK N   1      25.229  21.187   1.313  0.00  0.00     0.209 HD
ENDBRANCH  40  41
ENDBRANCH  39  40
ENDBRANCH  36  39
ENDBRANCH  10  33
TORSDOF 8
ENDMDL
MODEL 2
REMARK VINA RESULT:      -8.7      1.920      2.447
REMARK  8 active torsions:
REMARK  status: ('A' for Active; 'I' for Inactive)
REMARK    1  A    between atoms: C_3  and  N_8 
REMARK       I    between atoms: N_8  and  C_9 
REMARK       I    between atoms: C_9  and  N_11 
REMARK    2  A    between atoms: N_11  and  C_12 
REMARK    3  A    between atoms: C_15  and  C_18 
REMARK    4  A    between atoms: C_23  and  N_37 
REMARK    5  A    between atoms: C_27  and  C_28 
REMARK    6  A    between atoms: N_32  and  C_34 
REMARK    7  A    between atoms: C_34  and  C_35 
REMARK    8  A    between atoms: C_35  and  O_36 
ROOT
HETATM    1  C   UNK N   1      30.814  17.460   7.732  0.00  0.00    -0.004 A 
HETATM    2  C   UNK N   1      29.698  17.960   8.436  0.00  0.00     0.063 A 
HETATM    3  S   UNK N   1      28.495  18.154   7.320  0.00  0.00    -0.099 SA
HETATM    4  C   UNK N   1      29.264  17.593   5.964  0.00  0.00     0.032 A 
HETATM    5  C   UNK N   1      30.561  17.231   6.317  0.00  0.00     0.037 A 
HETATM    6  C   UNK N   1      31.384  16.667   5.289  0.00  0.00     0.111 A 
HETATM    7  N   UNK N   1      30.871  16.503   4.042  0.00  0.00    -0.351 N 
ATOM      8  HN  UNK N   1      31.461  16.086   3.322  1.00  0.00     0.166 HD
HETATM    9  C   UNK N   1      29.609  16.869   3.715  0.00  0.00     0.103 A 
HETATM   10  C   UNK N   1      28.769  17.440   4.666  0.00  0.00     0.010 A 
ENDROOT
BRANCH   1  11
HETATM   11  C   UNK N   1      32.020  17.059   8.462  0.00  0.00    -0.024 A 
HETATM   12  C   UNK N   1      33.162  17.861   8.490  0.00  0.00     0.014 A 
HETATM   13  C   UNK N   1      34.403  17.340   8.830  0.00  0.00     0.030 A 
HETATM   14  C   UNK N   1      34.488  16.001   9.166  0.00  0.00     0.036 A 
HETATM   15  C   UNK N   1      33.322  15.221   9.277  0.00  0.00     0.030 A 
HETATM   16  C   UNK N   1      32.094  15.745   8.920  0.00  0.00     0.014 A 
BRANCH  14  17
HETATM   17  N   UNK N   1      35.722  15.392   9.462  0.00  0.00    -0.309 N 
HETATM   18  C   UNK N   1      35.991  15.247  10.765  0.00  0.00     0.325 C 
HETATM   19  N   UNK N   1      36.301  14.019  11.235  0.00  0.00    -0.309 N 
HETATM   20  O   UNK N   1      35.618  16.117  11.545  0.00  0.00    -0.247 OA
HETATM   21  H   UNK N   1      36.843  13.379  10.718  0.00  0.00     0.170 HD
HETATM   22  H   UNK N   1      36.345  15.093   8.760  0.00  0.00     0.170 HD
BRANCH  19  23
HETATM   23  C   UNK N   1      35.795  13.717  12.516  0.00  0.00     0.039 A 
HETATM   24  C   UNK N   1      34.893  12.670  12.685  0.00  0.00     0.030 A 
HETATM   25  C   UNK N   1      34.645  12.175  13.970  0.00  0.00     0.005 A 
HETATM   26  C   UNK N   1      35.327  12.701  15.075  0.00  0.00     0.042 A 
HETATM   27  C   UNK N   1      36.241  13.741  14.903  0.00  0.00     0.118 A 
HETATM   28  C   UNK N   1      36.483  14.235  13.628  0.00  0.00     0.071 A 
HETATM   29  F   UNK N   1      36.931  14.235  15.962  0.00  0.00    -0.206 F 
ENDBRANCH  19  23
ENDBRANCH  14  17
ENDBRANCH   1  11
BRANCH   6  30
HETATM   30  N   UNK N   1      32.702  16.235   5.493  0.00  0.00    -0.385 N 
HETATM   31  H   UNK N   1      33.452  16.730   5.091  0.00  0.00     0.157 HD
HETATM   32  H   UNK N   1      32.877  15.435   6.038  0.00  0.00     0.157 HD
ENDBRANCH   6  30
BRANCH  10  33
HETATM   33  C   UNK N   1      27.451  17.920   4.254  0.00  0.00     0.011 A 
HETATM   34  C   UNK N   1      26.358  17.144   3.910  0.00  0.00     0.121 A 
HETATM   35  N   UNK N   1      25.410  17.965   3.422  0.00  0.00    -0.309 N 
HETATM   36  N   UNK N   1      25.881  19.201   3.444  0.00  0.00    -0.301 N 
ATOM     37  HN  UNK N   1      24.487  17.683   3.092  1.00  0.00     0.186 HD
HETATM   38  C   UNK N   1      27.122  19.217   3.945  0.00  0.00     0.124 A 
BRANCH  36  39
HETATM   39  C   UNK N   1      25.187  20.350   2.893  0.00  0.00     0.174 C 
BRANCH  39  40
HETATM   40  C   UNK N   1      23.694  20.238   3.125  0.00  0.00     0.185 C 
BRANCH  40  41
HETATM   41  O   UNK N   1      23.085  21.458   2.842  0.00  0.00    -0.399 OA
HETATM   42  H   UNK N   1      22.515  22.142   2.457  0.00  0.00     0.209 HD
ENDBRANCH  40  41
ENDBRANCH  39  40
ENDBRANCH  36  39
ENDBRANCH  10  33
TORSDOF 8
ENDMDL
MODEL 3
REMARK VINA RESULT:      -8.4      1.858      2.610
REMARK  8 active torsions:
REMARK  status: ('A' for Active; 'I' for Inactive)
REMARK    1  A    between atoms: C_3  and  N_8 
REMARK       I    between atoms: N_8  and  C_9 
REMARK       I    between atoms: C_9  and  N_11 
REMARK    2  A    between atoms: N_11  and  C_12 
REMARK    3  A    between atoms: C_15  and  C_18 
REMARK    4  A    between atoms: C_23  and  N_37 
REMARK    5  A    between atoms: C_27  and  C_28 
REMARK    6  A    between atoms: N_32  and  C_34 
REMARK    7  A    between atoms: C_34  and  C_35 
REMARK    8  A    between atoms: C_35  and  O_36 
ROOT
HETATM    1  C   UNK N   1      32.251  16.677   7.859  0.00  0.00    -0.004 A 
HETATM    2  C   UNK N   1      31.121  16.818   8.691  0.00  0.00     0.063 A 
HETATM    3  S   UNK N   1      29.866  17.234   7.701  0.00  0.00    -0.099 SA
HETATM    4  C   UNK N   1      30.633  17.207   6.232  0.00  0.00     0.032 A 
HETATM    5  C   UNK N   1      31.970  16.882   6.446  0.00  0.00     0.037 A 
HETATM    6  C   UNK N   1      32.804  16.754   5.287  0.00  0.00     0.111 A 
HETATM    7  N   UNK N   1      32.263  16.941   4.056  0.00  0.00    -0.351 N 
ATOM      8  HN  UNK N   1      32.862  16.832   3.238  1.00  0.00     0.166 HD
HETATM    9  C   UNK N   1      30.962  17.265   3.868  0.00  0.00     0.103 A 
HETATM   10  C   UNK N   1      30.107  17.422   4.955  0.00  0.00     0.010 A 
ENDROOT
BRANCH   1  11
HETATM   11  C   UNK N   1      33.516  16.189   8.418  0.00  0.00    -0.024 A 
HETATM   12  C   UNK N   1      33.780  14.825   8.556  0.00  0.00     0.014 A 
HETATM   13  C   UNK N   1      34.768  14.364   9.415  0.00  0.00     0.030 A 
HETATM   14  C   UNK N   1      35.511  15.290  10.126  0.00  0.00     0.036 A 
HETATM   15  C   UNK N   1      35.346  16.666   9.888  0.00  0.00     0.030 A 
HETATM   16  C   UNK N   1      34.348  17.115   9.043  0.00  0.00     0.014 A 
BRANCH  14  17
HETATM   17  N   UNK N   1      36.486  14.892  11.060  0.00  0.00    -0.309 N 
HETATM   18  C   UNK N   1      36.011  14.458  12.234  0.00  0.00     0.325 C 
HETATM   19  N   UNK N   1      36.389  13.240  12.680  0.00  0.00    -0.309 N 
HETATM   20  O   UNK N   1      35.006  14.987  12.696  0.00  0.00    -0.247 OA
HETATM   21  H   UNK N   1      37.300  12.890  12.548  0.00  0.00     0.170 HD
HETATM   22  H   UNK N   1      37.451  14.930  10.864  0.00  0.00     0.170 HD
BRANCH  19  23
HETATM   23  C   UNK N   1      35.388  12.503  13.347  0.00  0.00     0.039 A 
HETATM   24  C   UNK N   1      34.689  11.503  12.677  0.00  0.00     0.030 A 
HETATM   25  C   UNK N   1      33.939  10.578  13.410  0.00  0.00     0.005 A 
HETATM   26  C   UNK N   1      33.921  10.631  14.810  0.00  0.00     0.042 A 
HETATM   27  C   UNK N   1      34.633  11.625  15.482  0.00  0.00     0.118 A 
HETATM   28  C   UNK N   1      35.373  12.547  14.752  0.00  0.00     0.071 A 
HETATM   29  F   UNK N   1      34.649  11.666  16.837  0.00  0.00    -0.206 F 
ENDBRANCH  19  23
ENDBRANCH  14  17
ENDBRANCH   1  11
BRANCH   6  30
HETATM   30  N   UNK N   1      34.162  16.412   5.337  0.00  0.00    -0.385 N 
HETATM   31  H   UNK N   1      34.850  17.099   5.184  0.00  0.00     0.157 HD
HETATM   32  H   UNK N   1      34.428  15.484   5.525  0.00  0.00     0.157 HD
ENDBRANCH   6  30
BRANCH  10  33
HETATM   33  C   UNK N   1      28.736  17.875   4.724  0.00  0.00     0.011 A 
HETATM   34  C   UNK N   1      27.778  17.246   3.949  0.00  0.00     0.121 A 
HETATM   35  N   UNK N   1      26.723  18.076   3.852  0.00  0.00    -0.309 N 
HETATM   36  N   UNK N   1      27.001  19.181   4.522  0.00  0.00    -0.301 N 
ATOM     37  HN  UNK N   1      25.856  17.884   3.348  1.00  0.00     0.186 HD
HETATM   38  C   UNK N   1      28.219  19.099   5.069  0.00  0.00     0.124 A 
BRANCH  36  39
HETATM   39  C   UNK N   1      26.148  20.355   4.553  0.00  0.00     0.174 C 
BRANCH  39  40
HETATM   40  C   UNK N   1      25.035  20.237   3.532  0.00  0.00     0.185 C 
BRANCH  40  41
HETATM   41  O   UNK N   1      25.506  20.634   2.282  0.00  0.00    -0.399 OA
HETATM   42  H   UNK N   1      25.716  21.162   1.496  0.00  0.00     0.209 HD
ENDBRANCH  40  41
ENDBRANCH  39  40
ENDBRANCH  36  39
ENDBRANCH  10  33
TORSDOF 8
ENDMDL
MODEL 4
REMARK VINA RESULT:      -8.4      2.182      2.924
REMARK  8 active torsions:
REMARK  status: ('A' for Active; 'I' for Inactive)
REMARK    1  A    between atoms: C_3  and  N_8 
REMARK       I    between atoms: N_8  and  C_9 
REMARK       I    between atoms: C_9  and  N_11 
REMARK    2  A    between atoms: N_11  and  C_12 
REMARK    3  A    between atoms: C_15  and  C_18 
REMARK    4  A    between atoms: C_23  and  N_37 
REMARK    5  A    between atoms: C_27  and  C_28 
REMARK    6  A    between atoms: N_32  and  C_34 
REMARK    7  A    between atoms: C_34  and  C_35 
REMARK    8  A    between atoms: C_35  and  O_36 
ROOT
HETATM    1  C   UNK N   1      32.321  16.486   8.391  0.00  0.00    -0.004 A 
HETATM    2  C   UNK N   1      31.208  16.513   9.258  0.00  0.00     0.063 A 
HETATM    3  S   UNK N   1      29.924  17.013   8.348  0.00  0.00    -0.099 SA
HETATM    4  C   UNK N   1      30.655  17.162   6.869  0.00  0.00     0.032 A 
HETATM    5  C   UNK N   1      32.002  16.840   7.015  0.00  0.00     0.037 A 
HETATM    6  C   UNK N   1      32.809  16.855   5.831  0.00  0.00     0.111 A 
HETATM    7  N   UNK N   1      32.236  17.166   4.640  0.00  0.00    -0.351 N 
ATOM      8  HN  UNK N   1      32.817  17.159   3.802  1.00  0.00     0.166 HD
HETATM    9  C   UNK N   1      30.926  17.486   4.518  0.00  0.00     0.103 A 
HETATM   10  C   UNK N   1      30.096  17.506   5.635  0.00  0.00     0.010 A 
ENDROOT
BRANCH   1  11
HETATM   11  C   UNK N   1      33.605  15.962   8.864  0.00  0.00    -0.024 A 
HETATM   12  C   UNK N   1      33.850  14.591   8.959  0.00  0.00     0.014 A 
HETATM   13  C   UNK N   1      34.877  14.093   9.749  0.00  0.00     0.030 A 
HETATM   14  C   UNK N   1      35.679  14.989  10.433  0.00  0.00     0.036 A 
HETATM   15  C   UNK N   1      35.529  16.373  10.231  0.00  0.00     0.030 A 
HETATM   16  C   UNK N   1      34.492  16.859   9.456  0.00  0.00     0.014 A 
BRANCH  14  17
HETATM   17  N   UNK N   1      36.700  14.553  11.299  0.00  0.00    -0.309 N 
HETATM   18  C   UNK N   1      36.293  14.172  12.516  0.00  0.00     0.325 C 
HETATM   19  N   UNK N   1      36.634  12.943  12.961  0.00  0.00    -0.309 N 
HETATM   20  O   UNK N   1      35.358  14.768  13.040  0.00  0.00    -0.247 OA
HETATM   21  H   UNK N   1      37.511  12.538  12.769  0.00  0.00     0.170 HD
HETATM   22  H   UNK N   1      37.647  14.531  11.029  0.00  0.00     0.170 HD
BRANCH  19  23
HETATM   23  C   UNK N   1      35.647  12.280  13.720  0.00  0.00     0.039 A 
HETATM   24  C   UNK N   1      34.683  11.500  13.088  0.00  0.00     0.030 A 
HETATM   25  C   UNK N   1      33.918  10.605  13.844  0.00  0.00     0.005 A 
HETATM   26  C   UNK N   1      34.146  10.464  15.219  0.00  0.00     0.042 A 
HETATM   27  C   UNK N   1      35.122  11.236  15.849  0.00  0.00     0.118 A 
HETATM   28  C   UNK N   1      35.878  12.128  15.099  0.00  0.00     0.071 A 
HETATM   29  F   UNK N   1      35.373  11.084  17.174  0.00  0.00    -0.206 F 
ENDBRANCH  19  23
ENDBRANCH  14  17
ENDBRANCH   1  11
BRANCH   6  30
HETATM   30  N   UNK N   1      34.173  16.534   5.813  0.00  0.00    -0.385 N 
HETATM   31  H   UNK N   1      34.477  15.693   5.401  0.00  0.00     0.157 HD
HETATM   32  H   UNK N   1      34.828  17.150   6.212  0.00  0.00     0.157 HD
ENDBRANCH   6  30
BRANCH  10  33
HETATM   33  C   UNK N   1      28.713  17.958   5.486  0.00  0.00     0.011 A 
HETATM   34  C   UNK N   1      27.739  17.387   4.685  0.00  0.00     0.121 A 
HETATM   35  N   UNK N   1      26.671  18.205   4.695  0.00  0.00    -0.309 N 
HETATM   36  N   UNK N   1      26.956  19.250   5.454  0.00  0.00    -0.301 N 
ATOM     37  HN  UNK N   1      25.792  18.047   4.201  1.00  0.00     0.186 HD
HETATM   38  C   UNK N   1      28.191  19.137   5.956  0.00  0.00     0.124 A 
BRANCH  36  39
HETATM   39  C   UNK N   1      26.089  20.403   5.617  0.00  0.00     0.174 C 
BRANCH  39  40
HETATM   40  C   UNK N   1      26.577  21.287   6.746  0.00  0.00     0.185 C 
BRANCH  40  41
HETATM   41  O   UNK N   1      25.932  20.931   7.928  0.00  0.00    -0.399 OA
HETATM   42  H   UNK N   1      25.496  20.420   8.629  0.00  0.00     0.209 HD
ENDBRANCH  40  41
ENDBRANCH  39  40
ENDBRANCH  36  39
ENDBRANCH  10  33
TORSDOF 8
ENDMDL
MODEL 5
REMARK VINA RESULT:      -8.3      2.060      3.030
REMARK  8 active torsions:
REMARK  status: ('A' for Active; 'I' for Inactive)
REMARK    1  A    between atoms: C_3  and  N_8 
REMARK       I    between atoms: N_8  and  C_9 
REMARK       I    between atoms: C_9  and  N_11 
REMARK    2  A    between atoms: N_11  and  C_12 
REMARK    3  A    between atoms: C_15  and  C_18 
REMARK    4  A    between atoms: C_23  and  N_37 
REMARK    5  A    between atoms: C_27  and  C_28 
REMARK    6  A    between atoms: N_32  and  C_34 
REMARK    7  A    between atoms: C_34  and  C_35 
REMARK    8  A    between atoms: C_35  and  O_36 
ROOT
HETATM    1  C   UNK N   1      32.977  14.125   7.318  0.00  0.00    -0.004 A 
HETATM    2  C   UNK N   1      32.590  13.638   6.052  0.00  0.00     0.063 A 
HETATM    3  S   UNK N   1      31.413  14.660   5.503  0.00  0.00    -0.099 SA
HETATM    4  C   UNK N   1      31.370  15.750   6.751  0.00  0.00     0.032 A 
HETATM    5  C   UNK N   1      32.292  15.347   7.713  0.00  0.00     0.037 A 
HETATM    6  C   UNK N   1      32.449  16.191   8.861  0.00  0.00     0.111 A 
HETATM    7  N   UNK N   1      31.714  17.330   8.953  0.00  0.00    -0.351 N 
ATOM      8  HN  UNK N   1      31.846  17.930   9.767  1.00  0.00     0.166 HD
HETATM    9  C   UNK N   1      30.817  17.702   8.011  0.00  0.00     0.103 A 
HETATM   10  C   UNK N   1      30.606  16.913   6.883  0.00  0.00     0.010 A 
ENDROOT
BRANCH   1  11
HETATM   11  C   UNK N   1      34.102  13.507   8.028  0.00  0.00    -0.024 A 
HETATM   12  C   UNK N   1      33.904  12.614   9.081  0.00  0.00     0.014 A 
HETATM   13  C   UNK N   1      34.915  12.335   9.991  0.00  0.00     0.030 A 
HETATM   14  C   UNK N   1      36.144  12.947   9.822  0.00  0.00     0.036 A 
HETATM   15  C   UNK N   1      36.394  13.737   8.685  0.00  0.00     0.030 A 
HETATM   16  C   UNK N   1      35.375  14.022   7.795  0.00  0.00     0.014 A 
BRANCH  14  17
HETATM   17  N   UNK N   1      37.195  12.757  10.740  0.00  0.00    -0.309 N 
HETATM   18  C   UNK N   1      37.024  13.338  11.934  0.00  0.00     0.325 C 
HETATM   19  N   UNK N   1      37.122  12.580  13.048  0.00  0.00    -0.309 N 
HETATM   20  O   UNK N   1      36.449  14.420  11.987  0.00  0.00    -0.247 OA
HETATM   21  H   UNK N   1      37.778  11.851  13.132  0.00  0.00     0.170 HD
HETATM   22  H   UNK N   1      38.000  12.234  10.520  0.00  0.00     0.170 HD
BRANCH  19  23
HETATM   23  C   UNK N   1      36.219  12.905  14.082  0.00  0.00     0.039 A 
HETATM   24  C   UNK N   1      35.056  12.161  14.257  0.00  0.00     0.030 A 
HETATM   25  C   UNK N   1      34.338  12.277  15.452  0.00  0.00     0.005 A 
HETATM   26  C   UNK N   1      34.804  13.106  16.481  0.00  0.00     0.042 A 
HETATM   27  C   UNK N   1      35.977  13.841  16.310  0.00  0.00     0.118 A 
HETATM   28  C   UNK N   1      36.687  13.729  15.121  0.00  0.00     0.071 A 
HETATM   29  F   UNK N   1      36.455  14.622  17.311  0.00  0.00    -0.206 F 
ENDBRANCH  19  23
ENDBRANCH  14  17
ENDBRANCH   1  11
BRANCH   6  30
HETATM   30  N   UNK N   1      33.349  15.932   9.902  0.00  0.00    -0.385 N 
HETATM   31  H   UNK N   1      33.260  15.112  10.440  0.00  0.00     0.157 HD
HETATM   32  H   UNK N   1      34.072  16.571  10.097  0.00  0.00     0.157 HD
ENDBRANCH   6  30
BRANCH  10  33
HETATM   33  C   UNK N   1      29.555  17.288   5.938  0.00  0.00     0.011 A 
HETATM   34  C   UNK N   1      29.732  17.755   4.648  0.00  0.00     0.121 A 
HETATM   35  N   UNK N   1      28.530  18.152   4.189  0.00  0.00    -0.309 N 
HETATM   36  N   UNK N   1      27.637  17.957   5.145  0.00  0.00    -0.301 N 
ATOM     37  HN  UNK N   1      28.341  18.537   3.263  1.00  0.00     0.186 HD
HETATM   38  C   UNK N   1      28.221  17.431   6.227  0.00  0.00     0.124 A 
BRANCH  36  39
HETATM   39  C   UNK N   1      26.247  18.369   5.060  0.00  0.00     0.174 C 
BRANCH  39  40
HETATM   40  C   UNK N   1      26.104  19.845   5.371  0.00  0.00     0.185 C 
BRANCH  40  41
HETATM   41  O   UNK N   1      27.020  20.571   4.615  0.00  0.00    -0.399 OA
HETATM   42  H   UNK N   1      27.701  21.208   4.344  0.00  0.00     0.209 HD
ENDBRANCH  40  41
ENDBRANCH  39  40
ENDBRANCH  36  39
ENDBRANCH  10  33
TORSDOF 8
ENDMDL
MODEL 6
REMARK VINA RESULT:      -8.1      2.056      2.833
REMARK  8 active torsions:
REMARK  status: ('A' for Active; 'I' for Inactive)
REMARK    1  A    between atoms: C_3  and  N_8 
REMARK       I    between atoms: N_8  and  C_9 
REMARK       I    between atoms: C_9  and  N_11 
REMARK    2  A    between atoms: N_11  and  C_12 
REMARK    3  A    between atoms: C_15  and  C_18 
REMARK    4  A    between atoms: C_23  and  N_37 
REMARK    5  A    between atoms: C_27  and  C_28 
REMARK    6  A    between atoms: N_32  and  C_34 
REMARK    7  A    between atoms: C_34  and  C_35 
REMARK    8  A    between atoms: C_35  and  O_36 
ROOT
HETATM    1  C   UNK N   1      32.236  16.572   8.414  0.00  0.00    -0.004 A 
HETATM    2  C   UNK N   1      31.118  16.550   9.275  0.00  0.00     0.063 A 
HETATM    3  S   UNK N   1      29.817  16.992   8.357  0.00  0.00    -0.099 SA
HETATM    4  C   UNK N   1      30.551  17.172   6.882  0.00  0.00     0.032 A 
HETATM    5  C   UNK N   1      31.909  16.911   7.036  0.00  0.00     0.037 A 
HETATM    6  C   UNK N   1      32.722  16.962   5.857  0.00  0.00     0.111 A 
HETATM    7  N   UNK N   1      32.143  17.247   4.663  0.00  0.00    -0.351 N 
ATOM      8  HN  UNK N   1      32.728  17.265   3.828  1.00  0.00     0.166 HD
HETATM    9  C   UNK N   1      30.820  17.507   4.533  0.00  0.00     0.103 A 
HETATM   10  C   UNK N   1      29.983  17.491   5.645  0.00  0.00     0.010 A 
ENDROOT
BRANCH   1  11
HETATM   11  C   UNK N   1      33.540  16.106   8.895  0.00  0.00    -0.024 A 
HETATM   12  C   UNK N   1      33.834  14.748   9.021  0.00  0.00     0.014 A 
HETATM   13  C   UNK N   1      34.881  14.307   9.819  0.00  0.00     0.030 A 
HETATM   14  C   UNK N   1      35.651  15.247  10.479  0.00  0.00     0.036 A 
HETATM   15  C   UNK N   1      35.450  16.619  10.246  0.00  0.00     0.030 A 
HETATM   16  C   UNK N   1      34.394  17.049   9.463  0.00  0.00     0.014 A 
BRANCH  14  17
HETATM   17  N   UNK N   1      36.689  14.869  11.352  0.00  0.00    -0.309 N 
HETATM   18  C   UNK N   1      36.301  14.216  12.454  0.00  0.00     0.325 C 
HETATM   19  N   UNK N   1      36.855  13.015  12.729  0.00  0.00    -0.309 N 
HETATM   20  O   UNK N   1      35.238  14.527  12.982  0.00  0.00    -0.247 OA
HETATM   21  H   UNK N   1      37.804  12.820  12.553  0.00  0.00     0.170 HD
HETATM   22  H   UNK N   1      37.635  15.071  11.166  0.00  0.00     0.170 HD
BRANCH  19  23
HETATM   23  C   UNK N   1      35.980  12.058  13.285  0.00  0.00     0.039 A 
HETATM   24  C   UNK N   1      35.717  12.059  14.652  0.00  0.00     0.030 A 
HETATM   25  C   UNK N   1      34.627  11.333  15.144  0.00  0.00     0.005 A 
HETATM   26  C   UNK N   1      33.783  10.641  14.266  0.00  0.00     0.042 A 
HETATM   27  C   UNK N   1      34.039  10.652  12.894  0.00  0.00     0.118 A 
HETATM   28  C   UNK N   1      35.124  11.369  12.407  0.00  0.00     0.071 A 
HETATM   29  F   UNK N   1      33.209  10.013  12.032  0.00  0.00    -0.206 F 
ENDBRANCH  19  23
ENDBRANCH  14  17
ENDBRANCH   1  11
BRANCH   6  30
HETATM   30  N   UNK N   1      34.099  16.702   5.847  0.00  0.00    -0.385 N 
HETATM   31  H   UNK N   1      34.709  17.292   5.347  0.00  0.00     0.157 HD
HETATM   32  H   UNK N   1      34.457  15.930   6.340  0.00  0.00     0.157 HD
ENDBRANCH   6  30
BRANCH  10  33
HETATM   33  C   UNK N   1      28.583  17.880   5.487  0.00  0.00     0.011 A 
HETATM   34  C   UNK N   1      27.986  19.033   5.966  0.00  0.00     0.121 A 
HETATM   35  N   UNK N   1      26.660  18.920   5.766  0.00  0.00    -0.309 N 
HETATM   36  N   UNK N   1      26.425  17.748   5.199  0.00  0.00    -0.301 N 
ATOM     37  HN  UNK N   1      25.956  19.618   6.009  1.00  0.00     0.186 HD
HETATM   38  C   UNK N   1      27.571  17.084   5.011  0.00  0.00     0.124 A 
BRANCH  36  39
HETATM   39  C   UNK N   1      25.099  17.222   4.931  0.00  0.00     0.174 C 
BRANCH  39  40
HETATM   40  C   UNK N   1      24.249  18.247   4.208  0.00  0.00     0.185 C 
BRANCH  40  41
HETATM   41  O   UNK N   1      25.054  19.005   3.362  0.00  0.00    -0.399 OA
HETATM   42  H   UNK N   1      25.571  19.306   2.597  0.00  0.00     0.209 HD
ENDBRANCH  40  41
ENDBRANCH  39  40
ENDBRANCH  36  39
ENDBRANCH  10  33
TORSDOF 8
ENDMDL
MODEL 7
REMARK VINA RESULT:      -7.9      4.124     11.319
REMARK  8 active torsions:
REMARK  status: ('A' for Active; 'I' for Inactive)
REMARK    1  A    between atoms: C_3  and  N_8 
REMARK       I    between atoms: N_8  and  C_9 
REMARK       I    between atoms: C_9  and  N_11 
REMARK    2  A    between atoms: N_11  and  C_12 
REMARK    3  A    between atoms: C_15  and  C_18 
REMARK    4  A    between atoms: C_23  and  N_37 
REMARK    5  A    between atoms: C_27  and  C_28 
REMARK    6  A    between atoms: N_32  and  C_34 
REMARK    7  A    between atoms: C_34  and  C_35 
REMARK    8  A    between atoms: C_35  and  O_36 
ROOT
HETATM    1  C   UNK N   1      32.757  15.631   7.741  0.00  0.00    -0.004 A 
HETATM    2  C   UNK N   1      32.472  14.250   7.792  0.00  0.00     0.063 A 
HETATM    3  S   UNK N   1      33.473  13.613   8.943  0.00  0.00    -0.099 SA
HETATM    4  C   UNK N   1      34.243  14.989   9.452  0.00  0.00     0.032 A 
HETATM    5  C   UNK N   1      33.759  16.060   8.705  0.00  0.00     0.037 A 
HETATM    6  C   UNK N   1      34.263  17.363   9.029  0.00  0.00     0.111 A 
HETATM    7  N   UNK N   1      35.164  17.494  10.036  0.00  0.00    -0.351 N 
ATOM      8  HN  UNK N   1      35.504  18.428  10.267  1.00  0.00     0.166 HD
HETATM    9  C   UNK N   1      35.630  16.440  10.746  0.00  0.00     0.103 A 
HETATM   10  C   UNK N   1      35.192  15.149  10.465  0.00  0.00     0.010 A 
ENDROOT
BRANCH   1  11
HETATM   11  C   UNK N   1      31.946  16.514   6.898  0.00  0.00    -0.024 A 
HETATM   12  C   UNK N   1      30.647  16.881   7.254  0.00  0.00     0.014 A 
HETATM   13  C   UNK N   1      29.753  17.376   6.314  0.00  0.00     0.030 A 
HETATM   14  C   UNK N   1      30.181  17.522   5.007  0.00  0.00     0.036 A 
HETATM   15  C   UNK N   1      31.526  17.288   4.670  0.00  0.00     0.030 A 
HETATM   16  C   UNK N   1      32.405  16.780   5.609  0.00  0.00     0.014 A 
BRANCH  14  17
HETATM   17  N   UNK N   1      29.310  17.960   3.991  0.00  0.00    -0.309 N 
HETATM   18  C   UNK N   1      28.338  17.102   3.661  0.00  0.00     0.325 C 
HETATM   19  N   UNK N   1      27.056  17.526   3.693  0.00  0.00    -0.309 N 
HETATM   20  O   UNK N   1      28.578  15.899   3.685  0.00  0.00    -0.247 OA
HETATM   21  H   UNK N   1      26.795  18.435   3.417  0.00  0.00     0.170 HD
HETATM   22  H   UNK N   1      29.410  18.837   3.552  0.00  0.00     0.170 HD
BRANCH  19  23
HETATM   23  C   UNK N   1      26.116  16.578   4.149  0.00  0.00     0.039 A 
HETATM   24  C   UNK N   1      25.897  16.407   5.513  0.00  0.00     0.030 A 
HETATM   25  C   UNK N   1      24.763  15.713   5.946  0.00  0.00     0.005 A 
HETATM   26  C   UNK N   1      23.832  15.227   5.018  0.00  0.00     0.042 A 
HETATM   27  C   UNK N   1      24.045  15.411   3.652  0.00  0.00     0.118 A 
HETATM   28  C   UNK N   1      25.175  16.095   3.222  0.00  0.00     0.071 A 
HETATM   29  F   UNK N   1      23.135  14.973   2.746  0.00  0.00    -0.206 F 
ENDBRANCH  19  23
ENDBRANCH  14  17
ENDBRANCH   1  11
BRANCH   6  30
HETATM   30  N   UNK N   1      33.858  18.538   8.383  0.00  0.00    -0.385 N 
HETATM   31  H   UNK N   1      34.526  19.126   7.962  0.00  0.00     0.157 HD
HETATM   32  H   UNK N   1      32.904  18.778   8.352  0.00  0.00     0.157 HD
ENDBRANCH   6  30
BRANCH  10  33
HETATM   33  C   UNK N   1      35.793  14.023  11.178  0.00  0.00     0.011 A 
HETATM   34  C   UNK N   1      36.739  13.142  10.684  0.00  0.00     0.121 A 
HETATM   35  N   UNK N   1      36.889  12.155  11.587  0.00  0.00    -0.309 N 
HETATM   36  N   UNK N   1      36.071  12.391  12.599  0.00  0.00    -0.301 N 
ATOM     37  HN  UNK N   1      37.525  11.361  11.505  1.00  0.00     0.186 HD
HETATM   38  C   UNK N   1      35.385  13.521  12.389  0.00  0.00     0.124 A 
BRANCH  36  39
HETATM   39  C   UNK N   1      35.870  11.485  13.715  0.00  0.00     0.174 C 
BRANCH  39  40
HETATM   40  C   UNK N   1      37.193  10.933  14.205  0.00  0.00     0.185 C 
BRANCH  40  41
HETATM   41  O   UNK N   1      38.127  11.964  14.282  0.00  0.00    -0.399 OA
HETATM   42  H   UNK N   1      38.923  12.504  14.158  0.00  0.00     0.209 HD
ENDBRANCH  40  41
ENDBRANCH  39  40
ENDBRANCH  36  39
ENDBRANCH  10  33
TORSDOF 8
ENDMDL
MODEL 8
REMARK VINA RESULT:      -7.8      4.841     12.174
REMARK  8 active torsions:
REMARK  status: ('A' for Active; 'I' for Inactive)
REMARK    1  A    between atoms: C_3  and  N_8 
REMARK       I    between atoms: N_8  and  C_9 
REMARK       I    between atoms: C_9  and  N_11 
REMARK    2  A    between atoms: N_11  and  C_12 
REMARK    3  A    between atoms: C_15  and  C_18 
REMARK    4  A    between atoms: C_23  and  N_37 
REMARK    5  A    between atoms: C_27  and  C_28 
REMARK    6  A    between atoms: N_32  and  C_34 
REMARK    7  A    between atoms: C_34  and  C_35 
REMARK    8  A    between atoms: C_35  and  O_36 
ROOT
HETATM    1  C   UNK N   1      35.069  12.725  11.300  0.00  0.00    -0.004 A 
HETATM    2  C   UNK N   1      34.528  11.440  11.518  0.00  0.00     0.063 A 
HETATM    3  S   UNK N   1      34.872  11.053  13.087  0.00  0.00    -0.099 SA
HETATM    4  C   UNK N   1      35.636  12.441  13.568  0.00  0.00     0.032 A 
HETATM    5  C   UNK N   1      35.689  13.309  12.481  0.00  0.00     0.037 A 
HETATM    6  C   UNK N   1      36.270  14.600  12.703  0.00  0.00     0.111 A 
HETATM    7  N   UNK N   1      36.725  14.919  13.942  0.00  0.00    -0.351 N 
ATOM      8  HN  UNK N   1      37.123  15.846  14.092  1.00  0.00     0.166 HD
HETATM    9  C   UNK N   1      36.674  14.059  14.986  0.00  0.00     0.103 A 
HETATM   10  C   UNK N   1      36.138  12.784  14.827  0.00  0.00     0.010 A 
ENDROOT
BRANCH   1  11
HETATM   11  C   UNK N   1      34.826  13.416  10.030  0.00  0.00    -0.024 A 
HETATM   12  C   UNK N   1      35.782  13.442   9.014  0.00  0.00     0.014 A 
HETATM   13  C   UNK N   1      35.732  14.389   7.999  0.00  0.00     0.030 A 
HETATM   14  C   UNK N   1      34.695  15.304   7.999  0.00  0.00     0.036 A 
HETATM   15  C   UNK N   1      33.653  15.196   8.938  0.00  0.00     0.030 A 
HETATM   16  C   UNK N   1      33.720  14.261   9.954  0.00  0.00     0.014 A 
BRANCH  14  17
HETATM   17  N   UNK N   1      34.616  16.329   7.037  0.00  0.00    -0.309 N 
HETATM   18  C   UNK N   1      33.537  16.288   6.246  0.00  0.00     0.325 C 
HETATM   19  N   UNK N   1      32.752  17.384   6.158  0.00  0.00    -0.309 N 
HETATM   20  O   UNK N   1      33.092  15.196   5.909  0.00  0.00    -0.247 OA
HETATM   21  H   UNK N   1      33.120  18.297   6.159  0.00  0.00     0.170 HD
HETATM   22  H   UNK N   1      35.306  17.026   6.951  0.00  0.00     0.170 HD
BRANCH  19  23
HETATM   23  C   UNK N   1      31.367  17.129   6.064  0.00  0.00     0.039 A 
HETATM   24  C   UNK N   1      30.581  17.098   7.212  0.00  0.00     0.030 A 
HETATM   25  C   UNK N   1      29.188  17.164   7.095  0.00  0.00     0.005 A 
HETATM   26  C   UNK N   1      28.589  17.300   5.836  0.00  0.00     0.042 A 
HETATM   27  C   UNK N   1      29.379  17.346   4.687  0.00  0.00     0.118 A 
HETATM   28  C   UNK N   1      30.761  17.275   4.804  0.00  0.00     0.071 A 
HETATM   29  F   UNK N   1      28.811  17.511   3.466  0.00  0.00    -0.206 F 
ENDBRANCH  19  23
ENDBRANCH  14  17
ENDBRANCH   1  11
BRANCH   6  30
HETATM   30  N   UNK N   1      36.375  15.589  11.716  0.00  0.00    -0.385 N 
HETATM   31  H   UNK N   1      35.597  15.812  11.154  0.00  0.00     0.157 HD
HETATM   32  H   UNK N   1      37.227  16.062  11.583  0.00  0.00     0.157 HD
ENDBRANCH   6  30
BRANCH  10  33
HETATM   33  C   UNK N   1      36.194  11.844  15.945  0.00  0.00     0.011 A 
HETATM   34  C   UNK N   1      36.851  10.626  15.969  0.00  0.00     0.121 A 
HETATM   35  N   UNK N   1      36.506   9.998  17.108  0.00  0.00    -0.309 N 
HETATM   36  N   UNK N   1      35.663  10.773  17.770  0.00  0.00    -0.301 N 
ATOM     37  HN  UNK N   1      36.838   9.081  17.410  1.00  0.00     0.186 HD
HETATM   38  C   UNK N   1      35.447  11.908  17.095  0.00  0.00     0.124 A 
BRANCH  36  39
HETATM   39  C   UNK N   1      34.984  10.386  18.993  0.00  0.00     0.174 C 
BRANCH  39  40
HETATM   40  C   UNK N   1      35.933  10.440  20.174  0.00  0.00     0.185 C 
BRANCH  40  41
HETATM   41  O   UNK N   1      36.075  11.759  20.597  0.00  0.00    -0.399 OA
HETATM   42  H   UNK N   1      36.407  12.662  20.720  0.00  0.00     0.209 HD
ENDBRANCH  40  41
ENDBRANCH  39  40
ENDBRANCH  36  39
ENDBRANCH  10  33
TORSDOF 8
ENDMDL
MODEL 9
REMARK VINA RESULT:      -7.8      3.910      5.766
REMARK  8 active torsions:
REMARK  status: ('A' for Active; 'I' for Inactive)
REMARK    1  A    between atoms: C_3  and  N_8 
REMARK       I    between atoms: N_8  and  C_9 
REMARK       I    between atoms: C_9  and  N_11 
REMARK    2  A    between atoms: N_11  and  C_12 
REMARK    3  A    between atoms: C_15  and  C_18 
REMARK    4  A    between atoms: C_23  and  N_37 
REMARK    5  A    between atoms: C_27  and  C_28 
REMARK    6  A    between atoms: N_32  and  C_34 
REMARK    7  A    between atoms: C_34  and  C_35 
REMARK    8  A    between atoms: C_35  and  O_36 
ROOT
HETATM    1  C   UNK N   1      27.220  16.331   3.808  0.00  0.00    -0.004 A 
HETATM    2  C   UNK N   1      26.210  15.455   3.359  0.00  0.00     0.063 A 
HETATM    3  S   UNK N   1      24.806  16.325   3.365  0.00  0.00    -0.099 SA
HETATM    4  C   UNK N   1      25.380  17.799   3.858  0.00  0.00     0.032 A 
HETATM    5  C   UNK N   1      26.749  17.682   4.076  0.00  0.00     0.037 A 
HETATM    6  C   UNK N   1      27.453  18.870   4.462  0.00  0.00     0.111 A 
HETATM    7  N   UNK N   1      26.769  20.036   4.584  0.00  0.00    -0.351 N 
ATOM      8  HN  UNK N   1      27.283  20.878   4.844  1.00  0.00     0.166 HD
HETATM    9  C   UNK N   1      25.435  20.130   4.375  0.00  0.00     0.103 A 
HETATM   10  C   UNK N   1      24.694  19.007   4.018  0.00  0.00     0.010 A 
ENDROOT
BRANCH   1  11
HETATM   11  C   UNK N   1      28.621  15.898   3.801  0.00  0.00    -0.024 A 
HETATM   12  C   UNK N   1      29.187  15.224   4.884  0.00  0.00     0.014 A 
HETATM   13  C   UNK N   1      30.563  15.159   5.055  0.00  0.00     0.030 A 
HETATM   14  C   UNK N   1      31.376  15.762   4.112  0.00  0.00     0.036 A 
HETATM   15  C   UNK N   1      30.819  16.320   2.948  0.00  0.00     0.030 A 
HETATM   16  C   UNK N   1      29.447  16.395   2.795  0.00  0.00     0.014 A 
BRANCH  14  17
HETATM   17  N   UNK N   1      32.777  15.788   4.255  0.00  0.00    -0.309 N 
HETATM   18  C   UNK N   1      33.225  16.286   5.413  0.00  0.00     0.325 C 
HETATM   19  N   UNK N   1      34.069  15.541   6.159  0.00  0.00    -0.309 N 
HETATM   20  O   UNK N   1      32.613  17.212   5.935  0.00  0.00    -0.247 OA
HETATM   21  H   UNK N   1      34.767  14.974   5.757  0.00  0.00     0.170 HD
HETATM   22  H   UNK N   1      33.384  15.463   3.551  0.00  0.00     0.170 HD
BRANCH  19  23
HETATM   23  C   UNK N   1      33.883  15.631   7.554  0.00  0.00     0.039 A 
HETATM   24  C   UNK N   1      33.145  14.661   8.228  0.00  0.00     0.030 A 
HETATM   25  C   UNK N   1      33.228  14.576   9.622  0.00  0.00     0.005 A 
HETATM   26  C   UNK N   1      34.077  15.434  10.333  0.00  0.00     0.042 A 
HETATM   27  C   UNK N   1      34.826  16.397   9.657  0.00  0.00     0.118 A 
HETATM   28  C   UNK N   1      34.739  16.484   8.273  0.00  0.00     0.071 A 
HETATM   29  F   UNK N   1      35.675  17.212  10.333  0.00  0.00    -0.206 F 
ENDBRANCH  19  23
ENDBRANCH  14  17
ENDBRANCH   1  11
BRANCH   6  30
HETATM   30  N   UNK N   1      28.834  18.917   4.697  0.00  0.00    -0.385 N 
HETATM   31  H   UNK N   1      29.466  18.831   3.947  0.00  0.00     0.157 HD
HETATM   32  H   UNK N   1      29.172  19.036   5.613  0.00  0.00     0.157 HD
ENDBRANCH   6  30
BRANCH  10  33
HETATM   33  C   UNK N   1      23.241  19.120   3.903  0.00  0.00     0.011 A 
HETATM   34  C   UNK N   1      22.298  18.396   4.611  0.00  0.00     0.121 A 
HETATM   35  N   UNK N   1      21.091  18.670   4.082  0.00  0.00    -0.309 N 
HETATM   36  N   UNK N   1      21.261  19.518   3.081  0.00  0.00    -0.301 N 
ATOM     37  HN  UNK N   1      20.198  18.290   4.399  1.00  0.00     0.186 HD
HETATM   38  C   UNK N   1      22.557  19.817   2.939  0.00  0.00     0.124 A 
BRANCH  36  39
HETATM   39  C   UNK N   1      20.198  19.959   2.196  0.00  0.00     0.174 C 
BRANCH  39  40
HETATM   40  C   UNK N   1      20.714  20.986   1.208  0.00  0.00     0.185 C 
BRANCH  40  41
HETATM   41  O   UNK N   1      20.599  20.486  -0.087  0.00  0.00    -0.399 OA
HETATM   42  H   UNK N   1      20.732  19.963  -0.894  0.00  0.00     0.209 HD
ENDBRANCH  40  41
ENDBRANCH  39  40
ENDBRANCH  36  39
ENDBRANCH  10  33
TORSDOF 8
ENDMDL
