MODEL 1
REMARK VINA RESULT:      -4.8      0.000      0.000
REMARK  5 active torsions:
REMARK  status: ('A' for Active; 'I' for Inactive)
REMARK    1  A    between atoms: C_1  and  C_4 
REMARK    2  A    between atoms: C_2  and  C_6 
REMARK    3  A    between atoms: C_3  and  O_8 
REMARK    4  A    between atoms: C_4  and  N_9 
REMARK    5  A    between atoms: C_6  and  O_12 
ROOT
HETATM    1  C   UNK N   1      23.504  12.584  10.412  0.00  0.00     0.004 A 
HETATM    2  C   UNK N   1      22.628  12.218  11.506  0.00  0.00    -0.009 A 
HETATM    3  C   UNK N   1      22.906  13.073   9.224  0.00  0.00     0.096 A 
HETATM    4  C   UNK N   1      21.248  12.373  11.315  0.00  0.00     0.098 A 
HETATM    5  C   UNK N   1      21.519  13.196   9.119  0.00  0.00     0.039 A 
HETATM    6  N   UNK N   1      20.729  12.846  10.157  0.00  0.00    -0.367 N 
ATOM      7  HN  UNK N   1      19.718  12.941  10.067  1.00  0.00     0.165 HD
HETATM    8  C   UNK N   1      20.894  13.712   7.866  0.00  0.00     0.071 C 
ENDROOT
BRANCH   1   9
HETATM    9  C   UNK N   1      25.027  12.523  10.332  0.00  0.00     0.153 C 
BRANCH   9  10
HETATM   10  N   UNK N   1      25.804  13.700  10.636  0.00  0.00    -0.426 N 
HETATM   11  H   UNK N   1      26.744  13.803  10.254  0.00  0.00     0.150 HD
HETATM   12  H   UNK N   1      25.412  14.429  11.232  0.00  0.00     0.150 HD
ENDBRANCH   9  10
ENDBRANCH   1   9
BRANCH   2  13
HETATM   13  C   UNK N   1      22.944  11.671  12.889  0.00  0.00     0.205 C 
BRANCH  13  14
HETATM   14  O   UNK N   1      23.791  12.382  13.722  0.00  0.00    -0.396 OA
HETATM   15  H   UNK N   1      23.869  13.344  13.627  0.00  0.00     0.209 HD
ENDBRANCH  13  14
ENDBRANCH   2  13
BRANCH   3  16
HETATM   16  O   UNK N   1      23.677  13.428   8.176  0.00  0.00    -0.358 OA
HETATM   17  H   UNK N   1      23.903  12.794   7.524  0.00  0.00     0.217 HD
ENDBRANCH   3  16
TORSDOF 5
ENDMDL
MODEL 2
REMARK VINA RESULT:      -4.8      2.201      3.555
REMARK  5 active torsions:
REMARK  status: ('A' for Active; 'I' for Inactive)
REMARK    1  A    between atoms: C_1  and  C_4 
REMARK    2  A    between atoms: C_2  and  C_6 
REMARK    3  A    between atoms: C_3  and  O_8 
REMARK    4  A    between atoms: C_4  and  N_9 
REMARK    5  A    between atoms: C_6  and  O_12 
ROOT
HETATM    1  C   UNK N   1      22.053  13.467   9.655  0.00  0.00     0.004 A 
HETATM    2  C   UNK N   1      23.299  12.910  10.140  0.00  0.00    -0.009 A 
HETATM    3  C   UNK N   1      20.858  13.083  10.313  0.00  0.00     0.096 A 
HETATM    4  C   UNK N   1      23.238  12.029  11.228  0.00  0.00     0.098 A 
HETATM    5  C   UNK N   1      20.889  12.198  11.393  0.00  0.00     0.039 A 
HETATM    6  N   UNK N   1      22.067  11.696  11.822  0.00  0.00    -0.367 N 
ATOM      7  HN  UNK N   1      22.075  11.050  12.611  1.00  0.00     0.165 HD
HETATM    8  C   UNK N   1      19.628  11.796  12.083  0.00  0.00     0.071 C 
ENDROOT
BRANCH   1   9
HETATM    9  C   UNK N   1      21.813  14.439   8.503  0.00  0.00     0.153 C 
BRANCH   9  10
HETATM   10  N   UNK N   1      21.049  14.012   7.357  0.00  0.00    -0.426 N 
HETATM   11  H   UNK N   1      20.385  14.651   6.919  0.00  0.00     0.150 HD
HETATM   12  H   UNK N   1      21.171  13.070   6.985  0.00  0.00     0.150 HD
ENDBRANCH   9  10
ENDBRANCH   1   9
BRANCH   2  13
HETATM   13  C   UNK N   1      24.728  13.114   9.665  0.00  0.00     0.205 C 
BRANCH  13  14
HETATM   14  O   UNK N   1      25.688  13.544  10.566  0.00  0.00    -0.396 OA
HETATM   15  H   UNK N   1      26.360  14.185  10.288  0.00  0.00     0.209 HD
ENDBRANCH  13  14
ENDBRANCH   2  13
BRANCH   3  16
HETATM   16  O   UNK N   1      19.671  13.573   9.900  0.00  0.00    -0.358 OA
HETATM   17  H   UNK N   1      18.980  12.988   9.659  0.00  0.00     0.217 HD
ENDBRANCH   3  16
TORSDOF 5
ENDMDL
MODEL 3
REMARK VINA RESULT:      -4.8      9.138     10.720
REMARK  5 active torsions:
REMARK  status: ('A' for Active; 'I' for Inactive)
REMARK    1  A    between atoms: C_1  and  C_4 
REMARK    2  A    between atoms: C_2  and  C_6 
REMARK    3  A    between atoms: C_3  and  O_8 
REMARK    4  A    between atoms: C_4  and  N_9 
REMARK    5  A    between atoms: C_6  and  O_12 
ROOT
HETATM    1  C   UNK N   1      21.464  19.796   2.695  0.00  0.00     0.004 A 
HETATM    2  C   UNK N   1      20.932  18.492   3.032  0.00  0.00    -0.009 A 
HETATM    3  C   UNK N   1      22.791  20.091   3.096  0.00  0.00     0.096 A 
HETATM    4  C   UNK N   1      21.766  17.610   3.734  0.00  0.00     0.098 A 
HETATM    5  C   UNK N   1      23.553  19.152   3.794  0.00  0.00     0.039 A 
HETATM    6  N   UNK N   1      23.028  17.944   4.094  0.00  0.00    -0.367 N 
ATOM      7  HN  UNK N   1      23.596  17.268   4.604  1.00  0.00     0.165 HD
HETATM    8  C   UNK N   1      24.950  19.467   4.215  0.00  0.00     0.071 C 
ENDROOT
BRANCH   1   9
HETATM    9  C   UNK N   1      20.797  20.947   1.946  0.00  0.00     0.153 C 
BRANCH   9  10
HETATM   10  N   UNK N   1      20.369  20.757   0.582  0.00  0.00    -0.426 N 
HETATM   11  H   UNK N   1      20.040  21.552   0.035  0.00  0.00     0.150 HD
HETATM   12  H   UNK N   1      20.395  19.826   0.165  0.00  0.00     0.150 HD
ENDBRANCH   9  10
ENDBRANCH   1   9
BRANCH   2  13
HETATM   13  C   UNK N   1      19.572  17.873   2.753  0.00  0.00     0.205 C 
BRANCH  13  14
HETATM   14  O   UNK N   1      18.509  18.695   2.419  0.00  0.00    -0.396 OA
HETATM   15  H   UNK N   1      18.596  19.328   1.690  0.00  0.00     0.209 HD
ENDBRANCH  13  14
ENDBRANCH   2  13
BRANCH   3  16
HETATM   16  O   UNK N   1      23.333  21.292   2.807  0.00  0.00    -0.358 OA
HETATM   17  H   UNK N   1      24.019  21.638   3.343  0.00  0.00     0.217 HD
ENDBRANCH   3  16
TORSDOF 5
ENDMDL
MODEL 4
REMARK VINA RESULT:      -4.7      1.598      3.087
REMARK  5 active torsions:
REMARK  status: ('A' for Active; 'I' for Inactive)
REMARK    1  A    between atoms: C_1  and  C_4 
REMARK    2  A    between atoms: C_2  and  C_6 
REMARK    3  A    between atoms: C_3  and  O_8 
REMARK    4  A    between atoms: C_4  and  N_9 
REMARK    5  A    between atoms: C_6  and  O_12 
ROOT
HETATM    1  C   UNK N   1      21.861  12.296  10.820  0.00  0.00     0.004 A 
HETATM    2  C   UNK N   1      23.013  12.054  11.664  0.00  0.00    -0.009 A 
HETATM    3  C   UNK N   1      22.082  12.444   9.428  0.00  0.00     0.096 A 
HETATM    4  C   UNK N   1      24.268  11.983  11.046  0.00  0.00     0.098 A 
HETATM    5  C   UNK N   1      23.370  12.358   8.896  0.00  0.00     0.039 A 
HETATM    6  N   UNK N   1      24.424  12.132   9.709  0.00  0.00    -0.367 N 
ATOM      7  HN  UNK N   1      25.359  12.071   9.307  1.00  0.00     0.165 HD
HETATM    8  C   UNK N   1      23.599  12.515   7.429  0.00  0.00     0.071 C 
ENDROOT
BRANCH   1   9
HETATM    9  C   UNK N   1      20.390  12.422  11.206  0.00  0.00     0.153 C 
BRANCH   9  10
HETATM   10  N   UNK N   1      19.816  11.486  12.142  0.00  0.00    -0.426 N 
HETATM   11  H   UNK N   1      19.586  10.539  11.840  0.00  0.00     0.150 HD
HETATM   12  H   UNK N   1      19.640  11.772  13.105  0.00  0.00     0.150 HD
ENDBRANCH   9  10
ENDBRANCH   1   9
BRANCH   2  13
HETATM   13  C   UNK N   1      23.116  11.854  13.167  0.00  0.00     0.205 C 
BRANCH  13  14
HETATM   14  O   UNK N   1      23.962  12.666  13.903  0.00  0.00    -0.396 OA
HETATM   15  H   UNK N   1      24.662  13.167  13.457  0.00  0.00     0.209 HD
ENDBRANCH  13  14
ENDBRANCH   2  13
BRANCH   3  16
HETATM   16  O   UNK N   1      21.043  12.671   8.599  0.00  0.00    -0.358 OA
HETATM   17  H   UNK N   1      20.616  11.953   8.175  0.00  0.00     0.217 HD
ENDBRANCH   3  16
TORSDOF 5
ENDMDL
MODEL 5
REMARK VINA RESULT:      -4.7      8.991     10.740
REMARK  5 active torsions:
REMARK  status: ('A' for Active; 'I' for Inactive)
REMARK    1  A    between atoms: C_1  and  C_4 
REMARK    2  A    between atoms: C_2  and  C_6 
REMARK    3  A    between atoms: C_3  and  O_8 
REMARK    4  A    between atoms: C_4  and  N_9 
REMARK    5  A    between atoms: C_6  and  O_12 
ROOT
HETATM    1  C   UNK N   1      21.289  19.945   2.628  0.00  0.00     0.004 A 
HETATM    2  C   UNK N   1      22.613  19.778   3.193  0.00  0.00    -0.009 A 
HETATM    3  C   UNK N   1      20.322  18.949   2.909  0.00  0.00     0.096 A 
HETATM    4  C   UNK N   1      22.846  18.643   3.980  0.00  0.00     0.098 A 
HETATM    5  C   UNK N   1      20.641  17.846   3.706  0.00  0.00     0.039 A 
HETATM    6  N   UNK N   1      21.883  17.720   4.218  0.00  0.00    -0.367 N 
ATOM      7  HN  UNK N   1      22.102  16.910   4.798  1.00  0.00     0.165 HD
HETATM    8  C   UNK N   1      19.618  16.800   4.000  0.00  0.00     0.071 C 
ENDROOT
BRANCH   1   9
HETATM    9  C   UNK N   1      20.752  21.066   1.743  0.00  0.00     0.153 C 
BRANCH   9  10
HETATM   10  N   UNK N   1      20.516  20.818   0.342  0.00  0.00    -0.426 N 
HETATM   11  H   UNK N   1      21.276  20.927  -0.331  0.00  0.00     0.150 HD
HETATM   12  H   UNK N   1      19.590  20.533   0.023  0.00  0.00     0.150 HD
ENDBRANCH   9  10
ENDBRANCH   1   9
BRANCH   2  13
HETATM   13  C   UNK N   1      23.854  20.649   3.085  0.00  0.00     0.205 C 
BRANCH  13  14
HETATM   14  O   UNK N   1      24.537  20.710   1.882  0.00  0.00    -0.396 OA
HETATM   15  H   UNK N   1      24.286  21.369   1.215  0.00  0.00     0.209 HD
ENDBRANCH  13  14
ENDBRANCH   2  13
BRANCH   3  16
HETATM   16  O   UNK N   1      19.075  19.056   2.407  0.00  0.00    -0.358 OA
HETATM   17  H   UNK N   1      18.949  19.296   1.510  0.00  0.00     0.217 HD
ENDBRANCH   3  16
TORSDOF 5
ENDMDL
MODEL 6
REMARK VINA RESULT:      -4.7      1.680      3.654
REMARK  5 active torsions:
REMARK  status: ('A' for Active; 'I' for Inactive)
REMARK    1  A    between atoms: C_1  and  C_4 
REMARK    2  A    between atoms: C_2  and  C_6 
REMARK    3  A    between atoms: C_3  and  O_8 
REMARK    4  A    between atoms: C_4  and  N_9 
REMARK    5  A    between atoms: C_6  and  O_12 
ROOT
HETATM    1  C   UNK N   1      23.450  12.532   9.636  0.00  0.00     0.004 A 
HETATM    2  C   UNK N   1      22.031  12.520   9.347  0.00  0.00    -0.009 A 
HETATM    3  C   UNK N   1      23.852  12.320  10.978  0.00  0.00     0.096 A 
HETATM    4  C   UNK N   1      21.151  12.301  10.415  0.00  0.00     0.098 A 
HETATM    5  C   UNK N   1      22.905  12.109  11.983  0.00  0.00     0.039 A 
HETATM    6  N   UNK N   1      21.589  12.104  11.681  0.00  0.00    -0.367 N 
ATOM      7  HN  UNK N   1      20.909  11.949  12.425  1.00  0.00     0.165 HD
HETATM    8  C   UNK N   1      23.333  11.887  13.396  0.00  0.00     0.071 C 
ENDROOT
BRANCH   1   9
HETATM    9  C   UNK N   1      24.627  12.743   8.687  0.00  0.00     0.153 C 
BRANCH   9  10
HETATM   10  N   UNK N   1      25.411  13.950   8.781  0.00  0.00    -0.426 N 
HETATM   11  H   UNK N   1      25.584  14.377   9.691  0.00  0.00     0.150 HD
HETATM   12  H   UNK N   1      25.792  14.378   7.937  0.00  0.00     0.150 HD
ENDBRANCH   9  10
ENDBRANCH   1   9
BRANCH   2  13
HETATM   13  C   UNK N   1      21.285  12.711   8.037  0.00  0.00     0.205 C 
BRANCH  13  14
HETATM   14  O   UNK N   1      20.344  13.722   7.933  0.00  0.00    -0.396 OA
HETATM   15  H   UNK N   1      20.123  14.091   7.063  0.00  0.00     0.209 HD
ENDBRANCH  13  14
ENDBRANCH   2  13
BRANCH   3  16
HETATM   16  O   UNK N   1      25.162  12.321  11.300  0.00  0.00    -0.358 OA
HETATM   17  H   UNK N   1      25.604  13.131  11.464  0.00  0.00     0.217 HD
ENDBRANCH   3  16
TORSDOF 5
ENDMDL
MODEL 7
REMARK VINA RESULT:      -4.7      8.014     10.800
REMARK  5 active torsions:
REMARK  status: ('A' for Active; 'I' for Inactive)
REMARK    1  A    between atoms: C_1  and  C_4 
REMARK    2  A    between atoms: C_2  and  C_6 
REMARK    3  A    between atoms: C_3  and  O_8 
REMARK    4  A    between atoms: C_4  and  N_9 
REMARK    5  A    between atoms: C_6  and  O_12 
ROOT
HETATM    1  C   UNK N   1      20.431  18.005   1.907  0.00  0.00     0.004 A 
HETATM    2  C   UNK N   1      20.763  19.394   2.154  0.00  0.00    -0.009 A 
HETATM    3  C   UNK N   1      20.403  17.126   3.018  0.00  0.00     0.096 A 
HETATM    4  C   UNK N   1      21.035  19.773   3.475  0.00  0.00     0.098 A 
HETATM    5  C   UNK N   1      20.688  17.590   4.305  0.00  0.00     0.039 A 
HETATM    6  N   UNK N   1      20.995  18.890   4.502  0.00  0.00    -0.367 N 
ATOM      7  HN  UNK N   1      21.201  19.215   5.446  1.00  0.00     0.165 HD
HETATM    8  C   UNK N   1      20.659  16.661   5.472  0.00  0.00     0.071 C 
ENDROOT
BRANCH   1   9
HETATM    9  C   UNK N   1      20.092  17.313   0.590  0.00  0.00     0.153 C 
BRANCH   9  10
HETATM   10  N   UNK N   1      18.738  16.888   0.335  0.00  0.00    -0.426 N 
HETATM   11  H   UNK N   1      18.448  15.938   0.570  0.00  0.00     0.150 HD
HETATM   12  H   UNK N   1      18.069  17.537  -0.080  0.00  0.00     0.150 HD
ENDBRANCH   9  10
ENDBRANCH   1   9
BRANCH   2  13
HETATM   13  C   UNK N   1      20.876  20.571   1.199  0.00  0.00     0.205 C 
BRANCH  13  14
HETATM   14  O   UNK N   1      20.547  20.396  -0.135  0.00  0.00    -0.396 OA
HETATM   15  H   UNK N   1      21.229  20.133  -0.772  0.00  0.00     0.209 HD
ENDBRANCH  13  14
ENDBRANCH   2  13
BRANCH   3  16
HETATM   16  O   UNK N   1      20.100  15.824   2.843  0.00  0.00    -0.358 OA
HETATM   17  H   UNK N   1      20.553  15.166   3.332  0.00  0.00     0.217 HD
ENDBRANCH   3  16
TORSDOF 5
ENDMDL
MODEL 8
REMARK VINA RESULT:      -4.5      9.519     11.129
REMARK  5 active torsions:
REMARK  status: ('A' for Active; 'I' for Inactive)
REMARK    1  A    between atoms: C_1  and  C_4 
REMARK    2  A    between atoms: C_2  and  C_6 
REMARK    3  A    between atoms: C_3  and  O_8 
REMARK    4  A    between atoms: C_4  and  N_9 
REMARK    5  A    between atoms: C_6  and  O_12 
ROOT
HETATM    1  C   UNK N   1      32.567  17.450   7.528  0.00  0.00     0.004 A 
HETATM    2  C   UNK N   1      31.139  17.348   7.745  0.00  0.00    -0.009 A 
HETATM    3  C   UNK N   1      33.034  17.434   6.190  0.00  0.00     0.096 A 
HETATM    4  C   UNK N   1      30.315  17.241   6.617  0.00  0.00     0.098 A 
HETATM    5  C   UNK N   1      32.140  17.324   5.122  0.00  0.00     0.039 A 
HETATM    6  N   UNK N   1      30.814  17.231   5.357  0.00  0.00    -0.367 N 
ATOM      7  HN  UNK N   1      30.173  17.152   4.568  1.00  0.00     0.165 HD
HETATM    8  C   UNK N   1      32.636  17.308   3.714  0.00  0.00     0.071 C 
ENDROOT
BRANCH   1   9
HETATM    9  C   UNK N   1      33.693  17.576   8.551  0.00  0.00     0.153 C 
BRANCH   9  10
HETATM   10  N   UNK N   1      34.607  18.688   8.471  0.00  0.00    -0.426 N 
HETATM   11  H   UNK N   1      34.539  19.454   9.141  0.00  0.00     0.150 HD
HETATM   12  H   UNK N   1      35.323  18.709   7.744  0.00  0.00     0.150 HD
ENDBRANCH   9  10
ENDBRANCH   1   9
BRANCH   2  13
HETATM   13  C   UNK N   1      30.330  17.335   9.032  0.00  0.00     0.205 C 
BRANCH  13  14
HETATM   14  O   UNK N   1      30.229  18.496   9.781  0.00  0.00    -0.396 OA
HETATM   15  H   UNK N   1      31.016  18.865  10.210  0.00  0.00     0.209 HD
ENDBRANCH  13  14
ENDBRANCH   2  13
BRANCH   3  16
HETATM   16  O   UNK N   1      34.354  17.526   5.933  0.00  0.00    -0.358 OA
HETATM   17  H   UNK N   1      34.679  17.343   5.074  0.00  0.00     0.217 HD
ENDBRANCH   3  16
TORSDOF 5
ENDMDL
MODEL 9
REMARK VINA RESULT:      -4.5     11.007     12.009
REMARK  5 active torsions:
REMARK  status: ('A' for Active; 'I' for Inactive)
REMARK    1  A    between atoms: C_1  and  C_4 
REMARK    2  A    between atoms: C_2  and  C_6 
REMARK    3  A    between atoms: C_3  and  O_8 
REMARK    4  A    between atoms: C_4  and  N_9 
REMARK    5  A    between atoms: C_6  and  O_12 
ROOT
HETATM    1  C   UNK N   1      34.300  14.691   9.700  0.00  0.00     0.004 A 
HETATM    2  C   UNK N   1      34.958  14.998  10.953  0.00  0.00    -0.009 A 
HETATM    3  C   UNK N   1      34.054  15.761   8.804  0.00  0.00     0.096 A 
HETATM    4  C   UNK N   1      35.307  16.333  11.194  0.00  0.00     0.098 A 
HETATM    5  C   UNK N   1      34.436  17.065   9.126  0.00  0.00     0.039 A 
HETATM    6  N   UNK N   1      35.048  17.319  10.302  0.00  0.00    -0.367 N 
ATOM      7  HN  UNK N   1      35.322  18.276  10.524  1.00  0.00     0.165 HD
HETATM    8  C   UNK N   1      34.175  18.189   8.180  0.00  0.00     0.071 C 
ENDROOT
BRANCH   1   9
HETATM    9  C   UNK N   1      33.811  13.346   9.170  0.00  0.00     0.153 C 
BRANCH   9  10
HETATM   10  N   UNK N   1      32.396  13.067   9.130  0.00  0.00    -0.426 N 
HETATM   11  H   UNK N   1      31.726  13.836   9.102  0.00  0.00     0.150 HD
HETATM   12  H   UNK N   1      32.066  12.102   9.129  0.00  0.00     0.150 HD
ENDBRANCH   9  10
ENDBRANCH   1   9
BRANCH   2  13
HETATM   13  C   UNK N   1      35.360  14.097  12.109  0.00  0.00     0.205 C 
BRANCH  13  14
HETATM   14  O   UNK N   1      34.396  13.320  12.730  0.00  0.00    -0.396 OA
HETATM   15  H   UNK N   1      34.662  12.577  13.294  0.00  0.00     0.209 HD
ENDBRANCH  13  14
ENDBRANCH   2  13
BRANCH   3  16
HETATM   16  O   UNK N   1      33.444  15.528   7.624  0.00  0.00    -0.358 OA
HETATM   17  H   UNK N   1      33.651  16.055   6.877  0.00  0.00     0.217 HD
ENDBRANCH   3  16
TORSDOF 5
ENDMDL
