MODEL 1
REMARK VINA RESULT:      -6.9      0.000      0.000
REMARK WARNING: 32 MAX_TORS EXCEEDED!!!
REMARK  57 active torsions:
REMARK  status: ('A' for Active; 'I' for Inactive)
REMARK    1  A    between atoms: C_2  and  C_3 
REMARK    2  A    between atoms: C_3  and  C_4 
REMARK    3  A    between atoms: C_4  and  C_5 
REMARK    4  A    between atoms: C_5  and  C_6 
REMARK    5  A    between atoms: C_6  and  C_7 
REMARK    6  A    between atoms: C_7  and  C_8 
REMARK    7  A    between atoms: C_8  and  O_10 
REMARK    8  A    between atoms: C_11  and  O_10 
REMARK    9  A    between atoms: C_15  and  O_16 
REMARK   10  A    between atoms: O_16  and  C_17 
REMARK   11  A    between atoms: C_17  and  C_19 
REMARK   12  A    between atoms: C_25  and  O_99 
REMARK   13  A    between atoms: C_26  and  O_34 
REMARK   14  A    between atoms: C_28  and  O_30 
REMARK   15  A    between atoms: O_30  and  C_31 
REMARK   16  A    between atoms: O_34  and  C_35 
REMARK   17  A    between atoms: C_35  and  C_37 
REMARK   18  A    between atoms: C_37  and  C_38 
REMARK   19  A    between atoms: C_38  and  C_39 
REMARK   20  A    between atoms: C_39  and  C_40 
REMARK   21  A    between atoms: C_40  and  C_41 
REMARK   22  A    between atoms: C_41  and  C_42 
REMARK   23  A    between atoms: C_42  and  C_43 
REMARK   24  A    between atoms: C_43  and  C_44 
REMARK   25  A    between atoms: C_44  and  C_45 
REMARK   26  A    between atoms: C_45  and  C_46 
REMARK   27  A    between atoms: C_46  and  C_47 
REMARK   28  A    between atoms: C_47  and  N_48 
REMARK       I    between atoms: N_48  and  C_49 
REMARK   29  A    between atoms: C_49  and  C_51 
REMARK   30  A    between atoms: C_51  and  C_52 
REMARK   31  A    between atoms: C_52  and  C_53 
REMARK   32  A    between atoms: C_52  and  N_92 
REMARK       I    between atoms: C_53  and  N_55 
REMARK   33  A    between atoms: C_56  and  N_55 
REMARK   34  A    between atoms: C_56  and  C_57 
REMARK   35  A    between atoms: C_56  and  C_89 
REMARK   36  A    between atoms: C_57  and  C_58 
REMARK   37  A    between atoms: C_58  and  C_59 
REMARK       I    between atoms: C_59  and  N_61 
REMARK   38  A    between atoms: C_62  and  N_61 
REMARK   39  A    between atoms: C_62  and  C_63 
REMARK   40  A    between atoms: C_62  and  C_86 
REMARK   41  A    between atoms: C_63  and  C_64 
REMARK   42  A    between atoms: C_64  and  C_65 
REMARK       I    between atoms: C_65  and  N_67 
REMARK   43  A    between atoms: C_68  and  N_67 
REMARK   44  A    between atoms: C_68  and  C_69 
REMARK   45  A    between atoms: C_68  and  C_83 
REMARK   46  A    between atoms: C_69  and  C_70 
REMARK   47  A    between atoms: C_70  and  C_71 
REMARK       I    between atoms: C_71  and  N_73 
REMARK   48  A    between atoms: C_74  and  N_73 
REMARK   49  A    between atoms: C_74  and  C_75 
REMARK   50  A    between atoms: C_74  and  C_80 
REMARK   51  A    between atoms: C_75  and  C_76 
REMARK   52  A    between atoms: C_76  and  C_77 
REMARK   53  A    between atoms: C_77  and  O_79 
REMARK   54  A    between atoms: C_80  and  O_82 
REMARK   55  A    between atoms: C_83  and  O_85 
REMARK   56  A    between atoms: C_86  and  O_88 
REMARK   57  A    between atoms: C_89  and  O_91 
ROOT
HETATM    1  C   UNK N   1      35.032  11.797   9.574  0.00  0.00     0.176 C 
HETATM    2  C   UNK N   1      34.230  12.970   8.995  0.00  0.00     0.085 C 
HETATM    3  C   UNK N   1      34.213  12.584   7.560  0.00  0.00    -0.033 C 
HETATM    4  C   UNK N   1      35.266  11.818   7.256  0.00  0.00    -0.046 C 
HETATM    5  C   UNK N   1      36.083  11.519   8.492  0.00  0.00     0.191 C 
HETATM    6  C   UNK N   1      35.615  11.349   5.877  0.00  0.00     0.046 C 
HETATM    7  C   UNK N   1      33.063  13.048   6.672  0.00  0.00     0.202 C 
HETATM    8  C   UNK N   1      32.780  14.573   6.508  0.00  0.00     0.154 C 
HETATM    9  C   UNK N   1      33.265  15.540   7.617  0.00  0.00     0.175 C 
HETATM   10  C   UNK N   1      34.706  15.316   8.027  0.00  0.00     0.075 C 
HETATM   11  C   UNK N   1      34.934  14.368   9.198  0.00  0.00     0.079 C 
HETATM   12  C   UNK N   1      36.458  14.288   9.232  0.00  0.00     0.047 C 
HETATM   13  C   UNK N   1      33.295  14.897   5.075  0.00  0.00     0.178 C 
HETATM   14  C   UNK N   1      33.242  13.544   4.481  0.00  0.00     0.297 C 
HETATM   15  O   UNK N   1      33.448  13.315   3.299  0.00  0.00    -0.262 OA
HETATM   16  O   UNK N   1      33.124  12.564   5.385  0.00  0.00    -0.306 OA
HETATM   17  C   UNK N   1      32.414  15.908   4.342  0.00  0.00     0.060 C 
HETATM   18  O   UNK N   1      34.621  15.334   5.066  0.00  0.00    -0.377 OA
HETATM   19  H   UNK N   1      35.549  15.582   4.933  0.00  0.00     0.211 HD
ENDROOT
BRANCH   8  20
HETATM   20  O   UNK N   1      31.382  14.661   6.496  0.00  0.00    -0.380 OA
HETATM   21  H   UNK N   1      30.530  14.957   6.855  0.00  0.00     0.211 HD
ENDBRANCH   8  20
BRANCH   9  22
HETATM   22  O   UNK N   1      33.187  16.841   7.176  0.00  0.00    -0.313 OA
BRANCH  22  23
HETATM   23  C   UNK N   1      32.891  17.843   8.033  0.00  0.00     0.259 C 
HETATM   24  O   UNK N   1      33.744  18.669   8.314  0.00  0.00    -0.265 OA
BRANCH  23  25
HETATM   25  C   UNK N   1      31.542  17.922   8.675  0.00  0.00     0.111 C 
BRANCH  25  26
HETATM   26  C   UNK N   1      30.408  17.740   7.665  0.00  0.00     0.010 C 
BRANCH  26  27
HETATM   27  C   UNK N   1      29.063  17.447   8.330  0.00  0.00     0.000 C 
BRANCH  27  28
HETATM   28  C   UNK N   1      28.177  18.680   8.362  0.00  0.00     0.000 C 
BRANCH  28  29
HETATM   29  C   UNK N   1      27.827  19.178   6.963  0.00  0.00     0.000 C 
BRANCH  29  30
HETATM   30  C   UNK N   1      27.132  20.538   6.968  0.00  0.00     0.000 C 
BRANCH  30  31
HETATM   31  C   UNK N   1      27.064  21.206   5.596  0.00  0.00     0.000 C 
BRANCH  31  32
HETATM   32  C   UNK N   1      27.434  20.263   4.454  0.00  0.00     0.000 C 
BRANCH  32  33
HETATM   33  C   UNK N   1      26.421  20.348   3.318  0.00  0.00     0.002 C 
BRANCH  33  34
HETATM   34  C   UNK N   1      24.995  20.134   3.804  0.00  0.00     0.020 C 
BRANCH  34  35
HETATM   35  C   UNK N   1      23.976  20.557   2.758  0.00  0.00     0.122 C 
BRANCH  35  36
HETATM   36  N   UNK N   1      22.635  20.147   3.098  0.00  0.00    -0.361 N 
HETATM   37  C   UNK N   1      21.531  20.415   2.352  0.00  0.00     0.220 C 
HETATM   38  O   UNK N   1      21.615  20.973   1.274  0.00  0.00    -0.274 OA
HETATM   39  H   UNK N   1      22.510  19.636   3.930  0.00  0.00     0.162 HD
BRANCH  37  40
HETATM   40  C   UNK N   1      20.188  20.046   2.874  0.00  0.00     0.137 C 
BRANCH  40  41
HETATM   41  C   UNK N   1      19.726  18.693   2.335  0.00  0.00     0.176 C 
BRANCH  41  42
HETATM   42  C   UNK N   1      20.134  17.555   3.222  0.00  0.00     0.241 C 
HETATM   43  O   UNK N   1      21.267  17.512   3.679  0.00  0.00    -0.271 OA
HETATM   44  N   UNK N   1      19.224  16.608   3.539  0.00  0.00    -0.345 N 
HETATM   45  H   UNK N   1      18.360  16.614   3.065  0.00  0.00     0.163 HD
BRANCH  44  46
HETATM   46  C   UNK N   1      19.453  15.590   4.535  0.00  0.00     0.182 C 
BRANCH  46  47
HETATM   47  C   UNK N   1      18.921  16.077   5.900  0.00  0.00     0.045 C 
BRANCH  47  48
HETATM   48  C   UNK N   1      19.895  15.805   7.055  0.00  0.00     0.105 C 
BRANCH  48  49
HETATM   49  C   UNK N   1      20.970  16.863   7.133  0.00  0.00     0.218 C 
HETATM   50  O   UNK N   1      20.696  17.979   7.546  0.00  0.00    -0.274 OA
HETATM   51  N   UNK N   1      22.246  16.602   6.752  0.00  0.00    -0.347 N 
HETATM   52  H   UNK N   1      22.915  17.311   6.887  0.00  0.00     0.163 HD
BRANCH  51  53
HETATM   53  C   UNK N   1      22.698  15.356   6.160  0.00  0.00     0.182 C 
BRANCH  53  54
HETATM   54  C   UNK N   1      23.717  15.564   5.041  0.00  0.00     0.045 C 
BRANCH  54  55
HETATM   55  C   UNK N   1      24.598  16.786   5.254  0.00  0.00     0.105 C 
BRANCH  55  56
HETATM   56  C   UNK N   1      26.003  16.325   5.377  0.00  0.00     0.218 C 
HETATM   57  O   UNK N   1      26.436  15.941   6.456  0.00  0.00    -0.274 OA
HETATM   58  N   UNK N   1      26.760  16.257   4.264  0.00  0.00    -0.347 N 
HETATM   59  H   UNK N   1      26.418  16.658   3.432  0.00  0.00     0.163 HD
BRANCH  58  60
HETATM   60  C   UNK N   1      28.053  15.618   4.246  0.00  0.00     0.182 C 
BRANCH  60  61
HETATM   61  C   UNK N   1      27.906  14.114   3.924  0.00  0.00     0.045 C 
BRANCH  61  62
HETATM   62  C   UNK N   1      26.745  13.782   2.977  0.00  0.00     0.105 C 
BRANCH  62  63
HETATM   63  C   UNK N   1      25.763  12.828   3.593  0.00  0.00     0.218 C 
HETATM   64  O   UNK N   1      25.736  12.698   4.806  0.00  0.00    -0.274 OA
HETATM   65  N   UNK N   1      24.939  12.077   2.828  0.00  0.00    -0.347 N 
HETATM   66  H   UNK N   1      24.308  11.459   3.264  0.00  0.00     0.163 HD
BRANCH  65  67
HETATM   67  C   UNK N   1      24.959  12.155   1.387  0.00  0.00     0.182 C 
BRANCH  67  68
HETATM   68  C   UNK N   1      23.592  12.563   0.839  0.00  0.00     0.046 C 
BRANCH  68  69
HETATM   69  C   UNK N   1      23.449  14.069   0.654  0.00  0.00     0.112 C 
BRANCH  69  70
HETATM   70  C   UNK N   1      22.194  14.556   1.296  0.00  0.00     0.139 C 
HETATM   71  O   UNK N   1      21.515  15.411   0.752  0.00  0.00    -0.650 OA
BRANCH  70  72
HETATM   72  O   UNK N   1      21.800  14.039   2.474  0.00  0.00    -0.776 OA
HETATM   73  H   UNK N   1      21.120  14.444   2.976  0.00  0.00     0.167 HD
ENDBRANCH  70  72
ENDBRANCH  69  70
ENDBRANCH  68  69
ENDBRANCH  67  68
BRANCH  67  74
HETATM   74  C   UNK N   1      25.479  10.877   0.803  0.00  0.00     0.163 C 
HETATM   75  O   UNK N   1      24.713  10.005   0.427  0.00  0.00    -0.648 OA
BRANCH  74  76
HETATM   76  O   UNK N   1      26.808  10.677   0.727  0.00  0.00    -0.775 OA
HETATM   77  H   UNK N   1      27.643  11.026   0.969  0.00  0.00     0.167 HD
ENDBRANCH  74  76
ENDBRANCH  67  74
ENDBRANCH  65  67
ENDBRANCH  62  63
ENDBRANCH  61  62
ENDBRANCH  60  61
BRANCH  60  78
HETATM   78  C   UNK N   1      28.962  16.345   3.299  0.00  0.00     0.163 C 
HETATM   79  O   UNK N   1      29.388  15.798   2.293  0.00  0.00    -0.648 OA
BRANCH  78  80
HETATM   80  O   UNK N   1      29.322  17.615   3.568  0.00  0.00    -0.775 OA
HETATM   81  H   UNK N   1      30.044  17.876   4.105  0.00  0.00     0.167 HD
ENDBRANCH  78  80
ENDBRANCH  60  78
ENDBRANCH  58  60
ENDBRANCH  55  56
ENDBRANCH  54  55
ENDBRANCH  53  54
BRANCH  53  82
HETATM   82  C   UNK N   1      23.248  14.412   7.198  0.00  0.00     0.163 C 
HETATM   83  O   UNK N   1      22.615  14.197   8.219  0.00  0.00    -0.648 OA
BRANCH  82  84
HETATM   84  O   UNK N   1      24.443  13.814   7.021  0.00  0.00    -0.775 OA
HETATM   85  H   UNK N   1      24.811  13.746   6.161  0.00  0.00     0.167 HD
ENDBRANCH  82  84
ENDBRANCH  53  82
ENDBRANCH  51  53
ENDBRANCH  48  49
ENDBRANCH  47  48
ENDBRANCH  46  47
BRANCH  46  86
HETATM   86  C   UNK N   1      18.798  14.300   4.108  0.00  0.00     0.163 C 
HETATM   87  O   UNK N   1      18.237  13.584   4.923  0.00  0.00    -0.648 OA
BRANCH  86  88
HETATM   88  O   UNK N   1      18.829  13.931   2.814  0.00  0.00    -0.775 OA
HETATM   89  H   UNK N   1      18.422  14.463   2.159  0.00  0.00     0.167 HD
ENDBRANCH  86  88
ENDBRANCH  46  86
ENDBRANCH  44  46
ENDBRANCH  41  42
BRANCH  41  90
HETATM   90  N   UNK N   1      20.307  18.501   1.016  0.00  0.00    -0.418 N 
HETATM   91  H   UNK N   1      21.227  18.074   0.910  0.00  0.00     0.150 HD
HETATM   92  H   UNK N   1      19.789  18.799   0.189  0.00  0.00     0.150 HD
ENDBRANCH  41  90
ENDBRANCH  40  41
ENDBRANCH  37  40
ENDBRANCH  35  36
ENDBRANCH  34  35
ENDBRANCH  33  34
ENDBRANCH  32  33
ENDBRANCH  31  32
ENDBRANCH  30  31
ENDBRANCH  29  30
ENDBRANCH  28  29
ENDBRANCH  27  28
ENDBRANCH  26  27
ENDBRANCH  25  26
ENDBRANCH  23  25
ENDBRANCH  22  23
ENDBRANCH   9  22
BRANCH  11  93
HETATM   93  O   UNK N   1      34.553  14.940  10.406  0.00  0.00    -0.310 OA
BRANCH  93  94
HETATM   94  C   UNK N   1      35.267  15.824  11.155  0.00  0.00     0.255 C 
HETATM   95  O   UNK N   1      35.264  17.018  10.901  0.00  0.00    -0.266 OA
HETATM   96  C   UNK N   1      36.037  15.328  12.328  0.00  0.00     0.126 C 
ENDBRANCH  93  94
ENDBRANCH  11  93
BRANCH   1  97
HETATM   97  O   UNK N   1      35.541  12.081  10.823  0.00  0.00    -0.312 OA
BRANCH  97  98
HETATM   98  C   UNK N   1      35.206  11.336  11.906  0.00  0.00     0.259 C 
HETATM   99  O   UNK N   1      34.072  10.895  12.035  0.00  0.00    -0.265 OA
BRANCH  98 100
HETATM  100  C   UNK N   1      36.212  11.128  12.991  0.00  0.00     0.111 C 
BRANCH 100 101
HETATM  101  C   UNK N   1      35.618  11.326  14.371  0.00  0.00     0.010 C 
BRANCH 101 102
HETATM  102  C   UNK N   1      35.382  12.805  14.637  0.00  0.00     0.000 C 
BRANCH 102 103
HETATM  103  C   UNK N   1      34.987  13.057  16.087  0.00  0.00     0.000 C 
BRANCH 103 104
HETATM  104  C   UNK N   1      35.972  13.983  16.792  0.00  0.00    -0.000 C 
BRANCH 104 105
HETATM  105  C   UNK N   1      37.009  14.536  15.826  0.00  0.00    -0.005 C 
HETATM  106  C   UNK N   1      37.404  15.950  16.208  0.00  0.00     0.005 C 
ENDBRANCH 104 105
ENDBRANCH 103 104
ENDBRANCH 102 103
ENDBRANCH 101 102
ENDBRANCH 100 101
ENDBRANCH  98 100
ENDBRANCH  97  98
ENDBRANCH   1  97
BRANCH   5 107
HETATM  107  O   UNK N   1      36.619  10.249   8.653  0.00  0.00    -0.305 OA
BRANCH 107 108
HETATM  108  C   UNK N   1      35.982   9.088   8.952  0.00  0.00     0.289 C 
HETATM  109  O   UNK N   1      35.946   8.674  10.104  0.00  0.00    -0.260 OA
BRANCH 108 110
HETATM  110  C   UNK N   1      35.335   8.326   7.851  0.00  0.00     0.009 C 
HETATM  111  C   UNK N   1      34.011   8.308   7.628  0.00  0.00    -0.018 C 
HETATM  112  C   UNK N   1      33.009   9.067   8.439  0.00  0.00     0.036 C 
HETATM  113  C   UNK N   1      36.206   7.558   6.910  0.00  0.00     0.054 C 
ENDBRANCH 108 110
ENDBRANCH 107 108
ENDBRANCH   5 107
TORSDOF 57
ENDMDL
MODEL 2
REMARK VINA RESULT:      -6.7      1.415      2.000
REMARK WARNING: 32 MAX_TORS EXCEEDED!!!
REMARK  57 active torsions:
REMARK  status: ('A' for Active; 'I' for Inactive)
REMARK    1  A    between atoms: C_2  and  C_3 
REMARK    2  A    between atoms: C_3  and  C_4 
REMARK    3  A    between atoms: C_4  and  C_5 
REMARK    4  A    between atoms: C_5  and  C_6 
REMARK    5  A    between atoms: C_6  and  C_7 
REMARK    6  A    between atoms: C_7  and  C_8 
REMARK    7  A    between atoms: C_8  and  O_10 
REMARK    8  A    between atoms: C_11  and  O_10 
REMARK    9  A    between atoms: C_15  and  O_16 
REMARK   10  A    between atoms: O_16  and  C_17 
REMARK   11  A    between atoms: C_17  and  C_19 
REMARK   12  A    between atoms: C_25  and  O_99 
REMARK   13  A    between atoms: C_26  and  O_34 
REMARK   14  A    between atoms: C_28  and  O_30 
REMARK   15  A    between atoms: O_30  and  C_31 
REMARK   16  A    between atoms: O_34  and  C_35 
REMARK   17  A    between atoms: C_35  and  C_37 
REMARK   18  A    between atoms: C_37  and  C_38 
REMARK   19  A    between atoms: C_38  and  C_39 
REMARK   20  A    between atoms: C_39  and  C_40 
REMARK   21  A    between atoms: C_40  and  C_41 
REMARK   22  A    between atoms: C_41  and  C_42 
REMARK   23  A    between atoms: C_42  and  C_43 
REMARK   24  A    between atoms: C_43  and  C_44 
REMARK   25  A    between atoms: C_44  and  C_45 
REMARK   26  A    between atoms: C_45  and  C_46 
REMARK   27  A    between atoms: C_46  and  C_47 
REMARK   28  A    between atoms: C_47  and  N_48 
REMARK       I    between atoms: N_48  and  C_49 
REMARK   29  A    between atoms: C_49  and  C_51 
REMARK   30  A    between atoms: C_51  and  C_52 
REMARK   31  A    between atoms: C_52  and  C_53 
REMARK   32  A    between atoms: C_52  and  N_92 
REMARK       I    between atoms: C_53  and  N_55 
REMARK   33  A    between atoms: C_56  and  N_55 
REMARK   34  A    between atoms: C_56  and  C_57 
REMARK   35  A    between atoms: C_56  and  C_89 
REMARK   36  A    between atoms: C_57  and  C_58 
REMARK   37  A    between atoms: C_58  and  C_59 
REMARK       I    between atoms: C_59  and  N_61 
REMARK   38  A    between atoms: C_62  and  N_61 
REMARK   39  A    between atoms: C_62  and  C_63 
REMARK   40  A    between atoms: C_62  and  C_86 
REMARK   41  A    between atoms: C_63  and  C_64 
REMARK   42  A    between atoms: C_64  and  C_65 
REMARK       I    between atoms: C_65  and  N_67 
REMARK   43  A    between atoms: C_68  and  N_67 
REMARK   44  A    between atoms: C_68  and  C_69 
REMARK   45  A    between atoms: C_68  and  C_83 
REMARK   46  A    between atoms: C_69  and  C_70 
REMARK   47  A    between atoms: C_70  and  C_71 
REMARK       I    between atoms: C_71  and  N_73 
REMARK   48  A    between atoms: C_74  and  N_73 
REMARK   49  A    between atoms: C_74  and  C_75 
REMARK   50  A    between atoms: C_74  and  C_80 
REMARK   51  A    between atoms: C_75  and  C_76 
REMARK   52  A    between atoms: C_76  and  C_77 
REMARK   53  A    between atoms: C_77  and  O_79 
REMARK   54  A    between atoms: C_80  and  O_82 
REMARK   55  A    between atoms: C_83  and  O_85 
REMARK   56  A    between atoms: C_86  and  O_88 
REMARK   57  A    between atoms: C_89  and  O_91 
ROOT
HETATM    1  C   UNK N   1      36.012  12.177  10.855  0.00  0.00     0.176 C 
HETATM    2  C   UNK N   1      35.206  13.082   9.913  0.00  0.00     0.085 C 
HETATM    3  C   UNK N   1      34.745  12.074   8.923  0.00  0.00    -0.033 C 
HETATM    4  C   UNK N   1      35.584  11.035   8.870  0.00  0.00    -0.046 C 
HETATM    5  C   UNK N   1      36.681  11.180   9.901  0.00  0.00     0.191 C 
HETATM    6  C   UNK N   1      35.480   9.898   7.900  0.00  0.00     0.046 C 
HETATM    7  C   UNK N   1      33.446  12.312   8.160  0.00  0.00     0.202 C 
HETATM    8  C   UNK N   1      33.289  13.592   7.282  0.00  0.00     0.154 C 
HETATM    9  C   UNK N   1      34.165  14.827   7.610  0.00  0.00     0.175 C 
HETATM   10  C   UNK N   1      35.631  14.497   7.796  0.00  0.00     0.075 C 
HETATM   11  C   UNK N   1      36.080  14.199   9.222  0.00  0.00     0.079 C 
HETATM   12  C   UNK N   1      37.535  13.793   9.003  0.00  0.00     0.047 C 
HETATM   13  C   UNK N   1      33.410  13.063   5.823  0.00  0.00     0.178 C 
HETATM   14  C   UNK N   1      33.052  11.645   6.043  0.00  0.00     0.297 C 
HETATM   15  O   UNK N   1      32.891  10.839   5.140  0.00  0.00    -0.262 OA
HETATM   16  O   UNK N   1      33.092  11.274   7.329  0.00  0.00    -0.306 OA
HETATM   17  C   UNK N   1      32.469  13.775   4.852  0.00  0.00     0.060 C 
HETATM   18  O   UNK N   1      34.718  13.119   5.337  0.00  0.00    -0.377 OA
HETATM   19  H   UNK N   1      35.592  13.049   4.922  0.00  0.00     0.211 HD
ENDROOT
BRANCH   8  20
HETATM   20  O   UNK N   1      31.961  13.987   7.490  0.00  0.00    -0.380 OA
HETATM   21  H   UNK N   1      31.224  14.284   8.046  0.00  0.00     0.211 HD
ENDBRANCH   8  20
BRANCH   9  22
HETATM   22  O   UNK N   1      34.102  15.737   6.580  0.00  0.00    -0.313 OA
BRANCH  22  23
HETATM   23  C   UNK N   1      33.759  17.023   6.816  0.00  0.00     0.259 C 
HETATM   24  O   UNK N   1      34.520  17.920   6.493  0.00  0.00    -0.265 OA
BRANCH  23  25
HETATM   25  C   UNK N   1      32.475  17.354   7.510  0.00  0.00     0.111 C 
BRANCH  25  26
HETATM   26  C   UNK N   1      31.263  17.206   6.588  0.00  0.00     0.010 C 
BRANCH  26  27
HETATM   27  C   UNK N   1      29.965  16.946   7.353  0.00  0.00     0.000 C 
BRANCH  27  28
HETATM   28  C   UNK N   1      29.266  18.244   7.721  0.00  0.00     0.000 C 
BRANCH  28  29
HETATM   29  C   UNK N   1      28.239  18.664   6.675  0.00  0.00     0.000 C 
BRANCH  29  30
HETATM   30  C   UNK N   1      27.659  20.054   6.929  0.00  0.00     0.000 C 
BRANCH  30  31
HETATM   31  C   UNK N   1      27.324  20.831   5.657  0.00  0.00     0.000 C 
BRANCH  31  32
HETATM   32  C   UNK N   1      27.452  19.986   4.392  0.00  0.00     0.000 C 
BRANCH  32  33
HETATM   33  C   UNK N   1      26.418  20.395   3.349  0.00  0.00     0.002 C 
BRANCH  33  34
HETATM   34  C   UNK N   1      24.999  20.062   3.787  0.00  0.00     0.020 C 
BRANCH  34  35
HETATM   35  C   UNK N   1      23.974  20.512   2.758  0.00  0.00     0.122 C 
BRANCH  35  36
HETATM   36  N   UNK N   1      22.633  20.107   3.102  0.00  0.00    -0.361 N 
HETATM   37  C   UNK N   1      21.531  20.357   2.348  0.00  0.00     0.220 C 
HETATM   38  O   UNK N   1      21.616  20.895   1.260  0.00  0.00    -0.274 OA
HETATM   39  H   UNK N   1      22.508  19.611   3.943  0.00  0.00     0.162 HD
BRANCH  37  40
HETATM   40  C   UNK N   1      20.187  19.995   2.874  0.00  0.00     0.137 C 
BRANCH  40  41
HETATM   41  C   UNK N   1      19.727  18.635   2.353  0.00  0.00     0.176 C 
BRANCH  41  42
HETATM   42  C   UNK N   1      20.177  17.505   3.230  0.00  0.00     0.241 C 
HETATM   43  O   UNK N   1      21.350  17.420   3.563  0.00  0.00    -0.271 OA
HETATM   44  N   UNK N   1      19.265  16.614   3.675  0.00  0.00    -0.345 N 
HETATM   45  H   UNK N   1      18.356  16.648   3.297  0.00  0.00     0.163 HD
BRANCH  44  46
HETATM   46  C   UNK N   1      19.555  15.616   4.675  0.00  0.00     0.182 C 
BRANCH  46  47
HETATM   47  C   UNK N   1      18.891  16.016   6.010  0.00  0.00     0.045 C 
BRANCH  47  48
HETATM   48  C   UNK N   1      19.722  15.616   7.238  0.00  0.00     0.105 C 
BRANCH  48  49
HETATM   49  C   UNK N   1      20.946  16.488   7.385  0.00  0.00     0.218 C 
HETATM   50  O   UNK N   1      20.834  17.624   7.820  0.00  0.00    -0.274 OA
HETATM   51  N   UNK N   1      22.179  16.037   7.045  0.00  0.00    -0.347 N 
HETATM   52  H   UNK N   1      22.945  16.629   7.225  0.00  0.00     0.163 HD
BRANCH  51  53
HETATM   53  C   UNK N   1      22.453  14.749   6.434  0.00  0.00     0.182 C 
BRANCH  53  54
HETATM   54  C   UNK N   1      23.333  14.856   5.189  0.00  0.00     0.045 C 
BRANCH  54  55
HETATM   55  C   UNK N   1      24.022  16.206   5.058  0.00  0.00     0.105 C 
BRANCH  55  56
HETATM   56  C   UNK N   1      25.399  15.973   4.554  0.00  0.00     0.218 C 
HETATM   57  O   UNK N   1      26.316  16.707   4.898  0.00  0.00    -0.274 OA
HETATM   58  N   UNK N   1      25.629  14.891   3.784  0.00  0.00    -0.347 N 
HETATM   59  H   UNK N   1      24.861  14.375   3.449  0.00  0.00     0.163 HD
BRANCH  58  60
HETATM   60  C   UNK N   1      26.960  14.462   3.434  0.00  0.00     0.182 C 
BRANCH  60  61
HETATM   61  C   UNK N   1      27.105  12.937   3.636  0.00  0.00     0.045 C 
BRANCH  61  62
HETATM   62  C   UNK N   1      26.376  12.089   2.584  0.00  0.00     0.105 C 
BRANCH  62  63
HETATM   63  C   UNK N   1      24.933  11.864   2.935  0.00  0.00     0.218 C 
HETATM   64  O   UNK N   1      24.603  11.824   4.108  0.00  0.00    -0.274 OA
HETATM   65  N   UNK N   1      24.002  11.660   1.976  0.00  0.00    -0.347 N 
HETATM   66  H   UNK N   1      23.065  11.514   2.240  0.00  0.00     0.163 HD
BRANCH  65  67
HETATM   67  C   UNK N   1      24.344  11.651   0.574  0.00  0.00     0.182 C 
BRANCH  67  68
HETATM   68  C   UNK N   1      23.648  12.789  -0.171  0.00  0.00     0.046 C 
BRANCH  68  69
HETATM   69  C   UNK N   1      22.295  13.153   0.429  0.00  0.00     0.112 C 
BRANCH  69  70
HETATM   70  C   UNK N   1      22.351  14.503   1.060  0.00  0.00     0.139 C 
HETATM   71  O   UNK N   1      21.417  15.279   0.941  0.00  0.00    -0.650 OA
BRANCH  70  72
HETATM   72  O   UNK N   1      23.432  14.862   1.777  0.00  0.00    -0.776 OA
HETATM   73  H   UNK N   1      23.520  15.732   2.114  0.00  0.00     0.167 HD
ENDBRANCH  70  72
ENDBRANCH  69  70
ENDBRANCH  68  69
ENDBRANCH  67  68
BRANCH  67  74
HETATM   74  C   UNK N   1      24.079  10.300  -0.018  0.00  0.00     0.163 C 
HETATM   75  O   UNK N   1      23.381  10.180  -1.012  0.00  0.00    -0.648 OA
BRANCH  74  76
HETATM   76  O   UNK N   1      24.589   9.205   0.577  0.00  0.00    -0.775 OA
HETATM   77  H   UNK N   1      24.470   8.601   1.283  0.00  0.00     0.167 HD
ENDBRANCH  74  76
ENDBRANCH  67  74
ENDBRANCH  65  67
ENDBRANCH  62  63
ENDBRANCH  61  62
ENDBRANCH  60  61
BRANCH  60  78
HETATM   78  C   UNK N   1      27.286  14.912   2.039  0.00  0.00     0.163 C 
HETATM   79  O   UNK N   1      28.428  14.852   1.611  0.00  0.00    -0.648 OA
BRANCH  78  80
HETATM   80  O   UNK N   1      26.306  15.399   1.254  0.00  0.00    -0.775 OA
HETATM   81  H   UNK N   1      26.022  16.292   1.226  0.00  0.00     0.167 HD
ENDBRANCH  78  80
ENDBRANCH  60  78
ENDBRANCH  58  60
ENDBRANCH  55  56
ENDBRANCH  54  55
ENDBRANCH  53  54
BRANCH  53  82
HETATM   82  C   UNK N   1      23.057  13.781   7.419  0.00  0.00     0.163 C 
HETATM   83  O   UNK N   1      22.684  13.786   8.581  0.00  0.00    -0.648 OA
BRANCH  82  84
HETATM   84  O   UNK N   1      24.021  12.921   7.036  0.00  0.00    -0.775 OA
HETATM   85  H   UNK N   1      24.156  12.124   7.512  0.00  0.00     0.167 HD
ENDBRANCH  82  84
ENDBRANCH  53  82
ENDBRANCH  51  53
ENDBRANCH  48  49
ENDBRANCH  47  48
ENDBRANCH  46  47
BRANCH  46  86
HETATM   86  C   UNK N   1      19.085  14.263   4.201  0.00  0.00     0.163 C 
HETATM   87  O   UNK N   1      18.097  13.736   4.691  0.00  0.00    -0.648 OA
BRANCH  86  88
HETATM   88  O   UNK N   1      19.757  13.627   3.223  0.00  0.00    -0.775 OA
HETATM   89  H   UNK N   1      19.874  12.698   3.255  0.00  0.00     0.167 HD
ENDBRANCH  86  88
ENDBRANCH  46  86
ENDBRANCH  44  46
ENDBRANCH  41  42
BRANCH  41  90
HETATM   90  N   UNK N   1      20.268  18.447   1.017  0.00  0.00    -0.418 N 
HETATM   91  H   UNK N   1      21.261  18.588   0.834  0.00  0.00     0.150 HD
HETATM   92  H   UNK N   1      19.647  18.172   0.255  0.00  0.00     0.150 HD
ENDBRANCH  41  90
ENDBRANCH  40  41
ENDBRANCH  37  40
ENDBRANCH  35  36
ENDBRANCH  34  35
ENDBRANCH  33  34
ENDBRANCH  32  33
ENDBRANCH  31  32
ENDBRANCH  30  31
ENDBRANCH  29  30
ENDBRANCH  28  29
ENDBRANCH  27  28
ENDBRANCH  26  27
ENDBRANCH  25  26
ENDBRANCH  23  25
ENDBRANCH  22  23
ENDBRANCH   9  22
BRANCH  11  93
HETATM   93  O   UNK N   1      36.116  15.349  10.001  0.00  0.00    -0.310 OA
BRANCH  93  94
HETATM   94  C   UNK N   1      35.055  16.108  10.390  0.00  0.00     0.255 C 
HETATM   95  O   UNK N   1      35.044  17.317  10.223  0.00  0.00    -0.266 OA
HETATM   96  C   UNK N   1      33.869  15.444  10.998  0.00  0.00     0.126 C 
ENDBRANCH  93  94
ENDBRANCH  11  93
BRANCH   1  97
HETATM   97  O   UNK N   1      36.878  12.896  11.650  0.00  0.00    -0.312 OA
BRANCH  97  98
HETATM   98  C   UNK N   1      36.527  13.284  12.902  0.00  0.00     0.259 C 
HETATM   99  O   UNK N   1      36.447  14.470  13.189  0.00  0.00    -0.265 OA
BRANCH  98 100
HETATM  100  C   UNK N   1      36.321  12.248  13.959  0.00  0.00     0.111 C 
BRANCH 100 101
HETATM  101  C   UNK N   1      34.922  12.291  14.540  0.00  0.00     0.010 C 
BRANCH 101 102
HETATM  102  C   UNK N   1      34.773  11.246  15.635  0.00  0.00     0.000 C 
BRANCH 102 103
HETATM  103  C   UNK N   1      35.305  11.754  16.970  0.00  0.00     0.000 C 
BRANCH 103 104
HETATM  104  C   UNK N   1      35.172  13.268  17.095  0.00  0.00    -0.000 C 
BRANCH 104 105
HETATM  105  C   UNK N   1      35.199  13.713  18.549  0.00  0.00    -0.005 C 
HETATM  106  C   UNK N   1      35.274  12.517  19.480  0.00  0.00     0.005 C 
ENDBRANCH 104 105
ENDBRANCH 103 104
ENDBRANCH 102 103
ENDBRANCH 101 102
ENDBRANCH 100 101
ENDBRANCH  98 100
ENDBRANCH  97  98
ENDBRANCH   1  97
BRANCH   5 107
HETATM  107  O   UNK N   1      37.105  10.056  10.595  0.00  0.00    -0.305 OA
BRANCH 107 108
HETATM  108  C   UNK N   1      36.402   8.940  10.918  0.00  0.00     0.289 C 
HETATM  109  O   UNK N   1      36.543   7.907  10.277  0.00  0.00    -0.260 OA
BRANCH 108 110
HETATM  110  C   UNK N   1      35.452   9.003  12.060  0.00  0.00     0.009 C 
HETATM  111  C   UNK N   1      35.792   8.738  13.332  0.00  0.00    -0.018 C 
HETATM  112  C   UNK N   1      37.170   8.367  13.778  0.00  0.00     0.036 C 
HETATM  113  C   UNK N   1      34.042   9.417  11.792  0.00  0.00     0.054 C 
ENDBRANCH 108 110
ENDBRANCH 107 108
ENDBRANCH   5 107
TORSDOF 57
ENDMDL
MODEL 3
REMARK VINA RESULT:      -6.6      2.377      6.473
REMARK WARNING: 32 MAX_TORS EXCEEDED!!!
REMARK  57 active torsions:
REMARK  status: ('A' for Active; 'I' for Inactive)
REMARK    1  A    between atoms: C_2  and  C_3 
REMARK    2  A    between atoms: C_3  and  C_4 
REMARK    3  A    between atoms: C_4  and  C_5 
REMARK    4  A    between atoms: C_5  and  C_6 
REMARK    5  A    between atoms: C_6  and  C_7 
REMARK    6  A    between atoms: C_7  and  C_8 
REMARK    7  A    between atoms: C_8  and  O_10 
REMARK    8  A    between atoms: C_11  and  O_10 
REMARK    9  A    between atoms: C_15  and  O_16 
REMARK   10  A    between atoms: O_16  and  C_17 
REMARK   11  A    between atoms: C_17  and  C_19 
REMARK   12  A    between atoms: C_25  and  O_99 
REMARK   13  A    between atoms: C_26  and  O_34 
REMARK   14  A    between atoms: C_28  and  O_30 
REMARK   15  A    between atoms: O_30  and  C_31 
REMARK   16  A    between atoms: O_34  and  C_35 
REMARK   17  A    between atoms: C_35  and  C_37 
REMARK   18  A    between atoms: C_37  and  C_38 
REMARK   19  A    between atoms: C_38  and  C_39 
REMARK   20  A    between atoms: C_39  and  C_40 
REMARK   21  A    between atoms: C_40  and  C_41 
REMARK   22  A    between atoms: C_41  and  C_42 
REMARK   23  A    between atoms: C_42  and  C_43 
REMARK   24  A    between atoms: C_43  and  C_44 
REMARK   25  A    between atoms: C_44  and  C_45 
REMARK   26  A    between atoms: C_45  and  C_46 
REMARK   27  A    between atoms: C_46  and  C_47 
REMARK   28  A    between atoms: C_47  and  N_48 
REMARK       I    between atoms: N_48  and  C_49 
REMARK   29  A    between atoms: C_49  and  C_51 
REMARK   30  A    between atoms: C_51  and  C_52 
REMARK   31  A    between atoms: C_52  and  C_53 
REMARK   32  A    between atoms: C_52  and  N_92 
REMARK       I    between atoms: C_53  and  N_55 
REMARK   33  A    between atoms: C_56  and  N_55 
REMARK   34  A    between atoms: C_56  and  C_57 
REMARK   35  A    between atoms: C_56  and  C_89 
REMARK   36  A    between atoms: C_57  and  C_58 
REMARK   37  A    between atoms: C_58  and  C_59 
REMARK       I    between atoms: C_59  and  N_61 
REMARK   38  A    between atoms: C_62  and  N_61 
REMARK   39  A    between atoms: C_62  and  C_63 
REMARK   40  A    between atoms: C_62  and  C_86 
REMARK   41  A    between atoms: C_63  and  C_64 
REMARK   42  A    between atoms: C_64  and  C_65 
REMARK       I    between atoms: C_65  and  N_67 
REMARK   43  A    between atoms: C_68  and  N_67 
REMARK   44  A    between atoms: C_68  and  C_69 
REMARK   45  A    between atoms: C_68  and  C_83 
REMARK   46  A    between atoms: C_69  and  C_70 
REMARK   47  A    between atoms: C_70  and  C_71 
REMARK       I    between atoms: C_71  and  N_73 
REMARK   48  A    between atoms: C_74  and  N_73 
REMARK   49  A    between atoms: C_74  and  C_75 
REMARK   50  A    between atoms: C_74  and  C_80 
REMARK   51  A    between atoms: C_75  and  C_76 
REMARK   52  A    between atoms: C_76  and  C_77 
REMARK   53  A    between atoms: C_77  and  O_79 
REMARK   54  A    between atoms: C_80  and  O_82 
REMARK   55  A    between atoms: C_83  and  O_85 
REMARK   56  A    between atoms: C_86  and  O_88 
REMARK   57  A    between atoms: C_89  and  O_91 
ROOT
HETATM    1  C   UNK N   1      34.581  10.930  11.687  0.00  0.00     0.176 C 
HETATM    2  C   UNK N   1      33.845  10.756  10.352  0.00  0.00     0.085 C 
HETATM    3  C   UNK N   1      33.461   9.324  10.457  0.00  0.00    -0.033 C 
HETATM    4  C   UNK N   1      34.304   8.658  11.253  0.00  0.00    -0.046 C 
HETATM    5  C   UNK N   1      35.322   9.598  11.860  0.00  0.00     0.191 C 
HETATM    6  C   UNK N   1      34.276   7.179  11.486  0.00  0.00     0.046 C 
HETATM    7  C   UNK N   1      32.222   8.824   9.723  0.00  0.00     0.202 C 
HETATM    8  C   UNK N   1      32.128   8.979   8.173  0.00  0.00     0.154 C 
HETATM    9  C   UNK N   1      32.974  10.080   7.486  0.00  0.00     0.175 C 
HETATM   10  C   UNK N   1      34.423  10.092   7.925  0.00  0.00     0.075 C 
HETATM   11  C   UNK N   1      34.765  11.007   9.095  0.00  0.00     0.079 C 
HETATM   12  C   UNK N   1      36.233  10.661   9.331  0.00  0.00     0.047 C 
HETATM   13  C   UNK N   1      32.358   7.536   7.637  0.00  0.00     0.178 C 
HETATM   14  C   UNK N   1      31.988   6.762   8.842  0.00  0.00     0.297 C 
HETATM   15  O   UNK N   1      31.896   5.545   8.864  0.00  0.00    -0.262 OA
HETATM   16  O   UNK N   1      31.933   7.499   9.958  0.00  0.00    -0.306 OA
HETATM   17  C   UNK N   1      31.489   7.206   6.424  0.00  0.00     0.060 C 
HETATM   18  O   UNK N   1      33.698   7.279   7.340  0.00  0.00    -0.377 OA
HETATM   19  H   UNK N   1      34.600   6.970   7.166  0.00  0.00     0.211 HD
ENDROOT
BRANCH   8  20
HETATM   20  O   UNK N   1      30.787   9.316   7.946  0.00  0.00    -0.380 OA
HETATM   21  H   UNK N   1      30.074   9.733   7.437  0.00  0.00     0.211 HD
ENDBRANCH   8  20
BRANCH   9  22
HETATM   22  O   UNK N   1      32.985   9.884   6.124  0.00  0.00    -0.313 OA
BRANCH  22  23
HETATM   23  C   UNK N   1      32.436  10.798   5.292  0.00  0.00     0.259 C 
HETATM   24  O   UNK N   1      31.534  11.514   5.693  0.00  0.00    -0.265 OA
BRANCH  23  25
HETATM   25  C   UNK N   1      32.893  10.906   3.871  0.00  0.00     0.111 C 
BRANCH  25  26
HETATM   26  C   UNK N   1      33.073  12.359   3.429  0.00  0.00     0.010 C 
BRANCH  26  27
HETATM   27  C   UNK N   1      31.967  12.833   2.486  0.00  0.00     0.000 C 
BRANCH  27  28
HETATM   28  C   UNK N   1      31.165  13.970   3.095  0.00  0.00     0.000 C 
BRANCH  28  29
HETATM   29  C   UNK N   1      29.685  13.623   3.235  0.00  0.00     0.000 C 
BRANCH  29  30
HETATM   30  C   UNK N   1      28.919  13.730   1.918  0.00  0.00     0.000 C 
BRANCH  30  31
HETATM   31  C   UNK N   1      27.834  14.805   1.915  0.00  0.00     0.000 C 
BRANCH  31  32
HETATM   32  C   UNK N   1      26.534  14.342   2.567  0.00  0.00     0.000 C 
BRANCH  32  33
HETATM   33  C   UNK N   1      25.319  14.861   1.805  0.00  0.00     0.002 C 
BRANCH  33  34
HETATM   34  C   UNK N   1      24.317  13.757   1.503  0.00  0.00     0.020 C 
BRANCH  34  35
HETATM   35  C   UNK N   1      22.937  14.319   1.201  0.00  0.00     0.122 C 
BRANCH  35  36
HETATM   36  N   UNK N   1      22.077  14.322   2.359  0.00  0.00    -0.361 N 
HETATM   37  C   UNK N   1      20.781  14.730   2.361  0.00  0.00     0.220 C 
HETATM   38  O   UNK N   1      20.220  15.062   1.333  0.00  0.00    -0.274 OA
HETATM   39  H   UNK N   1      22.456  14.004   3.210  0.00  0.00     0.162 HD
BRANCH  37  40
HETATM   40  C   UNK N   1      20.038  14.803   3.648  0.00  0.00     0.137 C 
BRANCH  40  41
HETATM   41  C   UNK N   1      20.049  16.217   4.224  0.00  0.00     0.176 C 
BRANCH  41  42
HETATM   42  C   UNK N   1      19.416  16.285   5.583  0.00  0.00     0.241 C 
HETATM   43  O   UNK N   1      18.248  15.960   5.730  0.00  0.00    -0.271 OA
HETATM   44  N   UNK N   1      20.166  16.669   6.639  0.00  0.00    -0.345 N 
HETATM   45  H   UNK N   1      21.066  17.030   6.467  0.00  0.00     0.163 HD
BRANCH  44  46
HETATM   46  C   UNK N   1      19.714  16.577   8.006  0.00  0.00     0.182 C 
BRANCH  46  47
HETATM   47  C   UNK N   1      20.683  15.683   8.809  0.00  0.00     0.045 C 
BRANCH  47  48
HETATM   48  C   UNK N   1      20.830  14.274   8.218  0.00  0.00     0.105 C 
BRANCH  48  49
HETATM   49  C   UNK N   1      22.207  13.708   8.473  0.00  0.00     0.218 C 
HETATM   50  O   UNK N   1      22.617  13.601   9.618  0.00  0.00    -0.274 OA
HETATM   51  N   UNK N   1      23.006  13.310   7.452  0.00  0.00    -0.347 N 
HETATM   52  H   UNK N   1      23.865  12.890   7.685  0.00  0.00     0.163 HD
BRANCH  51  53
HETATM   53  C   UNK N   1      22.690  13.460   6.043  0.00  0.00     0.182 C 
BRANCH  53  54
HETATM   54  C   UNK N   1      23.818  14.117   5.247  0.00  0.00     0.045 C 
BRANCH  54  55
HETATM   55  C   UNK N   1      23.851  15.631   5.396  0.00  0.00     0.105 C 
BRANCH  55  56
HETATM   56  C   UNK N   1      25.128  16.001   6.054  0.00  0.00     0.218 C 
HETATM   57  O   UNK N   1      25.594  15.297   6.940  0.00  0.00    -0.274 OA
HETATM   58  N   UNK N   1      25.802  17.075   5.597  0.00  0.00    -0.347 N 
HETATM   59  H   UNK N   1      25.360  17.672   4.950  0.00  0.00     0.163 HD
BRANCH  58  60
HETATM   60  C   UNK N   1      27.147  17.381   6.019  0.00  0.00     0.182 C 
BRANCH  60  61
HETATM   61  C   UNK N   1      28.168  16.557   5.204  0.00  0.00     0.045 C 
BRANCH  61  62
HETATM   62  C   UNK N   1      29.413  16.134   5.996  0.00  0.00     0.105 C 
BRANCH  62  63
HETATM   63  C   UNK N   1      30.644  16.877   5.560  0.00  0.00     0.218 C 
HETATM   64  O   UNK N   1      30.598  17.571   4.558  0.00  0.00    -0.274 OA
HETATM   65  N   UNK N   1      31.812  16.755   6.230  0.00  0.00    -0.347 N 
HETATM   66  H   UNK N   1      32.600  17.254   5.917  0.00  0.00     0.163 HD
BRANCH  65  67
HETATM   67  C   UNK N   1      31.935  15.911   7.395  0.00  0.00     0.182 C 
BRANCH  67  68
HETATM   68  C   UNK N   1      32.600  16.659   8.549  0.00  0.00     0.046 C 
BRANCH  68  69
HETATM   69  C   UNK N   1      32.884  18.121   8.227  0.00  0.00     0.112 C 
BRANCH  69  70
HETATM   70  C   UNK N   1      34.288  18.287   7.751  0.00  0.00     0.139 C 
HETATM   71  O   UNK N   1      34.646  17.782   6.699  0.00  0.00    -0.650 OA
BRANCH  70  72
HETATM   72  O   UNK N   1      35.160  19.009   8.478  0.00  0.00    -0.776 OA
HETATM   73  H   UNK N   1      35.124  19.945   8.485  0.00  0.00     0.167 HD
ENDBRANCH  70  72
ENDBRANCH  69  70
ENDBRANCH  68  69
ENDBRANCH  67  68
BRANCH  67  74
HETATM   74  C   UNK N   1      32.623  14.629   7.039  0.00  0.00     0.163 C 
HETATM   75  O   UNK N   1      33.408  14.580   6.106  0.00  0.00    -0.648 OA
BRANCH  74  76
HETATM   76  O   UNK N   1      32.342  13.511   7.735  0.00  0.00    -0.775 OA
HETATM   77  H   UNK N   1      32.714  12.835   8.266  0.00  0.00     0.167 HD
ENDBRANCH  74  76
ENDBRANCH  67  74
ENDBRANCH  65  67
ENDBRANCH  62  63
ENDBRANCH  61  62
ENDBRANCH  60  61
BRANCH  60  78
HETATM   78  C   UNK N   1      27.376  18.862   5.939  0.00  0.00     0.163 C 
HETATM   79  O   UNK N   1      27.808  19.377   4.919  0.00  0.00    -0.648 OA
BRANCH  78  80
HETATM   80  O   UNK N   1      27.111  19.633   7.011  0.00  0.00    -0.775 OA
HETATM   81  H   UNK N   1      26.597  20.417   7.007  0.00  0.00     0.167 HD
ENDBRANCH  78  80
ENDBRANCH  60  78
ENDBRANCH  58  60
ENDBRANCH  55  56
ENDBRANCH  54  55
ENDBRANCH  53  54
BRANCH  53  82
HETATM   82  C   UNK N   1      22.305  12.145   5.414  0.00  0.00     0.163 C 
HETATM   83  O   UNK N   1      22.451  11.982   4.214  0.00  0.00    -0.648 OA
BRANCH  82  84
HETATM   84  O   UNK N   1      21.783  11.151   6.161  0.00  0.00    -0.775 OA
HETATM   85  H   UNK N   1      22.077  11.021   7.041  0.00  0.00     0.167 HD
ENDBRANCH  82  84
ENDBRANCH  53  82
ENDBRANCH  51  53
ENDBRANCH  48  49
ENDBRANCH  47  48
ENDBRANCH  46  47
BRANCH  46  86
HETATM   86  C   UNK N   1      19.603  17.958   8.603  0.00  0.00     0.163 C 
HETATM   87  O   UNK N   1      20.324  18.866   8.219  0.00  0.00    -0.648 OA
BRANCH  86  88
HETATM   88  O   UNK N   1      18.697  18.197   9.570  0.00  0.00    -0.775 OA
HETATM   89  H   UNK N   1      18.118  18.930   9.506  0.00  0.00     0.167 HD
ENDBRANCH  86  88
ENDBRANCH  46  86
ENDBRANCH  44  46
ENDBRANCH  41  42
BRANCH  41  90
HETATM   90  N   UNK N   1      19.323  17.090   3.317  0.00  0.00    -0.418 N 
HETATM   91  H   UNK N   1      18.554  16.729   2.752  0.00  0.00     0.150 HD
HETATM   92  H   UNK N   1      19.586  18.073   3.244  0.00  0.00     0.150 HD
ENDBRANCH  41  90
ENDBRANCH  40  41
ENDBRANCH  37  40
ENDBRANCH  35  36
ENDBRANCH  34  35
ENDBRANCH  33  34
ENDBRANCH  32  33
ENDBRANCH  31  32
ENDBRANCH  30  31
ENDBRANCH  29  30
ENDBRANCH  28  29
ENDBRANCH  27  28
ENDBRANCH  26  27
ENDBRANCH  25  26
ENDBRANCH  23  25
ENDBRANCH  22  23
ENDBRANCH   9  22
BRANCH  11  93
HETATM   93  O   UNK N   1      34.740  12.346   8.726  0.00  0.00    -0.310 OA
BRANCH  93  94
HETATM   94  C   UNK N   1      35.794  13.100   8.309  0.00  0.00     0.255 C 
HETATM   95  O   UNK N   1      36.419  12.815   7.299  0.00  0.00    -0.266 OA
HETATM   96  C   UNK N   1      36.168  14.317   9.080  0.00  0.00     0.126 C 
ENDBRANCH  93  94
ENDBRANCH  11  93
BRANCH   1  97
HETATM   97  O   UNK N   1      35.384  12.050  11.695  0.00  0.00    -0.312 OA
BRANCH  97  98
HETATM   98  C   UNK N   1      35.228  13.022  12.629  0.00  0.00     0.259 C 
HETATM   99  O   UNK N   1      34.592  14.035  12.376  0.00  0.00    -0.265 OA
BRANCH  98 100
HETATM  100  C   UNK N   1      35.916  12.887  13.949  0.00  0.00     0.111 C 
BRANCH 100 101
HETATM  101  C   UNK N   1      34.951  12.997  15.113  0.00  0.00     0.010 C 
BRANCH 101 102
HETATM  102  C   UNK N   1      35.707  12.947  16.432  0.00  0.00     0.000 C 
BRANCH 102 103
HETATM  103  C   UNK N   1      35.255  11.774  17.292  0.00  0.00     0.000 C 
BRANCH 103 104
HETATM  104  C   UNK N   1      35.341  12.095  18.780  0.00  0.00    -0.000 C 
BRANCH 104 105
HETATM  105  C   UNK N   1      35.733  10.872  19.595  0.00  0.00    -0.005 C 
HETATM  106  C   UNK N   1      34.657  10.527  20.606  0.00  0.00     0.005 C 
ENDBRANCH 104 105
ENDBRANCH 103 104
ENDBRANCH 102 103
ENDBRANCH 101 102
ENDBRANCH 100 101
ENDBRANCH  98 100
ENDBRANCH  97  98
ENDBRANCH   1  97
BRANCH   5 107
HETATM  107  O   UNK N   1      35.696   9.420  13.184  0.00  0.00    -0.305 OA
BRANCH 107 108
HETATM  108  C   UNK N   1      36.818   8.839  13.680  0.00  0.00     0.289 C 
HETATM  109  O   UNK N   1      37.278   7.829  13.165  0.00  0.00    -0.260 OA
BRANCH 108 110
HETATM  110  C   UNK N   1      37.472   9.452  14.867  0.00  0.00     0.009 C 
HETATM  111  C   UNK N   1      37.178   9.126  16.136  0.00  0.00    -0.018 C 
HETATM  112  C   UNK N   1      36.173   8.090  16.530  0.00  0.00     0.036 C 
HETATM  113  C   UNK N   1      38.545  10.467  14.644  0.00  0.00     0.054 C 
ENDBRANCH 108 110
ENDBRANCH 107 108
ENDBRANCH   5 107
TORSDOF 57
ENDMDL
MODEL 4
REMARK VINA RESULT:      -6.6      1.781      3.606
REMARK WARNING: 32 MAX_TORS EXCEEDED!!!
REMARK  57 active torsions:
REMARK  status: ('A' for Active; 'I' for Inactive)
REMARK    1  A    between atoms: C_2  and  C_3 
REMARK    2  A    between atoms: C_3  and  C_4 
REMARK    3  A    between atoms: C_4  and  C_5 
REMARK    4  A    between atoms: C_5  and  C_6 
REMARK    5  A    between atoms: C_6  and  C_7 
REMARK    6  A    between atoms: C_7  and  C_8 
REMARK    7  A    between atoms: C_8  and  O_10 
REMARK    8  A    between atoms: C_11  and  O_10 
REMARK    9  A    between atoms: C_15  and  O_16 
REMARK   10  A    between atoms: O_16  and  C_17 
REMARK   11  A    between atoms: C_17  and  C_19 
REMARK   12  A    between atoms: C_25  and  O_99 
REMARK   13  A    between atoms: C_26  and  O_34 
REMARK   14  A    between atoms: C_28  and  O_30 
REMARK   15  A    between atoms: O_30  and  C_31 
REMARK   16  A    between atoms: O_34  and  C_35 
REMARK   17  A    between atoms: C_35  and  C_37 
REMARK   18  A    between atoms: C_37  and  C_38 
REMARK   19  A    between atoms: C_38  and  C_39 
REMARK   20  A    between atoms: C_39  and  C_40 
REMARK   21  A    between atoms: C_40  and  C_41 
REMARK   22  A    between atoms: C_41  and  C_42 
REMARK   23  A    between atoms: C_42  and  C_43 
REMARK   24  A    between atoms: C_43  and  C_44 
REMARK   25  A    between atoms: C_44  and  C_45 
REMARK   26  A    between atoms: C_45  and  C_46 
REMARK   27  A    between atoms: C_46  and  C_47 
REMARK   28  A    between atoms: C_47  and  N_48 
REMARK       I    between atoms: N_48  and  C_49 
REMARK   29  A    between atoms: C_49  and  C_51 
REMARK   30  A    between atoms: C_51  and  C_52 
REMARK   31  A    between atoms: C_52  and  C_53 
REMARK   32  A    between atoms: C_52  and  N_92 
REMARK       I    between atoms: C_53  and  N_55 
REMARK   33  A    between atoms: C_56  and  N_55 
REMARK   34  A    between atoms: C_56  and  C_57 
REMARK   35  A    between atoms: C_56  and  C_89 
REMARK   36  A    between atoms: C_57  and  C_58 
REMARK   37  A    between atoms: C_58  and  C_59 
REMARK       I    between atoms: C_59  and  N_61 
REMARK   38  A    between atoms: C_62  and  N_61 
REMARK   39  A    between atoms: C_62  and  C_63 
REMARK   40  A    between atoms: C_62  and  C_86 
REMARK   41  A    between atoms: C_63  and  C_64 
REMARK   42  A    between atoms: C_64  and  C_65 
REMARK       I    between atoms: C_65  and  N_67 
REMARK   43  A    between atoms: C_68  and  N_67 
REMARK   44  A    between atoms: C_68  and  C_69 
REMARK   45  A    between atoms: C_68  and  C_83 
REMARK   46  A    between atoms: C_69  and  C_70 
REMARK   47  A    between atoms: C_70  and  C_71 
REMARK       I    between atoms: C_71  and  N_73 
REMARK   48  A    between atoms: C_74  and  N_73 
REMARK   49  A    between atoms: C_74  and  C_75 
REMARK   50  A    between atoms: C_74  and  C_80 
REMARK   51  A    between atoms: C_75  and  C_76 
REMARK   52  A    between atoms: C_76  and  C_77 
REMARK   53  A    between atoms: C_77  and  O_79 
REMARK   54  A    between atoms: C_80  and  O_82 
REMARK   55  A    between atoms: C_83  and  O_85 
REMARK   56  A    between atoms: C_86  and  O_88 
REMARK   57  A    between atoms: C_89  and  O_91 
ROOT
HETATM    1  C   UNK N   1      36.237  11.948  10.534  0.00  0.00     0.176 C 
HETATM    2  C   UNK N   1      35.401  12.976   9.761  0.00  0.00     0.085 C 
HETATM    3  C   UNK N   1      34.818  12.096   8.715  0.00  0.00    -0.033 C 
HETATM    4  C   UNK N   1      35.603  11.037   8.485  0.00  0.00    -0.046 C 
HETATM    5  C   UNK N   1      36.784  11.034   9.430  0.00  0.00     0.191 C 
HETATM    6  C   UNK N   1      35.372  10.014   7.417  0.00  0.00     0.046 C 
HETATM    7  C   UNK N   1      33.475  12.459   8.091  0.00  0.00     0.202 C 
HETATM    8  C   UNK N   1      33.306  13.830   7.365  0.00  0.00     0.154 C 
HETATM    9  C   UNK N   1      34.260  14.990   7.743  0.00  0.00     0.175 C 
HETATM   10  C   UNK N   1      35.720  14.590   7.771  0.00  0.00     0.075 C 
HETATM   11  C   UNK N   1      36.266  14.127   9.117  0.00  0.00     0.079 C 
HETATM   12  C   UNK N   1      37.680  13.693   8.737  0.00  0.00     0.047 C 
HETATM   13  C   UNK N   1      33.288  13.454   5.854  0.00  0.00     0.178 C 
HETATM   14  C   UNK N   1      32.885  12.034   5.957  0.00  0.00     0.297 C 
HETATM   15  O   UNK N   1      32.617  11.335   4.993  0.00  0.00    -0.262 OA
HETATM   16  O   UNK N   1      33.010  11.528   7.190  0.00  0.00    -0.306 OA
HETATM   17  C   UNK N   1      32.305  14.298   5.044  0.00  0.00     0.060 C 
HETATM   18  O   UNK N   1      34.554  13.514   5.269  0.00  0.00    -0.377 OA
HETATM   19  H   UNK N   1      35.388  13.456   4.778  0.00  0.00     0.211 HD
ENDROOT
BRANCH   8  20
HETATM   20  O   UNK N   1      32.018  14.249   7.723  0.00  0.00    -0.380 OA
HETATM   21  H   UNK N   1      31.237  14.250   8.298  0.00  0.00     0.211 HD
ENDBRANCH   8  20
BRANCH   9  22
HETATM   22  O   UNK N   1      34.156  16.006   6.820  0.00  0.00    -0.313 OA
BRANCH  22  23
HETATM   23  C   UNK N   1      33.868  17.267   7.212  0.00  0.00     0.259 C 
HETATM   24  O   UNK N   1      34.649  18.170   6.961  0.00  0.00    -0.265 OA
BRANCH  23  25
HETATM   25  C   UNK N   1      32.623  17.557   7.991  0.00  0.00     0.111 C 
BRANCH  25  26
HETATM   26  C   UNK N   1      31.367  17.493   7.120  0.00  0.00     0.010 C 
BRANCH  26  27
HETATM   27  C   UNK N   1      30.109  17.150   7.918  0.00  0.00     0.000 C 
BRANCH  27  28
HETATM   28  C   UNK N   1      29.245  18.378   8.151  0.00  0.00     0.000 C 
BRANCH  28  29
HETATM   29  C   UNK N   1      28.269  18.624   7.005  0.00  0.00     0.000 C 
BRANCH  29  30
HETATM   30  C   UNK N   1      27.594  19.991   7.077  0.00  0.00     0.000 C 
BRANCH  30  31
HETATM   31  C   UNK N   1      27.479  20.700   5.728  0.00  0.00     0.000 C 
BRANCH  31  32
HETATM   32  C   UNK N   1      27.651  19.755   4.541  0.00  0.00     0.000 C 
BRANCH  32  33
HETATM   33  C   UNK N   1      26.602  20.022   3.467  0.00  0.00     0.002 C 
BRANCH  33  34
HETATM   34  C   UNK N   1      25.184  19.872   4.001  0.00  0.00     0.020 C 
BRANCH  34  35
HETATM   35  C   UNK N   1      24.151  20.330   2.984  0.00  0.00     0.122 C 
BRANCH  35  36
HETATM   36  N   UNK N   1      22.812  19.931   3.341  0.00  0.00    -0.361 N 
HETATM   37  C   UNK N   1      21.678  20.458   2.809  0.00  0.00     0.220 C 
HETATM   38  O   UNK N   1      21.722  21.279   1.911  0.00  0.00    -0.274 OA
HETATM   39  H   UNK N   1      22.711  19.224   4.019  0.00  0.00     0.162 HD
BRANCH  37  40
HETATM   40  C   UNK N   1      20.355  20.049   3.352  0.00  0.00     0.137 C 
BRANCH  40  41
HETATM   41  C   UNK N   1      19.698  18.977   2.485  0.00  0.00     0.176 C 
BRANCH  41  42
HETATM   42  C   UNK N   1      19.848  17.602   3.065  0.00  0.00     0.241 C 
HETATM   43  O   UNK N   1      20.291  16.694   2.377  0.00  0.00    -0.271 OA
HETATM   44  N   UNK N   1      19.526  17.395   4.360  0.00  0.00    -0.345 N 
HETATM   45  H   UNK N   1      19.069  18.118   4.849  0.00  0.00     0.163 HD
BRANCH  44  46
HETATM   46  C   UNK N   1      19.820  16.171   5.064  0.00  0.00     0.182 C 
BRANCH  46  47
HETATM   47  C   UNK N   1      20.109  16.486   6.547  0.00  0.00     0.045 C 
BRANCH  47  48
HETATM   48  C   UNK N   1      21.461  15.937   7.025  0.00  0.00     0.105 C 
BRANCH  48  49
HETATM   49  C   UNK N   1      22.611  16.598   6.304  0.00  0.00     0.218 C 
HETATM   50  O   UNK N   1      22.483  17.728   5.861  0.00  0.00    -0.274 OA
HETATM   51  N   UNK N   1      23.797  15.961   6.134  0.00  0.00    -0.347 N 
HETATM   52  H   UNK N   1      24.529  16.467   5.714  0.00  0.00     0.163 HD
BRANCH  51  53
HETATM   53  C   UNK N   1      24.065  14.589   6.525  0.00  0.00     0.182 C 
BRANCH  53  54
HETATM   54  C   UNK N   1      24.036  13.617   5.345  0.00  0.00     0.045 C 
BRANCH  54  55
HETATM   55  C   UNK N   1      22.626  13.234   4.920  0.00  0.00     0.105 C 
BRANCH  55  56
HETATM   56  C   UNK N   1      22.328  13.921   3.639  0.00  0.00     0.218 C 
HETATM   57  O   UNK N   1      22.548  15.119   3.514  0.00  0.00    -0.274 OA
HETATM   58  N   UNK N   1      21.895  13.184   2.597  0.00  0.00    -0.347 N 
HETATM   59  H   UNK N   1      21.640  12.246   2.753  0.00  0.00     0.163 HD
BRANCH  58  60
HETATM   60  C   UNK N   1      21.792  13.719   1.262  0.00  0.00     0.182 C 
BRANCH  60  61
HETATM   61  C   UNK N   1      22.926  13.165   0.371  0.00  0.00     0.045 C 
BRANCH  61  62
HETATM   62  C   UNK N   1      24.310  13.759   0.669  0.00  0.00     0.105 C 
BRANCH  62  63
HETATM   63  C   UNK N   1      25.053  12.975   1.712  0.00  0.00     0.218 C 
HETATM   64  O   UNK N   1      24.667  11.856   2.007  0.00  0.00    -0.274 OA
HETATM   65  N   UNK N   1      26.115  13.503   2.362  0.00  0.00    -0.347 N 
HETATM   66  H   UNK N   1      26.579  12.963   3.042  0.00  0.00     0.163 HD
BRANCH  65  67
HETATM   67  C   UNK N   1      26.588  14.838   2.087  0.00  0.00     0.182 C 
BRANCH  67  68
HETATM   68  C   UNK N   1      28.056  14.827   1.664  0.00  0.00     0.046 C 
BRANCH  68  69
HETATM   69  C   UNK N   1      28.640  13.422   1.577  0.00  0.00     0.112 C 
BRANCH  69  70
HETATM   70  C   UNK N   1      29.448  13.116   2.794  0.00  0.00     0.139 C 
HETATM   71  O   UNK N   1      30.532  12.566   2.691  0.00  0.00    -0.650 OA
BRANCH  70  72
HETATM   72  O   UNK N   1      28.984  13.462   4.009  0.00  0.00    -0.776 OA
HETATM   73  H   UNK N   1      29.328  14.207   4.462  0.00  0.00     0.167 HD
ENDBRANCH  70  72
ENDBRANCH  69  70
ENDBRANCH  68  69
ENDBRANCH  67  68
BRANCH  67  74
HETATM   74  C   UNK N   1      26.309  15.740   3.251  0.00  0.00     0.163 C 
HETATM   75  O   UNK N   1      25.260  16.358   3.324  0.00  0.00    -0.648 OA
BRANCH  74  76
HETATM   76  O   UNK N   1      27.244  15.895   4.207  0.00  0.00    -0.775 OA
HETATM   77  H   UNK N   1      27.975  15.486   4.627  0.00  0.00     0.167 HD
ENDBRANCH  74  76
ENDBRANCH  67  74
ENDBRANCH  65  67
ENDBRANCH  62  63
ENDBRANCH  61  62
ENDBRANCH  60  61
BRANCH  60  78
HETATM   78  C   UNK N   1      20.420  13.452   0.716  0.00  0.00     0.163 C 
HETATM   79  O   UNK N   1      20.113  12.343   0.305  0.00  0.00    -0.648 OA
BRANCH  78  80
HETATM   80  O   UNK N   1      19.519  14.451   0.669  0.00  0.00    -0.775 OA
HETATM   81  H   UNK N   1      18.735  14.505   1.180  0.00  0.00     0.167 HD
ENDBRANCH  78  80
ENDBRANCH  60  78
ENDBRANCH  58  60
ENDBRANCH  55  56
ENDBRANCH  54  55
ENDBRANCH  53  54
BRANCH  53  82
HETATM   82  C   UNK N   1      25.369  14.465   7.270  0.00  0.00     0.163 C 
HETATM   83  O   UNK N   1      26.411  14.801   6.730  0.00  0.00    -0.648 OA
BRANCH  82  84
HETATM   84  O   UNK N   1      25.402  13.970   8.524  0.00  0.00    -0.775 OA
HETATM   85  H   UNK N   1      25.297  14.544   9.258  0.00  0.00     0.167 HD
ENDBRANCH  82  84
ENDBRANCH  53  82
ENDBRANCH  51  53
ENDBRANCH  48  49
ENDBRANCH  47  48
ENDBRANCH  46  47
BRANCH  46  86
HETATM   86  C   UNK N   1      18.672  15.204   4.911  0.00  0.00     0.163 C 
HETATM   87  O   UNK N   1      18.770  14.225   4.187  0.00  0.00    -0.648 OA
BRANCH  86  88
HETATM   88  O   UNK N   1      17.524  15.419   5.581  0.00  0.00    -0.775 OA
HETATM   89  H   UNK N   1      16.800  14.832   5.482  0.00  0.00     0.167 HD
ENDBRANCH  86  88
ENDBRANCH  46  86
ENDBRANCH  44  46
ENDBRANCH  41  42
BRANCH  41  90
HETATM   90  N   UNK N   1      20.313  19.010   1.169  0.00  0.00    -0.418 N 
HETATM   91  H   UNK N   1      21.308  19.204   1.064  0.00  0.00     0.150 HD
HETATM   92  H   UNK N   1      19.742  18.837   0.341  0.00  0.00     0.150 HD
ENDBRANCH  41  90
ENDBRANCH  40  41
ENDBRANCH  37  40
ENDBRANCH  35  36
ENDBRANCH  34  35
ENDBRANCH  33  34
ENDBRANCH  32  33
ENDBRANCH  31  32
ENDBRANCH  30  31
ENDBRANCH  29  30
ENDBRANCH  28  29
ENDBRANCH  27  28
ENDBRANCH  26  27
ENDBRANCH  25  26
ENDBRANCH  23  25
ENDBRANCH  22  23
ENDBRANCH   9  22
BRANCH  11  93
HETATM   93  O   UNK N   1      36.415  15.186  10.004  0.00  0.00    -0.310 OA
BRANCH  93  94
HETATM   94  C   UNK N   1      35.433  15.998  10.482  0.00  0.00     0.255 C 
HETATM   95  O   UNK N   1      35.489  17.210  10.347  0.00  0.00    -0.266 OA
HETATM   96  C   UNK N   1      34.250  15.392  11.151  0.00  0.00     0.126 C 
ENDBRANCH  93  94
ENDBRANCH  11  93
BRANCH   1  97
HETATM   97  O   UNK N   1      37.195  12.546  11.324  0.00  0.00    -0.312 OA
BRANCH  97  98
HETATM   98  C   UNK N   1      36.954  12.835  12.627  0.00  0.00     0.259 C 
HETATM   99  O   UNK N   1      36.765  13.988  12.987  0.00  0.00    -0.265 OA
BRANCH  98 100
HETATM  100  C   UNK N   1      37.006  11.738  13.641  0.00  0.00     0.111 C 
BRANCH 100 101
HETATM  101  C   UNK N   1      36.885  12.262  15.059  0.00  0.00     0.010 C 
BRANCH 101 102
HETATM  102  C   UNK N   1      36.366  11.170  15.982  0.00  0.00     0.000 C 
BRANCH 102 103
HETATM  103  C   UNK N   1      36.633   9.782  15.414  0.00  0.00     0.000 C 
BRANCH 103 104
HETATM  104  C   UNK N   1      37.413   8.909  16.390  0.00  0.00    -0.000 C 
BRANCH 104 105
HETATM  105  C   UNK N   1      38.582   8.214  15.709  0.00  0.00    -0.005 C 
HETATM  106  C   UNK N   1      39.360   9.187  14.843  0.00  0.00     0.005 C 
ENDBRANCH 104 105
ENDBRANCH 103 104
ENDBRANCH 102 103
ENDBRANCH 101 102
ENDBRANCH 100 101
ENDBRANCH  98 100
ENDBRANCH  97  98
ENDBRANCH   1  97
BRANCH   5 107
HETATM  107  O   UNK N   1      37.211   9.828   9.968  0.00  0.00    -0.305 OA
BRANCH 107 108
HETATM  108  C   UNK N   1      36.652   9.095  10.966  0.00  0.00     0.289 C 
HETATM  109  O   UNK N   1      37.213   8.985  12.048  0.00  0.00    -0.260 OA
BRANCH 108 110
HETATM  110  C   UNK N   1      35.350   8.424  10.713  0.00  0.00     0.009 C 
HETATM  111  C   UNK N   1      34.184   8.824  11.246  0.00  0.00    -0.018 C 
HETATM  112  C   UNK N   1      34.030  10.009  12.146  0.00  0.00     0.036 C 
HETATM  113  C   UNK N   1      35.321   7.253   9.784  0.00  0.00     0.054 C 
ENDBRANCH 108 110
ENDBRANCH 107 108
ENDBRANCH   5 107
TORSDOF 57
ENDMDL
MODEL 5
REMARK VINA RESULT:      -6.6      2.359      5.667
REMARK WARNING: 32 MAX_TORS EXCEEDED!!!
REMARK  57 active torsions:
REMARK  status: ('A' for Active; 'I' for Inactive)
REMARK    1  A    between atoms: C_2  and  C_3 
REMARK    2  A    between atoms: C_3  and  C_4 
REMARK    3  A    between atoms: C_4  and  C_5 
REMARK    4  A    between atoms: C_5  and  C_6 
REMARK    5  A    between atoms: C_6  and  C_7 
REMARK    6  A    between atoms: C_7  and  C_8 
REMARK    7  A    between atoms: C_8  and  O_10 
REMARK    8  A    between atoms: C_11  and  O_10 
REMARK    9  A    between atoms: C_15  and  O_16 
REMARK   10  A    between atoms: O_16  and  C_17 
REMARK   11  A    between atoms: C_17  and  C_19 
REMARK   12  A    between atoms: C_25  and  O_99 
REMARK   13  A    between atoms: C_26  and  O_34 
REMARK   14  A    between atoms: C_28  and  O_30 
REMARK   15  A    between atoms: O_30  and  C_31 
REMARK   16  A    between atoms: O_34  and  C_35 
REMARK   17  A    between atoms: C_35  and  C_37 
REMARK   18  A    between atoms: C_37  and  C_38 
REMARK   19  A    between atoms: C_38  and  C_39 
REMARK   20  A    between atoms: C_39  and  C_40 
REMARK   21  A    between atoms: C_40  and  C_41 
REMARK   22  A    between atoms: C_41  and  C_42 
REMARK   23  A    between atoms: C_42  and  C_43 
REMARK   24  A    between atoms: C_43  and  C_44 
REMARK   25  A    between atoms: C_44  and  C_45 
REMARK   26  A    between atoms: C_45  and  C_46 
REMARK   27  A    between atoms: C_46  and  C_47 
REMARK   28  A    between atoms: C_47  and  N_48 
REMARK       I    between atoms: N_48  and  C_49 
REMARK   29  A    between atoms: C_49  and  C_51 
REMARK   30  A    between atoms: C_51  and  C_52 
REMARK   31  A    between atoms: C_52  and  C_53 
REMARK   32  A    between atoms: C_52  and  N_92 
REMARK       I    between atoms: C_53  and  N_55 
REMARK   33  A    between atoms: C_56  and  N_55 
REMARK   34  A    between atoms: C_56  and  C_57 
REMARK   35  A    between atoms: C_56  and  C_89 
REMARK   36  A    between atoms: C_57  and  C_58 
REMARK   37  A    between atoms: C_58  and  C_59 
REMARK       I    between atoms: C_59  and  N_61 
REMARK   38  A    between atoms: C_62  and  N_61 
REMARK   39  A    between atoms: C_62  and  C_63 
REMARK   40  A    between atoms: C_62  and  C_86 
REMARK   41  A    between atoms: C_63  and  C_64 
REMARK   42  A    between atoms: C_64  and  C_65 
REMARK       I    between atoms: C_65  and  N_67 
REMARK   43  A    between atoms: C_68  and  N_67 
REMARK   44  A    between atoms: C_68  and  C_69 
REMARK   45  A    between atoms: C_68  and  C_83 
REMARK   46  A    between atoms: C_69  and  C_70 
REMARK   47  A    between atoms: C_70  and  C_71 
REMARK       I    between atoms: C_71  and  N_73 
REMARK   48  A    between atoms: C_74  and  N_73 
REMARK   49  A    between atoms: C_74  and  C_75 
REMARK   50  A    between atoms: C_74  and  C_80 
REMARK   51  A    between atoms: C_75  and  C_76 
REMARK   52  A    between atoms: C_76  and  C_77 
REMARK   53  A    between atoms: C_77  and  O_79 
REMARK   54  A    between atoms: C_80  and  O_82 
REMARK   55  A    between atoms: C_83  and  O_85 
REMARK   56  A    between atoms: C_86  and  O_88 
REMARK   57  A    between atoms: C_89  and  O_91 
ROOT
HETATM    1  C   UNK N   1      33.304  13.507   6.133  0.00  0.00     0.176 C 
HETATM    2  C   UNK N   1      31.940  14.207   6.191  0.00  0.00     0.085 C 
HETATM    3  C   UNK N   1      31.430  13.886   4.833  0.00  0.00    -0.033 C 
HETATM    4  C   UNK N   1      32.437  13.681   3.978  0.00  0.00    -0.046 C 
HETATM    5  C   UNK N   1      33.768  13.754   4.692  0.00  0.00     0.191 C 
HETATM    6  C   UNK N   1      32.278  13.449   2.507  0.00  0.00     0.046 C 
HETATM    7  C   UNK N   1      29.926  13.804   4.597  0.00  0.00     0.202 C 
HETATM    8  C   UNK N   1      29.028  15.043   4.898  0.00  0.00     0.154 C 
HETATM    9  C   UNK N   1      29.538  16.100   5.908  0.00  0.00     0.175 C 
HETATM   10  C   UNK N   1      30.966  16.538   5.656  0.00  0.00     0.075 C 
HETATM   11  C   UNK N   1      32.049  15.767   6.403  0.00  0.00     0.079 C 
HETATM   12  C   UNK N   1      33.317  16.380   5.814  0.00  0.00     0.047 C 
HETATM   13  C   UNK N   1      28.666  15.595   3.488  0.00  0.00     0.178 C 
HETATM   14  C   UNK N   1      28.886  14.376   2.680  0.00  0.00     0.297 C 
HETATM   15  O   UNK N   1      28.607  14.289   1.495  0.00  0.00    -0.262 OA
HETATM   16  O   UNK N   1      29.583  13.427   3.318  0.00  0.00    -0.306 OA
HETATM   17  C   UNK N   1      27.233  16.119   3.403  0.00  0.00     0.060 C 
HETATM   18  O   UNK N   1      29.554  16.581   3.052  0.00  0.00    -0.377 OA
HETATM   19  H   UNK N   1      30.142  17.222   2.622  0.00  0.00     0.211 HD
ENDROOT
BRANCH   8  20
HETATM   20  O   UNK N   1      27.866  14.495   5.458  0.00  0.00    -0.380 OA
HETATM   21  H   UNK N   1      27.103  14.512   6.057  0.00  0.00     0.211 HD
ENDBRANCH   8  20
BRANCH   9  22
HETATM   22  O   UNK N   1      28.767  17.237   5.831  0.00  0.00    -0.313 OA
BRANCH  22  23
HETATM   23  C   UNK N   1      28.018  17.634   6.884  0.00  0.00     0.259 C 
HETATM   24  O   UNK N   1      27.258  16.843   7.417  0.00  0.00    -0.265 OA
BRANCH  23  25
HETATM   25  C   UNK N   1      28.078  19.048   7.372  0.00  0.00     0.111 C 
BRANCH  25  26
HETATM   26  C   UNK N   1      26.933  19.900   6.824  0.00  0.00     0.010 C 
BRANCH  26  27
HETATM   27  C   UNK N   1      27.410  20.979   5.852  0.00  0.00     0.000 C 
BRANCH  27  28
HETATM   28  C   UNK N   1      28.085  20.373   4.633  0.00  0.00     0.000 C 
BRANCH  28  29
HETATM   29  C   UNK N   1      27.119  19.549   3.788  0.00  0.00     0.000 C 
BRANCH  29  30
HETATM   30  C   UNK N   1      26.046  20.396   3.107  0.00  0.00     0.000 C 
BRANCH  30  31
HETATM   31  C   UNK N   1      24.616  19.993   3.465  0.00  0.00     0.000 C 
BRANCH  31  32
HETATM   32  C   UNK N   1      23.564  20.852   2.768  0.00  0.00     0.000 C 
BRANCH  32  33
HETATM   33  C   UNK N   1      22.198  20.174   2.788  0.00  0.00     0.002 C 
BRANCH  33  34
HETATM   34  C   UNK N   1      22.192  18.923   3.655  0.00  0.00     0.020 C 
BRANCH  34  35
HETATM   35  C   UNK N   1      20.786  18.561   4.107  0.00  0.00     0.122 C 
BRANCH  35  36
HETATM   36  N   UNK N   1      20.781  17.556   5.142  0.00  0.00    -0.361 N 
HETATM   37  C   UNK N   1      20.913  17.810   6.469  0.00  0.00     0.220 C 
HETATM   38  O   UNK N   1      20.972  18.949   6.893  0.00  0.00    -0.274 OA
HETATM   39  H   UNK N   1      20.673  16.617   4.865  0.00  0.00     0.162 HD
BRANCH  37  40
HETATM   40  C   UNK N   1      21.018  16.675   7.426  0.00  0.00     0.137 C 
BRANCH  40  41
HETATM   41  C   UNK N   1      21.736  15.479   6.803  0.00  0.00     0.176 C 
BRANCH  41  42
HETATM   42  C   UNK N   1      21.401  14.189   7.493  0.00  0.00     0.241 C 
HETATM   43  O   UNK N   1      20.366  13.601   7.220  0.00  0.00    -0.271 OA
HETATM   44  N   UNK N   1      22.276  13.674   8.384  0.00  0.00    -0.345 N 
HETATM   45  H   UNK N   1      23.041  14.229   8.662  0.00  0.00     0.163 HD
BRANCH  44  46
HETATM   46  C   UNK N   1      22.145  12.353   8.949  0.00  0.00     0.182 C 
BRANCH  46  47
HETATM   47  C   UNK N   1      23.528  11.668   8.980  0.00  0.00     0.045 C 
BRANCH  47  48
HETATM   48  C   UNK N   1      24.150  11.507   7.585  0.00  0.00     0.105 C 
BRANCH  48  49
HETATM   49  C   UNK N   1      24.947  12.728   7.191  0.00  0.00     0.218 C 
HETATM   50  O   UNK N   1      25.243  13.559   8.034  0.00  0.00    -0.274 OA
HETATM   51  N   UNK N   1      25.347  12.925   5.910  0.00  0.00    -0.347 N 
HETATM   52  H   UNK N   1      25.918  13.705   5.728  0.00  0.00     0.163 HD
BRANCH  51  53
HETATM   53  C   UNK N   1      24.995  12.073   4.789  0.00  0.00     0.182 C 
BRANCH  53  54
HETATM   54  C   UNK N   1      23.828  12.622   3.967  0.00  0.00     0.045 C 
BRANCH  54  55
HETATM   55  C   UNK N   1      23.819  14.142   3.885  0.00  0.00     0.105 C 
BRANCH  55  56
HETATM   56  C   UNK N   1      23.246  14.528   2.571  0.00  0.00     0.218 C 
HETATM   57  O   UNK N   1      23.982  14.843   1.645  0.00  0.00    -0.274 OA
HETATM   58  N   UNK N   1      21.913  14.439   2.397  0.00  0.00    -0.347 N 
HETATM   59  H   UNK N   1      21.342  14.274   3.183  0.00  0.00     0.163 HD
BRANCH  58  60
HETATM   60  C   UNK N   1      21.291  14.578   1.104  0.00  0.00     0.182 C 
BRANCH  60  61
HETATM   61  C   UNK N   1      20.542  13.281   0.725  0.00  0.00     0.045 C 
BRANCH  61  62
HETATM   62  C   UNK N   1      21.051  12.025   1.445  0.00  0.00     0.105 C 
BRANCH  62  63
HETATM   63  C   UNK N   1      19.960  11.020   1.677  0.00  0.00     0.218 C 
HETATM   64  O   UNK N   1      19.548  10.358   0.738  0.00  0.00    -0.274 OA
HETATM   65  N   UNK N   1      19.394  10.866   2.896  0.00  0.00    -0.347 N 
HETATM   66  H   UNK N   1      18.680  10.199   3.013  0.00  0.00     0.163 HD
BRANCH  65  67
HETATM   67  C   UNK N   1      19.810  11.654   4.031  0.00  0.00     0.182 C 
BRANCH  67  68
HETATM   68  C   UNK N   1      19.897  10.797   5.294  0.00  0.00     0.046 C 
BRANCH  68  69
HETATM   69  C   UNK N   1      21.331  10.493   5.709  0.00  0.00     0.112 C 
BRANCH  69  70
HETATM   70  C   UNK N   1      21.791   9.213   5.095  0.00  0.00     0.139 C 
HETATM   71  O   UNK N   1      21.554   8.148   5.641  0.00  0.00    -0.650 OA
BRANCH  70  72
HETATM   72  O   UNK N   1      22.459   9.234   3.927  0.00  0.00    -0.776 OA
HETATM   73  H   UNK N   1      22.782   8.443   3.543  0.00  0.00     0.167 HD
ENDBRANCH  70  72
ENDBRANCH  69  70
ENDBRANCH  68  69
ENDBRANCH  67  68
BRANCH  67  74
HETATM   74  C   UNK N   1      18.926  12.854   4.184  0.00  0.00     0.163 C 
HETATM   75  O   UNK N   1      17.712  12.737   4.195  0.00  0.00    -0.648 OA
BRANCH  74  76
HETATM   76  O   UNK N   1      19.481  14.078   4.272  0.00  0.00    -0.775 OA
HETATM   77  H   UNK N   1      19.596  14.893   3.824  0.00  0.00     0.167 HD
ENDBRANCH  74  76
ENDBRANCH  67  74
ENDBRANCH  65  67
ENDBRANCH  62  63
ENDBRANCH  61  62
ENDBRANCH  60  61
BRANCH  60  78
HETATM   78  C   UNK N   1      20.416  15.798   1.092  0.00  0.00     0.163 C 
HETATM   79  O   UNK N   1      20.550  16.658   0.235  0.00  0.00    -0.648 OA
BRANCH  78  80
HETATM   80  O   UNK N   1      19.478  15.950   2.046  0.00  0.00    -0.775 OA
HETATM   81  H   UNK N   1      18.565  15.761   1.950  0.00  0.00     0.167 HD
ENDBRANCH  78  80
ENDBRANCH  60  78
ENDBRANCH  58  60
ENDBRANCH  55  56
ENDBRANCH  54  55
ENDBRANCH  53  54
BRANCH  53  82
HETATM   82  C   UNK N   1      26.180  11.803   3.898  0.00  0.00     0.163 C 
HETATM   83  O   UNK N   1      26.028  11.743   2.689  0.00  0.00    -0.648 OA
BRANCH  82  84
HETATM   84  O   UNK N   1      27.406  11.610   4.422  0.00  0.00    -0.775 OA
HETATM   85  H   UNK N   1      27.850  10.794   4.290  0.00  0.00     0.167 HD
ENDBRANCH  82  84
ENDBRANCH  53  82
ENDBRANCH  51  53
ENDBRANCH  48  49
ENDBRANCH  47  48
ENDBRANCH  46  47
BRANCH  46  86
HETATM   86  C   UNK N   1      21.535  12.443  10.326  0.00  0.00     0.163 C 
HETATM   87  O   UNK N   1      22.176  12.128  11.317  0.00  0.00    -0.648 OA
BRANCH  86  88
HETATM   88  O   UNK N   1      20.269  12.877  10.468  0.00  0.00    -0.775 OA
HETATM   89  H   UNK N   1      19.552  12.276  10.416  0.00  0.00     0.167 HD
ENDBRANCH  86  88
ENDBRANCH  46  86
ENDBRANCH  44  46
ENDBRANCH  41  42
BRANCH  41  90
HETATM   90  N   UNK N   1      23.168  15.707   6.888  0.00  0.00    -0.418 N 
HETATM   91  H   UNK N   1      23.587  16.074   7.743  0.00  0.00     0.150 HD
HETATM   92  H   UNK N   1      23.761  15.499   6.084  0.00  0.00     0.150 HD
ENDBRANCH  41  90
ENDBRANCH  40  41
ENDBRANCH  37  40
ENDBRANCH  35  36
ENDBRANCH  34  35
ENDBRANCH  33  34
ENDBRANCH  32  33
ENDBRANCH  31  32
ENDBRANCH  30  31
ENDBRANCH  29  30
ENDBRANCH  28  29
ENDBRANCH  27  28
ENDBRANCH  26  27
ENDBRANCH  25  26
ENDBRANCH  23  25
ENDBRANCH  22  23
ENDBRANCH   9  22
BRANCH  11  93
HETATM   93  O   UNK N   1      32.064  16.081   7.756  0.00  0.00    -0.310 OA
BRANCH  93  94
HETATM   94  C   UNK N   1      32.082  17.325   8.308  0.00  0.00     0.255 C 
HETATM   95  O   UNK N   1      33.065  18.044   8.222  0.00  0.00    -0.266 OA
HETATM   96  C   UNK N   1      30.865  17.832   8.999  0.00  0.00     0.126 C 
ENDBRANCH  93  94
ENDBRANCH  11  93
BRANCH   1  97
HETATM   97  O   UNK N   1      34.164  13.962   7.109  0.00  0.00    -0.312 OA
BRANCH  97  98
HETATM   98  C   UNK N   1      34.264  13.334   8.308  0.00  0.00     0.259 C 
HETATM   99  O   UNK N   1      33.448  12.485   8.639  0.00  0.00    -0.265 OA
BRANCH  98 100
HETATM  100  C   UNK N   1      35.333  13.751   9.265  0.00  0.00     0.111 C 
BRANCH 100 101
HETATM  101  C   UNK N   1      35.421  15.257   9.407  0.00  0.00     0.010 C 
BRANCH 101 102
HETATM  102  C   UNK N   1      35.825  15.631  10.826  0.00  0.00     0.000 C 
BRANCH 102 103
HETATM  103  C   UNK N   1      35.337  14.600  11.837  0.00  0.00     0.000 C 
BRANCH 103 104
HETATM  104  C   UNK N   1      36.102  14.690  13.153  0.00  0.00    -0.000 C 
BRANCH 104 105
HETATM  105  C   UNK N   1      35.783  13.517  14.066  0.00  0.00    -0.005 C 
HETATM  106  C   UNK N   1      36.922  13.259  15.034  0.00  0.00     0.005 C 
ENDBRANCH 104 105
ENDBRANCH 103 104
ENDBRANCH 102 103
ENDBRANCH 101 102
ENDBRANCH 100 101
ENDBRANCH  98 100
ENDBRANCH  97  98
ENDBRANCH   1  97
BRANCH   5 107
HETATM  107  O   UNK N   1      34.767  12.856   4.345  0.00  0.00    -0.305 OA
BRANCH 107 108
HETATM  108  C   UNK N   1      36.004  13.111   3.847  0.00  0.00     0.289 C 
HETATM  109  O   UNK N   1      36.164  13.324   2.652  0.00  0.00    -0.260 OA
BRANCH 108 110
HETATM  110  C   UNK N   1      37.161  13.118   4.781  0.00  0.00     0.009 C 
HETATM  111  C   UNK N   1      38.053  12.118   4.877  0.00  0.00    -0.018 C 
HETATM  112  C   UNK N   1      38.020  10.876   4.046  0.00  0.00     0.036 C 
HETATM  113  C   UNK N   1      37.371  14.318   5.645  0.00  0.00     0.054 C 
ENDBRANCH 108 110
ENDBRANCH 107 108
ENDBRANCH   5 107
TORSDOF 57
ENDMDL
MODEL 6
REMARK VINA RESULT:      -6.5      2.897      6.187
REMARK WARNING: 32 MAX_TORS EXCEEDED!!!
REMARK  57 active torsions:
REMARK  status: ('A' for Active; 'I' for Inactive)
REMARK    1  A    between atoms: C_2  and  C_3 
REMARK    2  A    between atoms: C_3  and  C_4 
REMARK    3  A    between atoms: C_4  and  C_5 
REMARK    4  A    between atoms: C_5  and  C_6 
REMARK    5  A    between atoms: C_6  and  C_7 
REMARK    6  A    between atoms: C_7  and  C_8 
REMARK    7  A    between atoms: C_8  and  O_10 
REMARK    8  A    between atoms: C_11  and  O_10 
REMARK    9  A    between atoms: C_15  and  O_16 
REMARK   10  A    between atoms: O_16  and  C_17 
REMARK   11  A    between atoms: C_17  and  C_19 
REMARK   12  A    between atoms: C_25  and  O_99 
REMARK   13  A    between atoms: C_26  and  O_34 
REMARK   14  A    between atoms: C_28  and  O_30 
REMARK   15  A    between atoms: O_30  and  C_31 
REMARK   16  A    between atoms: O_34  and  C_35 
REMARK   17  A    between atoms: C_35  and  C_37 
REMARK   18  A    between atoms: C_37  and  C_38 
REMARK   19  A    between atoms: C_38  and  C_39 
REMARK   20  A    between atoms: C_39  and  C_40 
REMARK   21  A    between atoms: C_40  and  C_41 
REMARK   22  A    between atoms: C_41  and  C_42 
REMARK   23  A    between atoms: C_42  and  C_43 
REMARK   24  A    between atoms: C_43  and  C_44 
REMARK   25  A    between atoms: C_44  and  C_45 
REMARK   26  A    between atoms: C_45  and  C_46 
REMARK   27  A    between atoms: C_46  and  C_47 
REMARK   28  A    between atoms: C_47  and  N_48 
REMARK       I    between atoms: N_48  and  C_49 
REMARK   29  A    between atoms: C_49  and  C_51 
REMARK   30  A    between atoms: C_51  and  C_52 
REMARK   31  A    between atoms: C_52  and  C_53 
REMARK   32  A    between atoms: C_52  and  N_92 
REMARK       I    between atoms: C_53  and  N_55 
REMARK   33  A    between atoms: C_56  and  N_55 
REMARK   34  A    between atoms: C_56  and  C_57 
REMARK   35  A    between atoms: C_56  and  C_89 
REMARK   36  A    between atoms: C_57  and  C_58 
REMARK   37  A    between atoms: C_58  and  C_59 
REMARK       I    between atoms: C_59  and  N_61 
REMARK   38  A    between atoms: C_62  and  N_61 
REMARK   39  A    between atoms: C_62  and  C_63 
REMARK   40  A    between atoms: C_62  and  C_86 
REMARK   41  A    between atoms: C_63  and  C_64 
REMARK   42  A    between atoms: C_64  and  C_65 
REMARK       I    between atoms: C_65  and  N_67 
REMARK   43  A    between atoms: C_68  and  N_67 
REMARK   44  A    between atoms: C_68  and  C_69 
REMARK   45  A    between atoms: C_68  and  C_83 
REMARK   46  A    between atoms: C_69  and  C_70 
REMARK   47  A    between atoms: C_70  and  C_71 
REMARK       I    between atoms: C_71  and  N_73 
REMARK   48  A    between atoms: C_74  and  N_73 
REMARK   49  A    between atoms: C_74  and  C_75 
REMARK   50  A    between atoms: C_74  and  C_80 
REMARK   51  A    between atoms: C_75  and  C_76 
REMARK   52  A    between atoms: C_76  and  C_77 
REMARK   53  A    between atoms: C_77  and  O_79 
REMARK   54  A    between atoms: C_80  and  O_82 
REMARK   55  A    between atoms: C_83  and  O_85 
REMARK   56  A    between atoms: C_86  and  O_88 
REMARK   57  A    between atoms: C_89  and  O_91 
ROOT
HETATM    1  C   UNK N   1      32.898  13.600   6.391  0.00  0.00     0.176 C 
HETATM    2  C   UNK N   1      31.659  14.505   6.375  0.00  0.00     0.085 C 
HETATM    3  C   UNK N   1      31.107  14.158   5.040  0.00  0.00    -0.033 C 
HETATM    4  C   UNK N   1      32.071  13.733   4.217  0.00  0.00    -0.046 C 
HETATM    5  C   UNK N   1      33.396  13.656   4.941  0.00  0.00     0.191 C 
HETATM    6  C   UNK N   1      31.880  13.411   2.767  0.00  0.00     0.046 C 
HETATM    7  C   UNK N   1      29.608  14.290   4.791  0.00  0.00     0.202 C 
HETATM    8  C   UNK N   1      28.912  15.673   4.981  0.00  0.00     0.154 C 
HETATM    9  C   UNK N   1      29.579  16.716   5.911  0.00  0.00     0.175 C 
HETATM   10  C   UNK N   1      31.058  16.908   5.645  0.00  0.00     0.075 C 
HETATM   11  C   UNK N   1      32.008  16.041   6.464  0.00  0.00     0.079 C 
HETATM   12  C   UNK N   1      33.356  16.402   5.846  0.00  0.00     0.047 C 
HETATM   13  C   UNK N   1      28.642  16.160   3.527  0.00  0.00     0.178 C 
HETATM   14  C   UNK N   1      28.672  14.860   2.821  0.00  0.00     0.297 C 
HETATM   15  O   UNK N   1      28.384  14.723   1.643  0.00  0.00    -0.262 OA
HETATM   16  O   UNK N   1      29.213  13.870   3.541  0.00  0.00    -0.306 OA
HETATM   17  C   UNK N   1      27.307  16.889   3.382  0.00  0.00     0.060 C 
HETATM   18  O   UNK N   1      29.672  16.959   3.027  0.00  0.00    -0.377 OA
HETATM   19  H   UNK N   1      30.352  17.465   2.555  0.00  0.00     0.211 HD
ENDROOT
BRANCH   8  20
HETATM   20  O   UNK N   1      27.680  15.357   5.567  0.00  0.00    -0.380 OA
HETATM   21  H   UNK N   1      27.011  15.426   6.266  0.00  0.00     0.211 HD
ENDBRANCH   8  20
BRANCH   9  22
HETATM   22  O   UNK N   1      28.993  17.949   5.735  0.00  0.00    -0.313 OA
BRANCH  22  23
HETATM   23  C   UNK N   1      28.158  18.455   6.669  0.00  0.00     0.259 C 
HETATM   24  O   UNK N   1      27.940  17.824   7.690  0.00  0.00    -0.265 OA
BRANCH  23  25
HETATM   25  C   UNK N   1      27.464  19.762   6.443  0.00  0.00     0.111 C 
BRANCH  25  26
HETATM   26  C   UNK N   1      27.576  20.234   4.992  0.00  0.00     0.010 C 
BRANCH  26  27
HETATM   27  C   UNK N   1      26.215  20.479   4.342  0.00  0.00     0.000 C 
BRANCH  27  28
HETATM   28  C   UNK N   1      25.188  19.457   4.796  0.00  0.00     0.000 C 
BRANCH  28  29
HETATM   29  C   UNK N   1      24.074  19.261   3.771  0.00  0.00     0.000 C 
BRANCH  29  30
HETATM   30  C   UNK N   1      22.960  18.343   4.267  0.00  0.00     0.000 C 
BRANCH  30  31
HETATM   31  C   UNK N   1      21.553  18.900   4.051  0.00  0.00     0.000 C 
BRANCH  31  32
HETATM   32  C   UNK N   1      20.776  18.155   2.969  0.00  0.00     0.000 C 
BRANCH  32  33
HETATM   33  C   UNK N   1      21.204  16.694   2.890  0.00  0.00     0.002 C 
BRANCH  33  34
HETATM   34  C   UNK N   1      20.017  15.744   2.964  0.00  0.00     0.020 C 
BRANCH  34  35
HETATM   35  C   UNK N   1      20.063  14.885   4.217  0.00  0.00     0.122 C 
BRANCH  35  36
HETATM   36  N   UNK N   1      20.607  15.591   5.351  0.00  0.00    -0.361 N 
HETATM   37  C   UNK N   1      19.867  16.163   6.336  0.00  0.00     0.220 C 
HETATM   38  O   UNK N   1      18.656  16.049   6.365  0.00  0.00    -0.274 OA
HETATM   39  H   UNK N   1      21.587  15.663   5.416  0.00  0.00     0.162 HD
BRANCH  37  40
HETATM   40  C   UNK N   1      20.544  16.971   7.385  0.00  0.00     0.137 C 
BRANCH  40  41
HETATM   41  C   UNK N   1      20.229  16.450   8.787  0.00  0.00     0.176 C 
BRANCH  41  42
HETATM   42  C   UNK N   1      20.556  14.994   8.942  0.00  0.00     0.241 C 
HETATM   43  O   UNK N   1      19.664  14.187   9.153  0.00  0.00    -0.271 OA
HETATM   44  N   UNK N   1      21.837  14.590   8.805  0.00  0.00    -0.345 N 
HETATM   45  H   UNK N   1      22.541  15.277   8.748  0.00  0.00     0.163 HD
BRANCH  44  46
HETATM   46  C   UNK N   1      22.227  13.202   8.738  0.00  0.00     0.182 C 
BRANCH  46  47
HETATM   47  C   UNK N   1      23.452  13.056   7.810  0.00  0.00     0.045 C 
BRANCH  47  48
HETATM   48  C   UNK N   1      23.136  13.382   6.343  0.00  0.00     0.105 C 
BRANCH  48  49
HETATM   49  C   UNK N   1      23.893  14.601   5.872  0.00  0.00     0.218 C 
HETATM   50  O   UNK N   1      23.730  15.672   6.433  0.00  0.00    -0.274 OA
HETATM   51  N   UNK N   1      24.760  14.534   4.830  0.00  0.00    -0.347 N 
HETATM   52  H   UNK N   1      25.272  15.346   4.612  0.00  0.00     0.163 HD
BRANCH  51  53
HETATM   53  C   UNK N   1      24.989  13.355   4.014  0.00  0.00     0.182 C 
BRANCH  53  54
HETATM   54  C   UNK N   1      25.120  13.679   2.526  0.00  0.00     0.045 C 
BRANCH  54  55
HETATM   55  C   UNK N   1      23.931  14.453   1.975  0.00  0.00     0.105 C 
BRANCH  55  56
HETATM   56  C   UNK N   1      22.989  13.480   1.368  0.00  0.00     0.218 C 
HETATM   57  O   UNK N   1      23.067  13.204   0.178  0.00  0.00    -0.274 OA
HETATM   58  N   UNK N   1      22.110  12.847   2.169  0.00  0.00    -0.347 N 
HETATM   59  H   UNK N   1      22.008  13.156   3.099  0.00  0.00     0.163 HD
BRANCH  58  60
HETATM   60  C   UNK N   1      21.313  11.734   1.716  0.00  0.00     0.182 C 
BRANCH  60  61
HETATM   61  C   UNK N   1      21.374  10.577   2.738  0.00  0.00     0.045 C 
BRANCH  61  62
HETATM   62  C   UNK N   1      22.380  10.792   3.877  0.00  0.00     0.105 C 
BRANCH  62  63
HETATM   63  C   UNK N   1      23.588   9.910   3.743  0.00  0.00     0.218 C 
HETATM   64  O   UNK N   1      24.346  10.074   2.800  0.00  0.00    -0.274 OA
HETATM   65  N   UNK N   1      23.828   8.911   4.622  0.00  0.00    -0.347 N 
HETATM   66  H   UNK N   1      24.629   8.350   4.504  0.00  0.00     0.163 HD
BRANCH  65  67
HETATM   67  C   UNK N   1      22.942   8.643   5.728  0.00  0.00     0.182 C 
BRANCH  67  68
HETATM   68  C   UNK N   1      23.725   8.449   7.026  0.00  0.00     0.046 C 
BRANCH  68  69
HETATM   69  C   UNK N   1      24.826   7.403   6.907  0.00  0.00     0.112 C 
BRANCH  69  70
HETATM   70  C   UNK N   1      24.620   6.314   7.906  0.00  0.00     0.139 C 
HETATM   71  O   UNK N   1      25.572   5.837   8.502  0.00  0.00    -0.650 OA
BRANCH  70  72
HETATM   72  O   UNK N   1      23.377   5.865   8.160  0.00  0.00    -0.776 OA
HETATM   73  H   UNK N   1      23.090   5.032   7.841  0.00  0.00     0.167 HD
ENDBRANCH  70  72
ENDBRANCH  69  70
ENDBRANCH  68  69
ENDBRANCH  67  68
BRANCH  67  74
HETATM   74  C   UNK N   1      22.033   7.497   5.403  0.00  0.00     0.163 C 
HETATM   75  O   UNK N   1      21.914   7.102   4.254  0.00  0.00    -0.648 OA
BRANCH  74  76
HETATM   76  O   UNK N   1      21.314   6.923   6.385  0.00  0.00    -0.775 OA
HETATM   77  H   UNK N   1      21.356   6.328   7.108  0.00  0.00     0.167 HD
ENDBRANCH  74  76
ENDBRANCH  67  74
ENDBRANCH  65  67
ENDBRANCH  62  63
ENDBRANCH  61  62
ENDBRANCH  60  61
BRANCH  60  78
HETATM   78  C   UNK N   1      19.916  12.199   1.423  0.00  0.00     0.163 C 
HETATM   79  O   UNK N   1      19.665  12.832   0.409  0.00  0.00    -0.648 OA
BRANCH  78  80
HETATM   80  O   UNK N   1      18.929  11.923   2.296  0.00  0.00    -0.775 OA
HETATM   81  H   UNK N   1      18.680  11.067   2.588  0.00  0.00     0.167 HD
ENDBRANCH  78  80
ENDBRANCH  60  78
ENDBRANCH  58  60
ENDBRANCH  55  56
ENDBRANCH  54  55
ENDBRANCH  53  54
BRANCH  53  82
HETATM   82  C   UNK N   1      26.187  12.573   4.485  0.00  0.00     0.163 C 
HETATM   83  O   UNK N   1      26.548  12.659   5.648  0.00  0.00    -0.648 OA
BRANCH  82  84
HETATM   84  O   UNK N   1      26.879  11.791   3.633  0.00  0.00    -0.775 OA
HETATM   85  H   UNK N   1      26.548  11.629   2.770  0.00  0.00     0.167 HD
ENDBRANCH  82  84
ENDBRANCH  53  82
ENDBRANCH  51  53
ENDBRANCH  48  49
ENDBRANCH  47  48
ENDBRANCH  46  47
BRANCH  46  86
HETATM   86  C   UNK N   1      22.511  12.682  10.125  0.00  0.00     0.163 C 
HETATM   87  O   UNK N   1      21.697  11.987  10.712  0.00  0.00    -0.648 OA
BRANCH  86  88
HETATM   88  O   UNK N   1      23.678  12.984  10.725  0.00  0.00    -0.775 OA
HETATM   89  H   UNK N   1      23.988  13.867  10.742  0.00  0.00     0.167 HD
ENDBRANCH  86  88
ENDBRANCH  46  86
ENDBRANCH  44  46
ENDBRANCH  41  42
BRANCH  41  90
HETATM   90  N   UNK N   1      18.813  16.651   9.044  0.00  0.00    -0.418 N 
HETATM   91  H   UNK N   1      18.112  16.320   8.382  0.00  0.00     0.150 HD
HETATM   92  H   UNK N   1      18.518  17.129   9.896  0.00  0.00     0.150 HD
ENDBRANCH  41  90
ENDBRANCH  40  41
ENDBRANCH  37  40
ENDBRANCH  35  36
ENDBRANCH  34  35
ENDBRANCH  33  34
ENDBRANCH  32  33
ENDBRANCH  31  32
ENDBRANCH  30  31
ENDBRANCH  29  30
ENDBRANCH  28  29
ENDBRANCH  27  28
ENDBRANCH  26  27
ENDBRANCH  25  26
ENDBRANCH  23  25
ENDBRANCH  22  23
ENDBRANCH   9  22
BRANCH  11  93
HETATM   93  O   UNK N   1      32.069  16.456   7.789  0.00  0.00    -0.310 OA
BRANCH  93  94
HETATM   94  C   UNK N   1      32.227  17.730   8.241  0.00  0.00     0.255 C 
HETATM   95  O   UNK N   1      31.279  18.381   8.649  0.00  0.00    -0.266 OA
HETATM   96  C   UNK N   1      33.590  18.327   8.273  0.00  0.00     0.126 C 
ENDBRANCH  93  94
ENDBRANCH  11  93
BRANCH   1  97
HETATM   97  O   UNK N   1      33.817  13.994   7.339  0.00  0.00    -0.312 OA
BRANCH  97  98
HETATM   98  C   UNK N   1      33.938  13.334   8.519  0.00  0.00     0.259 C 
HETATM   99  O   UNK N   1      32.961  12.837   9.060  0.00  0.00    -0.265 OA
BRANCH  98 100
HETATM  100  C   UNK N   1      35.267  13.293   9.202  0.00  0.00     0.111 C 
BRANCH 100 101
HETATM  101  C   UNK N   1      35.877  14.673   9.354  0.00  0.00     0.010 C 
BRANCH 101 102
HETATM  102  C   UNK N   1      37.180  14.590  10.134  0.00  0.00     0.000 C 
BRANCH 102 103
HETATM  103  C   UNK N   1      37.735  13.171  10.148  0.00  0.00     0.000 C 
BRANCH 103 104
HETATM  104  C   UNK N   1      39.053  13.069   9.387  0.00  0.00    -0.000 C 
BRANCH 104 105
HETATM  105  C   UNK N   1      39.416  11.623   9.089  0.00  0.00    -0.005 C 
HETATM  106  C   UNK N   1      38.455  10.671   9.776  0.00  0.00     0.005 C 
ENDBRANCH 104 105
ENDBRANCH 103 104
ENDBRANCH 102 103
ENDBRANCH 101 102
ENDBRANCH 100 101
ENDBRANCH  98 100
ENDBRANCH  97  98
ENDBRANCH   1  97
BRANCH   5 107
HETATM  107  O   UNK N   1      34.245  12.590   4.679  0.00  0.00    -0.305 OA
BRANCH 107 108
HETATM  108  C   UNK N   1      35.577  12.609   4.414  0.00  0.00     0.289 C 
HETATM  109  O   UNK N   1      35.992  12.379   3.286  0.00  0.00    -0.260 OA
BRANCH 108 110
HETATM  110  C   UNK N   1      36.520  12.905   5.525  0.00  0.00     0.009 C 
HETATM  111  C   UNK N   1      37.012  11.973   6.358  0.00  0.00    -0.018 C 
HETATM  112  C   UNK N   1      36.700  10.513   6.271  0.00  0.00     0.036 C 
HETATM  113  C   UNK N   1      36.980  14.314   5.712  0.00  0.00     0.054 C 
ENDBRANCH 108 110
ENDBRANCH 107 108
ENDBRANCH   5 107
TORSDOF 57
ENDMDL
MODEL 7
REMARK VINA RESULT:      -6.4      2.160      4.342
REMARK WARNING: 32 MAX_TORS EXCEEDED!!!
REMARK  57 active torsions:
REMARK  status: ('A' for Active; 'I' for Inactive)
REMARK    1  A    between atoms: C_2  and  C_3 
REMARK    2  A    between atoms: C_3  and  C_4 
REMARK    3  A    between atoms: C_4  and  C_5 
REMARK    4  A    between atoms: C_5  and  C_6 
REMARK    5  A    between atoms: C_6  and  C_7 
REMARK    6  A    between atoms: C_7  and  C_8 
REMARK    7  A    between atoms: C_8  and  O_10 
REMARK    8  A    between atoms: C_11  and  O_10 
REMARK    9  A    between atoms: C_15  and  O_16 
REMARK   10  A    between atoms: O_16  and  C_17 
REMARK   11  A    between atoms: C_17  and  C_19 
REMARK   12  A    between atoms: C_25  and  O_99 
REMARK   13  A    between atoms: C_26  and  O_34 
REMARK   14  A    between atoms: C_28  and  O_30 
REMARK   15  A    between atoms: O_30  and  C_31 
REMARK   16  A    between atoms: O_34  and  C_35 
REMARK   17  A    between atoms: C_35  and  C_37 
REMARK   18  A    between atoms: C_37  and  C_38 
REMARK   19  A    between atoms: C_38  and  C_39 
REMARK   20  A    between atoms: C_39  and  C_40 
REMARK   21  A    between atoms: C_40  and  C_41 
REMARK   22  A    between atoms: C_41  and  C_42 
REMARK   23  A    between atoms: C_42  and  C_43 
REMARK   24  A    between atoms: C_43  and  C_44 
REMARK   25  A    between atoms: C_44  and  C_45 
REMARK   26  A    between atoms: C_45  and  C_46 
REMARK   27  A    between atoms: C_46  and  C_47 
REMARK   28  A    between atoms: C_47  and  N_48 
REMARK       I    between atoms: N_48  and  C_49 
REMARK   29  A    between atoms: C_49  and  C_51 
REMARK   30  A    between atoms: C_51  and  C_52 
REMARK   31  A    between atoms: C_52  and  C_53 
REMARK   32  A    between atoms: C_52  and  N_92 
REMARK       I    between atoms: C_53  and  N_55 
REMARK   33  A    between atoms: C_56  and  N_55 
REMARK   34  A    between atoms: C_56  and  C_57 
REMARK   35  A    between atoms: C_56  and  C_89 
REMARK   36  A    between atoms: C_57  and  C_58 
REMARK   37  A    between atoms: C_58  and  C_59 
REMARK       I    between atoms: C_59  and  N_61 
REMARK   38  A    between atoms: C_62  and  N_61 
REMARK   39  A    between atoms: C_62  and  C_63 
REMARK   40  A    between atoms: C_62  and  C_86 
REMARK   41  A    between atoms: C_63  and  C_64 
REMARK   42  A    between atoms: C_64  and  C_65 
REMARK       I    between atoms: C_65  and  N_67 
REMARK   43  A    between atoms: C_68  and  N_67 
REMARK   44  A    between atoms: C_68  and  C_69 
REMARK   45  A    between atoms: C_68  and  C_83 
REMARK   46  A    between atoms: C_69  and  C_70 
REMARK   47  A    between atoms: C_70  and  C_71 
REMARK       I    between atoms: C_71  and  N_73 
REMARK   48  A    between atoms: C_74  and  N_73 
REMARK   49  A    between atoms: C_74  and  C_75 
REMARK   50  A    between atoms: C_74  and  C_80 
REMARK   51  A    between atoms: C_75  and  C_76 
REMARK   52  A    between atoms: C_76  and  C_77 
REMARK   53  A    between atoms: C_77  and  O_79 
REMARK   54  A    between atoms: C_80  and  O_82 
REMARK   55  A    between atoms: C_83  and  O_85 
REMARK   56  A    between atoms: C_86  and  O_88 
REMARK   57  A    between atoms: C_89  and  O_91 
ROOT
HETATM    1  C   UNK N   1      35.178  11.777  10.372  0.00  0.00     0.176 C 
HETATM    2  C   UNK N   1      34.442  12.791   9.486  0.00  0.00     0.085 C 
HETATM    3  C   UNK N   1      34.506  12.083   8.181  0.00  0.00    -0.033 C 
HETATM    4  C   UNK N   1      35.558  11.258   8.133  0.00  0.00    -0.046 C 
HETATM    5  C   UNK N   1      36.289  11.247   9.457  0.00  0.00     0.191 C 
HETATM    6  C   UNK N   1      35.982  10.480   6.926  0.00  0.00     0.046 C 
HETATM    7  C   UNK N   1      33.426  12.338   7.135  0.00  0.00     0.202 C 
HETATM    8  C   UNK N   1      33.191  13.785   6.605  0.00  0.00     0.154 C 
HETATM    9  C   UNK N   1      33.628  14.979   7.490  0.00  0.00     0.175 C 
HETATM   10  C   UNK N   1      35.034  14.845   8.036  0.00  0.00     0.075 C 
HETATM   11  C   UNK N   1      35.165  14.192   9.408  0.00  0.00     0.079 C 
HETATM   12  C   UNK N   1      36.681  14.109   9.561  0.00  0.00     0.047 C 
HETATM   13  C   UNK N   1      33.802  13.765   5.173  0.00  0.00     0.178 C 
HETATM   14  C   UNK N   1      33.756  12.311   4.905  0.00  0.00     0.297 C 
HETATM   15  O   UNK N   1      34.030  11.812   3.825  0.00  0.00    -0.262 OA
HETATM   16  O   UNK N   1      33.557  11.568   6.001  0.00  0.00    -0.306 OA
HETATM   17  C   UNK N   1      32.994  14.585   4.169  0.00  0.00     0.060 C 
HETATM   18  O   UNK N   1      35.136  14.176   5.152  0.00  0.00    -0.377 OA
HETATM   19  H   UNK N   1      36.077  14.378   5.028  0.00  0.00     0.211 HD
ENDROOT
BRANCH   8  20
HETATM   20  O   UNK N   1      31.799  13.880   6.479  0.00  0.00    -0.380 OA
HETATM   21  H   UNK N   1      30.895  13.875   6.833  0.00  0.00     0.211 HD
ENDBRANCH   8  20
BRANCH   9  22
HETATM   22  O   UNK N   1      33.609  16.143   6.756  0.00  0.00    -0.313 OA
BRANCH  22  23
HETATM   23  C   UNK N   1      33.398  17.335   7.359  0.00  0.00     0.259 C 
HETATM   24  O   UNK N   1      34.019  18.317   6.987  0.00  0.00    -0.265 OA
BRANCH  23  25
HETATM   25  C   UNK N   1      32.444  17.449   8.507  0.00  0.00     0.111 C 
BRANCH  25  26
HETATM   26  C   UNK N   1      31.070  17.958   8.069  0.00  0.00     0.010 C 
BRANCH  26  27
HETATM   27  C   UNK N   1      30.476  17.145   6.919  0.00  0.00     0.000 C 
BRANCH  27  28
HETATM   28  C   UNK N   1      28.965  17.290   6.856  0.00  0.00     0.000 C 
BRANCH  28  29
HETATM   29  C   UNK N   1      28.524  18.289   5.791  0.00  0.00     0.000 C 
BRANCH  29  30
HETATM   30  C   UNK N   1      27.791  19.497   6.370  0.00  0.00     0.000 C 
BRANCH  30  31
HETATM   31  C   UNK N   1      26.636  19.997   5.503  0.00  0.00     0.000 C 
BRANCH  31  32
HETATM   32  C   UNK N   1      27.046  20.254   4.055  0.00  0.00     0.000 C 
BRANCH  32  33
HETATM   33  C   UNK N   1      25.839  20.208   3.125  0.00  0.00     0.002 C 
BRANCH  33  34
HETATM   34  C   UNK N   1      24.568  19.796   3.853  0.00  0.00     0.020 C 
BRANCH  34  35
HETATM   35  C   UNK N   1      23.322  20.237   3.102  0.00  0.00     0.122 C 
BRANCH  35  36
HETATM   36  N   UNK N   1      22.246  19.282   3.209  0.00  0.00    -0.361 N 
HETATM   37  C   UNK N   1      21.037  19.405   2.602  0.00  0.00     0.220 C 
HETATM   38  O   UNK N   1      20.801  20.325   1.842  0.00  0.00    -0.274 OA
HETATM   39  H   UNK N   1      22.400  18.482   3.762  0.00  0.00     0.162 HD
BRANCH  37  40
HETATM   40  C   UNK N   1      19.968  18.413   2.893  0.00  0.00     0.137 C 
BRANCH  40  41
HETATM   41  C   UNK N   1      19.966  17.273   1.876  0.00  0.00     0.176 C 
BRANCH  41  42
HETATM   42  C   UNK N   1      20.990  16.223   2.193  0.00  0.00     0.241 C 
HETATM   43  O   UNK N   1      21.455  16.143   3.320  0.00  0.00    -0.271 OA
HETATM   44  N   UNK N   1      21.357  15.351   1.230  0.00  0.00    -0.345 N 
HETATM   45  H   UNK N   1      21.049  15.515   0.308  0.00  0.00     0.163 HD
BRANCH  44  46
HETATM   46  C   UNK N   1      22.177  14.190   1.482  0.00  0.00     0.182 C 
BRANCH  46  47
HETATM   47  C   UNK N   1      21.814  13.075   0.478  0.00  0.00     0.045 C 
BRANCH  47  48
HETATM   48  C   UNK N   1      20.710  12.141   0.992  0.00  0.00     0.105 C 
BRANCH  48  49
HETATM   49  C   UNK N   1      19.393  12.866   1.132  0.00  0.00     0.218 C 
HETATM   50  O   UNK N   1      18.887  13.401   0.159  0.00  0.00    -0.274 OA
HETATM   51  N   UNK N   1      18.750  12.937   2.324  0.00  0.00    -0.347 N 
HETATM   52  H   UNK N   1      17.865  13.367   2.339  0.00  0.00     0.163 HD
BRANCH  51  53
HETATM   53  C   UNK N   1      19.271  12.428   3.581  0.00  0.00     0.182 C 
BRANCH  53  54
HETATM   54  C   UNK N   1      19.524  13.530   4.610  0.00  0.00     0.045 C 
BRANCH  54  55
HETATM   55  C   UNK N   1      18.469  14.626   4.584  0.00  0.00     0.105 C 
BRANCH  55  56
HETATM   56  C   UNK N   1      18.824  15.631   5.616  0.00  0.00     0.218 C 
HETATM   57  O   UNK N   1      17.949  16.173   6.279  0.00  0.00    -0.274 OA
HETATM   58  N   UNK N   1      20.127  15.867   5.865  0.00  0.00    -0.347 N 
HETATM   59  H   UNK N   1      20.802  15.488   5.257  0.00  0.00     0.163 HD
BRANCH  58  60
HETATM   60  C   UNK N   1      20.569  16.653   6.990  0.00  0.00     0.182 C 
BRANCH  60  61
HETATM   61  C   UNK N   1      21.387  15.781   7.969  0.00  0.00     0.045 C 
BRANCH  61  62
HETATM   62  C   UNK N   1      21.880  14.455   7.372  0.00  0.00     0.105 C 
BRANCH  62  63
HETATM   63  C   UNK N   1      21.187  13.267   7.974  0.00  0.00     0.218 C 
HETATM   64  O   UNK N   1      20.249  13.444   8.733  0.00  0.00    -0.274 OA
HETATM   65  N   UNK N   1      21.611  12.007   7.726  0.00  0.00    -0.347 N 
HETATM   66  H   UNK N   1      21.135  11.250   8.139  0.00  0.00     0.163 HD
BRANCH  65  67
HETATM   67  C   UNK N   1      22.744  11.741   6.873  0.00  0.00     0.182 C 
BRANCH  67  68
HETATM   68  C   UNK N   1      22.294  11.352   5.465  0.00  0.00     0.046 C 
BRANCH  68  69
HETATM   69  C   UNK N   1      22.933  12.208   4.378  0.00  0.00     0.112 C 
BRANCH  69  70
HETATM   70  C   UNK N   1      24.080  11.486   3.754  0.00  0.00     0.139 C 
HETATM   71  O   UNK N   1      23.973  11.006   2.638  0.00  0.00    -0.650 OA
BRANCH  70  72
HETATM   72  O   UNK N   1      25.244  11.376   4.421  0.00  0.00    -0.776 OA
HETATM   73  H   UNK N   1      25.347  11.746   5.275  0.00  0.00     0.167 HD
ENDBRANCH  70  72
ENDBRANCH  69  70
ENDBRANCH  68  69
ENDBRANCH  67  68
BRANCH  67  74
HETATM   74  C   UNK N   1      23.650  10.731   7.510  0.00  0.00     0.163 C 
HETATM   75  O   UNK N   1      24.016  10.863   8.666  0.00  0.00    -0.648 OA
BRANCH  74  76
HETATM   76  O   UNK N   1      24.092   9.688   6.784  0.00  0.00    -0.775 OA
HETATM   77  H   UNK N   1      24.498   9.444   5.975  0.00  0.00     0.167 HD
ENDBRANCH  74  76
ENDBRANCH  67  74
ENDBRANCH  65  67
ENDBRANCH  62  63
ENDBRANCH  61  62
ENDBRANCH  60  61
BRANCH  60  78
HETATM   78  C   UNK N   1      21.315  17.860   6.501  0.00  0.00     0.163 C 
HETATM   79  O   UNK N   1      20.992  18.984   6.857  0.00  0.00    -0.648 OA
BRANCH  78  80
HETATM   80  O   UNK N   1      22.347  17.703   5.651  0.00  0.00    -0.775 OA
HETATM   81  H   UNK N   1      23.214  18.035   5.776  0.00  0.00     0.167 HD
ENDBRANCH  78  80
ENDBRANCH  60  78
ENDBRANCH  58  60
ENDBRANCH  55  56
ENDBRANCH  54  55
ENDBRANCH  53  54
BRANCH  53  82
HETATM   82  C   UNK N   1      18.379  11.363   4.164  0.00  0.00     0.163 C 
HETATM   83  O   UNK N   1      18.839  10.551   4.951  0.00  0.00    -0.648 OA
BRANCH  82  84
HETATM   84  O   UNK N   1      17.080  11.284   3.814  0.00  0.00    -0.775 OA
HETATM   85  H   UNK N   1      16.506  10.700   4.270  0.00  0.00     0.167 HD
ENDBRANCH  82  84
ENDBRANCH  53  82
ENDBRANCH  51  53
ENDBRANCH  48  49
ENDBRANCH  47  48
ENDBRANCH  46  47
BRANCH  46  86
HETATM   86  C   UNK N   1      23.636  14.566   1.398  0.00  0.00     0.163 C 
HETATM   87  O   UNK N   1      24.315  14.226   0.442  0.00  0.00    -0.648 OA
BRANCH  86  88
HETATM   88  O   UNK N   1      24.198  15.286   2.387  0.00  0.00    -0.775 OA
HETATM   89  H   UNK N   1      23.837  15.268   3.251  0.00  0.00     0.167 HD
ENDBRANCH  86  88
ENDBRANCH  46  86
ENDBRANCH  44  46
ENDBRANCH  41  42
BRANCH  41  90
HETATM   90  N   UNK N   1      20.243  17.828   0.562  0.00  0.00    -0.418 N 
HETATM   91  H   UNK N   1      19.679  17.562  -0.245  0.00  0.00     0.150 HD
HETATM   92  H   UNK N   1      21.011  18.490   0.446  0.00  0.00     0.150 HD
ENDBRANCH  41  90
ENDBRANCH  40  41
ENDBRANCH  37  40
ENDBRANCH  35  36
ENDBRANCH  34  35
ENDBRANCH  33  34
ENDBRANCH  32  33
ENDBRANCH  31  32
ENDBRANCH  30  31
ENDBRANCH  29  30
ENDBRANCH  28  29
ENDBRANCH  27  28
ENDBRANCH  26  27
ENDBRANCH  25  26
ENDBRANCH  23  25
ENDBRANCH  22  23
ENDBRANCH   9  22
BRANCH  11  93
HETATM   93  O   UNK N   1      34.721  15.031  10.422  0.00  0.00    -0.310 OA
BRANCH  93  94
HETATM   94  C   UNK N   1      35.381  16.099  10.948  0.00  0.00     0.255 C 
HETATM   95  O   UNK N   1      35.399  17.179  10.378  0.00  0.00    -0.266 OA
HETATM   96  C   UNK N   1      36.065  15.957  12.263  0.00  0.00     0.126 C 
ENDBRANCH  93  94
ENDBRANCH  11  93
BRANCH   1  97
HETATM   97  O   UNK N   1      35.613  12.340  11.553  0.00  0.00    -0.312 OA
BRANCH  97  98
HETATM   98  C   UNK N   1      34.844  12.315  12.670  0.00  0.00     0.259 C 
HETATM   99  O   UNK N   1      34.564  13.349  13.259  0.00  0.00    -0.265 OA
BRANCH  98 100
HETATM  100  C   UNK N   1      34.409  10.999  13.231  0.00  0.00     0.111 C 
BRANCH 100 101
HETATM  101  C   UNK N   1      33.828  11.133  14.624  0.00  0.00     0.010 C 
BRANCH 101 102
HETATM  102  C   UNK N   1      34.937  11.092  15.664  0.00  0.00     0.000 C 
BRANCH 102 103
HETATM  103  C   UNK N   1      35.266   9.662  16.076  0.00  0.00     0.000 C 
BRANCH 103 104
HETATM  104  C   UNK N   1      36.770   9.425  16.154  0.00  0.00    -0.000 C 
BRANCH 104 105
HETATM  105  C   UNK N   1      37.523  10.269  15.137  0.00  0.00    -0.005 C 
HETATM  106  C   UNK N   1      38.701   9.503  14.565  0.00  0.00     0.005 C 
ENDBRANCH 104 105
ENDBRANCH 103 104
ENDBRANCH 102 103
ENDBRANCH 101 102
ENDBRANCH 100 101
ENDBRANCH  98 100
ENDBRANCH  97  98
ENDBRANCH   1  97
BRANCH   5 107
HETATM  107  O   UNK N   1      36.783  10.045   9.942  0.00  0.00    -0.305 OA
BRANCH 107 108
HETATM  108  C   UNK N   1      36.107   9.017  10.517  0.00  0.00     0.289 C 
HETATM  109  O   UNK N   1      36.179   8.819  11.722  0.00  0.00    -0.260 OA
BRANCH 108 110
HETATM  110  C   UNK N   1      35.285   8.132   9.649  0.00  0.00     0.009 C 
HETATM  111  C   UNK N   1      33.942   8.140   9.629  0.00  0.00    -0.018 C 
HETATM  112  C   UNK N   1      33.091   9.051  10.455  0.00  0.00     0.036 C 
HETATM  113  C   UNK N   1      35.985   7.198   8.717  0.00  0.00     0.054 C 
ENDBRANCH 108 110
ENDBRANCH 107 108
ENDBRANCH   5 107
TORSDOF 57
ENDMDL
MODEL 8
REMARK VINA RESULT:      -6.4      2.214      4.721
REMARK WARNING: 32 MAX_TORS EXCEEDED!!!
REMARK  57 active torsions:
REMARK  status: ('A' for Active; 'I' for Inactive)
REMARK    1  A    between atoms: C_2  and  C_3 
REMARK    2  A    between atoms: C_3  and  C_4 
REMARK    3  A    between atoms: C_4  and  C_5 
REMARK    4  A    between atoms: C_5  and  C_6 
REMARK    5  A    between atoms: C_6  and  C_7 
REMARK    6  A    between atoms: C_7  and  C_8 
REMARK    7  A    between atoms: C_8  and  O_10 
REMARK    8  A    between atoms: C_11  and  O_10 
REMARK    9  A    between atoms: C_15  and  O_16 
REMARK   10  A    between atoms: O_16  and  C_17 
REMARK   11  A    between atoms: C_17  and  C_19 
REMARK   12  A    between atoms: C_25  and  O_99 
REMARK   13  A    between atoms: C_26  and  O_34 
REMARK   14  A    between atoms: C_28  and  O_30 
REMARK   15  A    between atoms: O_30  and  C_31 
REMARK   16  A    between atoms: O_34  and  C_35 
REMARK   17  A    between atoms: C_35  and  C_37 
REMARK   18  A    between atoms: C_37  and  C_38 
REMARK   19  A    between atoms: C_38  and  C_39 
REMARK   20  A    between atoms: C_39  and  C_40 
REMARK   21  A    between atoms: C_40  and  C_41 
REMARK   22  A    between atoms: C_41  and  C_42 
REMARK   23  A    between atoms: C_42  and  C_43 
REMARK   24  A    between atoms: C_43  and  C_44 
REMARK   25  A    between atoms: C_44  and  C_45 
REMARK   26  A    between atoms: C_45  and  C_46 
REMARK   27  A    between atoms: C_46  and  C_47 
REMARK   28  A    between atoms: C_47  and  N_48 
REMARK       I    between atoms: N_48  and  C_49 
REMARK   29  A    between atoms: C_49  and  C_51 
REMARK   30  A    between atoms: C_51  and  C_52 
REMARK   31  A    between atoms: C_52  and  C_53 
REMARK   32  A    between atoms: C_52  and  N_92 
REMARK       I    between atoms: C_53  and  N_55 
REMARK   33  A    between atoms: C_56  and  N_55 
REMARK   34  A    between atoms: C_56  and  C_57 
REMARK   35  A    between atoms: C_56  and  C_89 
REMARK   36  A    between atoms: C_57  and  C_58 
REMARK   37  A    between atoms: C_58  and  C_59 
REMARK       I    between atoms: C_59  and  N_61 
REMARK   38  A    between atoms: C_62  and  N_61 
REMARK   39  A    between atoms: C_62  and  C_63 
REMARK   40  A    between atoms: C_62  and  C_86 
REMARK   41  A    between atoms: C_63  and  C_64 
REMARK   42  A    between atoms: C_64  and  C_65 
REMARK       I    between atoms: C_65  and  N_67 
REMARK   43  A    between atoms: C_68  and  N_67 
REMARK   44  A    between atoms: C_68  and  C_69 
REMARK   45  A    between atoms: C_68  and  C_83 
REMARK   46  A    between atoms: C_69  and  C_70 
REMARK   47  A    between atoms: C_70  and  C_71 
REMARK       I    between atoms: C_71  and  N_73 
REMARK   48  A    between atoms: C_74  and  N_73 
REMARK   49  A    between atoms: C_74  and  C_75 
REMARK   50  A    between atoms: C_74  and  C_80 
REMARK   51  A    between atoms: C_75  and  C_76 
REMARK   52  A    between atoms: C_76  and  C_77 
REMARK   53  A    between atoms: C_77  and  O_79 
REMARK   54  A    between atoms: C_80  and  O_82 
REMARK   55  A    between atoms: C_83  and  O_85 
REMARK   56  A    between atoms: C_86  and  O_88 
REMARK   57  A    between atoms: C_89  and  O_91 
ROOT
HETATM    1  C   UNK N   1      35.202  11.733  10.279  0.00  0.00     0.176 C 
HETATM    2  C   UNK N   1      34.419  12.696   9.376  0.00  0.00     0.085 C 
HETATM    3  C   UNK N   1      34.469  11.944   8.096  0.00  0.00    -0.033 C 
HETATM    4  C   UNK N   1      35.541  11.145   8.050  0.00  0.00    -0.046 C 
HETATM    5  C   UNK N   1      36.304  11.199   9.354  0.00  0.00     0.191 C 
HETATM    6  C   UNK N   1      35.956  10.335   6.860  0.00  0.00     0.046 C 
HETATM    7  C   UNK N   1      33.358  12.134   7.070  0.00  0.00     0.202 C 
HETATM    8  C   UNK N   1      33.071  13.556   6.496  0.00  0.00     0.154 C 
HETATM    9  C   UNK N   1      33.499  14.791   7.328  0.00  0.00     0.175 C 
HETATM   10  C   UNK N   1      34.921  14.711   7.842  0.00  0.00     0.075 C 
HETATM   11  C   UNK N   1      35.102  14.111   9.232  0.00  0.00     0.079 C 
HETATM   12  C   UNK N   1      36.624  14.072   9.349  0.00  0.00     0.047 C 
HETATM   13  C   UNK N   1      33.648  13.500   5.051  0.00  0.00     0.178 C 
HETATM   14  C   UNK N   1      33.633  12.037   4.834  0.00  0.00     0.297 C 
HETATM   15  O   UNK N   1      33.893  11.507   3.766  0.00  0.00    -0.262 OA
HETATM   16  O   UNK N   1      33.481  11.329   5.960  0.00  0.00    -0.306 OA
HETATM   17  C   UNK N   1      32.794  14.264   4.039  0.00  0.00     0.060 C 
HETATM   18  O   UNK N   1      34.970  13.944   4.981  0.00  0.00    -0.377 OA
HETATM   19  H   UNK N   1      35.901  14.165   4.826  0.00  0.00     0.211 HD
ENDROOT
BRANCH   8  20
HETATM   20  O   UNK N   1      31.675  13.611   6.402  0.00  0.00    -0.380 OA
HETATM   21  H   UNK N   1      30.799  13.913   6.691  0.00  0.00     0.211 HD
ENDBRANCH   8  20
BRANCH   9  22
HETATM   22  O   UNK N   1      33.431  15.927   6.555  0.00  0.00    -0.313 OA
BRANCH  22  23
HETATM   23  C   UNK N   1      33.194  17.132   7.119  0.00  0.00     0.259 C 
HETATM   24  O   UNK N   1      33.775  18.120   6.701  0.00  0.00    -0.265 OA
BRANCH  23  25
HETATM   25  C   UNK N   1      32.260  17.257   8.283  0.00  0.00     0.111 C 
BRANCH  25  26
HETATM   26  C   UNK N   1      30.838  17.614   7.848  0.00  0.00     0.010 C 
BRANCH  26  27
HETATM   27  C   UNK N   1      30.433  16.941   6.537  0.00  0.00     0.000 C 
BRANCH  27  28
HETATM   28  C   UNK N   1      28.952  17.123   6.251  0.00  0.00     0.000 C 
BRANCH  28  29
HETATM   29  C   UNK N   1      28.669  18.392   5.453  0.00  0.00     0.000 C 
BRANCH  29  30
HETATM   30  C   UNK N   1      27.825  19.407   6.222  0.00  0.00     0.000 C 
BRANCH  30  31
HETATM   31  C   UNK N   1      26.578  19.873   5.473  0.00  0.00     0.000 C 
BRANCH  31  32
HETATM   32  C   UNK N   1      26.885  20.395   4.072  0.00  0.00     0.000 C 
BRANCH  32  33
HETATM   33  C   UNK N   1      25.716  20.149   3.124  0.00  0.00     0.002 C 
BRANCH  33  34
HETATM   34  C   UNK N   1      24.453  19.737   3.866  0.00  0.00     0.020 C 
BRANCH  34  35
HETATM   35  C   UNK N   1      23.200  20.212   3.148  0.00  0.00     0.122 C 
BRANCH  35  36
HETATM   36  N   UNK N   1      22.129  19.248   3.211  0.00  0.00    -0.361 N 
HETATM   37  C   UNK N   1      20.973  19.327   2.502  0.00  0.00     0.220 C 
HETATM   38  O   UNK N   1      20.791  20.209   1.683  0.00  0.00    -0.274 OA
HETATM   39  H   UNK N   1      22.244  18.477   3.811  0.00  0.00     0.162 HD
BRANCH  37  40
HETATM   40  C   UNK N   1      19.893  18.334   2.749  0.00  0.00     0.137 C 
BRANCH  40  41
HETATM   41  C   UNK N   1      19.929  17.197   1.729  0.00  0.00     0.176 C 
BRANCH  41  42
HETATM   42  C   UNK N   1      20.975  16.172   2.054  0.00  0.00     0.241 C 
HETATM   43  O   UNK N   1      21.512  16.173   3.152  0.00  0.00    -0.271 OA
HETATM   44  N   UNK N   1      21.282  15.232   1.135  0.00  0.00    -0.345 N 
HETATM   45  H   UNK N   1      20.914  15.329   0.226  0.00  0.00     0.163 HD
BRANCH  44  46
HETATM   46  C   UNK N   1      22.119  14.091   1.417  0.00  0.00     0.182 C 
BRANCH  46  47
HETATM   47  C   UNK N   1      21.823  12.970   0.398  0.00  0.00     0.045 C 
BRANCH  47  48
HETATM   48  C   UNK N   1      20.705  12.023   0.855  0.00  0.00     0.105 C 
BRANCH  48  49
HETATM   49  C   UNK N   1      19.404  12.763   1.060  0.00  0.00     0.218 C 
HETATM   50  O   UNK N   1      18.872  13.330   0.120  0.00  0.00    -0.274 OA
HETATM   51  N   UNK N   1      18.804  12.812   2.276  0.00  0.00    -0.347 N 
HETATM   52  H   UNK N   1      17.927  13.253   2.333  0.00  0.00     0.163 HD
BRANCH  51  53
HETATM   53  C   UNK N   1      19.362  12.263   3.500  0.00  0.00     0.182 C 
BRANCH  53  54
HETATM   54  C   UNK N   1      19.371  13.267   4.652  0.00  0.00     0.045 C 
BRANCH  54  55
HETATM   55  C   UNK N   1      18.586  14.535   4.347  0.00  0.00     0.105 C 
BRANCH  55  56
HETATM   56  C   UNK N   1      18.915  15.542   5.386  0.00  0.00     0.218 C 
HETATM   57  O   UNK N   1      18.027  16.050   6.058  0.00  0.00    -0.274 OA
HETATM   58  N   UNK N   1      20.212  15.817   5.629  0.00  0.00    -0.347 N 
HETATM   59  H   UNK N   1      20.895  15.466   5.013  0.00  0.00     0.163 HD
BRANCH  58  60
HETATM   60  C   UNK N   1      20.636  16.607   6.759  0.00  0.00     0.182 C 
BRANCH  60  61
HETATM   61  C   UNK N   1      21.345  15.716   7.803  0.00  0.00     0.045 C 
BRANCH  61  62
HETATM   62  C   UNK N   1      21.802  14.354   7.264  0.00  0.00     0.105 C 
BRANCH  62  63
HETATM   63  C   UNK N   1      23.290  14.173   7.361  0.00  0.00     0.218 C 
HETATM   64  O   UNK N   1      24.026  15.085   7.022  0.00  0.00    -0.274 OA
HETATM   65  N   UNK N   1      23.829  13.003   7.774  0.00  0.00    -0.347 N 
HETATM   66  H   UNK N   1      24.808  12.918   7.825  0.00  0.00     0.163 HD
BRANCH  65  67
HETATM   67  C   UNK N   1      23.007  11.876   8.144  0.00  0.00     0.182 C 
BRANCH  67  68
HETATM   68  C   UNK N   1      23.078  11.613   9.648  0.00  0.00     0.046 C 
BRANCH  68  69
HETATM   69  C   UNK N   1      22.588  12.790  10.482  0.00  0.00     0.112 C 
BRANCH  69  70
HETATM   70  C   UNK N   1      21.157  12.602  10.860  0.00  0.00     0.139 C 
HETATM   71  O   UNK N   1      20.859  11.904  11.816  0.00  0.00    -0.650 OA
BRANCH  70  72
HETATM   72  O   UNK N   1      20.192  13.216  10.153  0.00  0.00    -0.776 OA
HETATM   73  H   UNK N   1      20.337  14.058   9.767  0.00  0.00     0.167 HD
ENDBRANCH  70  72
ENDBRANCH  69  70
ENDBRANCH  68  69
ENDBRANCH  67  68
BRANCH  67  74
HETATM   74  C   UNK N   1      23.358  10.681   7.311  0.00  0.00     0.163 C 
HETATM   75  O   UNK N   1      23.199  10.695   6.102  0.00  0.00    -0.648 OA
BRANCH  74  76
HETATM   76  O   UNK N   1      23.819   9.568   7.912  0.00  0.00    -0.775 OA
HETATM   77  H   UNK N   1      23.574   8.834   8.441  0.00  0.00     0.167 HD
ENDBRANCH  74  76
ENDBRANCH  67  74
ENDBRANCH  65  67
ENDBRANCH  62  63
ENDBRANCH  61  62
ENDBRANCH  60  61
BRANCH  60  78
HETATM   78  C   UNK N   1      21.476  17.756   6.285  0.00  0.00     0.163 C 
HETATM   79  O   UNK N   1      21.031  18.894   6.269  0.00  0.00    -0.648 OA
BRANCH  78  80
HETATM   80  O   UNK N   1      22.733  17.528   5.860  0.00  0.00    -0.775 OA
HETATM   81  H   UNK N   1      23.086  16.693   5.622  0.00  0.00     0.167 HD
ENDBRANCH  78  80
ENDBRANCH  60  78
ENDBRANCH  58  60
ENDBRANCH  55  56
ENDBRANCH  54  55
ENDBRANCH  53  54
BRANCH  53  82
HETATM   82  C   UNK N   1      18.657  10.998   3.916  0.00  0.00     0.163 C 
HETATM   83  O   UNK N   1      19.290   9.961   4.032  0.00  0.00    -0.648 OA
BRANCH  82  84
HETATM   84  O   UNK N   1      17.329  10.992   4.145  0.00  0.00    -0.775 OA
HETATM   85  H   UNK N   1      16.995  10.681   4.964  0.00  0.00     0.167 HD
ENDBRANCH  82  84
ENDBRANCH  53  82
ENDBRANCH  51  53
ENDBRANCH  48  49
ENDBRANCH  47  48
ENDBRANCH  46  47
BRANCH  46  86
HETATM   86  C   UNK N   1      23.571  14.503   1.389  0.00  0.00     0.163 C 
HETATM   87  O   UNK N   1      24.230  14.404   0.366  0.00  0.00    -0.648 OA
BRANCH  86  88
HETATM   88  O   UNK N   1      24.149  14.988   2.504  0.00  0.00    -0.775 OA
HETATM   89  H   UNK N   1      23.677  15.007   3.313  0.00  0.00     0.167 HD
ENDBRANCH  86  88
ENDBRANCH  46  86
ENDBRANCH  44  46
ENDBRANCH  41  42
BRANCH  41  90
HETATM   90  N   UNK N   1      20.206  17.763   0.419  0.00  0.00    -0.418 N 
HETATM   91  H   UNK N   1      20.679  17.211  -0.296  0.00  0.00     0.150 HD
HETATM   92  H   UNK N   1      19.925  18.722   0.215  0.00  0.00     0.150 HD
ENDBRANCH  41  90
ENDBRANCH  40  41
ENDBRANCH  37  40
ENDBRANCH  35  36
ENDBRANCH  34  35
ENDBRANCH  33  34
ENDBRANCH  32  33
ENDBRANCH  31  32
ENDBRANCH  30  31
ENDBRANCH  29  30
ENDBRANCH  28  29
ENDBRANCH  27  28
ENDBRANCH  26  27
ENDBRANCH  25  26
ENDBRANCH  23  25
ENDBRANCH  22  23
ENDBRANCH   9  22
BRANCH  11  93
HETATM   93  O   UNK N   1      34.663  14.974  10.227  0.00  0.00    -0.310 OA
BRANCH  93  94
HETATM   94  C   UNK N   1      35.321  16.058  10.720  0.00  0.00     0.255 C 
HETATM   95  O   UNK N   1      35.351  17.115  10.110  0.00  0.00    -0.266 OA
HETATM   96  C   UNK N   1      35.988  15.963  12.048  0.00  0.00     0.126 C 
ENDBRANCH  93  94
ENDBRANCH  11  93
BRANCH   1  97
HETATM   97  O   UNK N   1      35.652  12.347  11.428  0.00  0.00    -0.312 OA
BRANCH  97  98
HETATM   98  C   UNK N   1      34.921  12.324  12.571  0.00  0.00     0.259 C 
HETATM   99  O   UNK N   1      34.578  13.364  13.114  0.00  0.00    -0.265 OA
BRANCH  98 100
HETATM  100  C   UNK N   1      34.610  11.011  13.213  0.00  0.00     0.111 C 
BRANCH 100 101
HETATM  101  C   UNK N   1      33.983  11.177  14.583  0.00  0.00     0.010 C 
BRANCH 101 102
HETATM  102  C   UNK N   1      35.026  10.963  15.670  0.00  0.00     0.000 C 
BRANCH 102 103
HETATM  103  C   UNK N   1      34.658   9.795  16.576  0.00  0.00     0.000 C 
BRANCH 103 104
HETATM  104  C   UNK N   1      34.921  10.110  18.045  0.00  0.00    -0.000 C 
BRANCH 104 105
HETATM  105  C   UNK N   1      36.410  10.232  18.332  0.00  0.00    -0.005 C 
HETATM  106  C   UNK N   1      36.738   9.705  19.717  0.00  0.00     0.005 C 
ENDBRANCH 104 105
ENDBRANCH 103 104
ENDBRANCH 102 103
ENDBRANCH 101 102
ENDBRANCH 100 101
ENDBRANCH  98 100
ENDBRANCH  97  98
ENDBRANCH   1  97
BRANCH   5 107
HETATM  107  O   UNK N   1      36.841  10.027   9.868  0.00  0.00    -0.305 OA
BRANCH 107 108
HETATM  108  C   UNK N   1      36.230   9.059  10.598  0.00  0.00     0.289 C 
HETATM  109  O   UNK N   1      36.586   8.823  11.744  0.00  0.00    -0.260 OA
BRANCH 108 110
HETATM  110  C   UNK N   1      35.124   8.287   9.971  0.00  0.00     0.009 C 
HETATM  111  C   UNK N   1      35.304   7.367   9.009  0.00  0.00    -0.018 C 
HETATM  112  C   UNK N   1      36.636   6.977   8.453  0.00  0.00     0.036 C 
HETATM  113  C   UNK N   1      33.730   8.516  10.458  0.00  0.00     0.054 C 
ENDBRANCH 108 110
ENDBRANCH 107 108
ENDBRANCH   5 107
TORSDOF 57
ENDMDL
MODEL 9
REMARK VINA RESULT:      -6.4      2.568      4.505
REMARK WARNING: 32 MAX_TORS EXCEEDED!!!
REMARK  57 active torsions:
REMARK  status: ('A' for Active; 'I' for Inactive)
REMARK    1  A    between atoms: C_2  and  C_3 
REMARK    2  A    between atoms: C_3  and  C_4 
REMARK    3  A    between atoms: C_4  and  C_5 
REMARK    4  A    between atoms: C_5  and  C_6 
REMARK    5  A    between atoms: C_6  and  C_7 
REMARK    6  A    between atoms: C_7  and  C_8 
REMARK    7  A    between atoms: C_8  and  O_10 
REMARK    8  A    between atoms: C_11  and  O_10 
REMARK    9  A    between atoms: C_15  and  O_16 
REMARK   10  A    between atoms: O_16  and  C_17 
REMARK   11  A    between atoms: C_17  and  C_19 
REMARK   12  A    between atoms: C_25  and  O_99 
REMARK   13  A    between atoms: C_26  and  O_34 
REMARK   14  A    between atoms: C_28  and  O_30 
REMARK   15  A    between atoms: O_30  and  C_31 
REMARK   16  A    between atoms: O_34  and  C_35 
REMARK   17  A    between atoms: C_35  and  C_37 
REMARK   18  A    between atoms: C_37  and  C_38 
REMARK   19  A    between atoms: C_38  and  C_39 
REMARK   20  A    between atoms: C_39  and  C_40 
REMARK   21  A    between atoms: C_40  and  C_41 
REMARK   22  A    between atoms: C_41  and  C_42 
REMARK   23  A    between atoms: C_42  and  C_43 
REMARK   24  A    between atoms: C_43  and  C_44 
REMARK   25  A    between atoms: C_44  and  C_45 
REMARK   26  A    between atoms: C_45  and  C_46 
REMARK   27  A    between atoms: C_46  and  C_47 
REMARK   28  A    between atoms: C_47  and  N_48 
REMARK       I    between atoms: N_48  and  C_49 
REMARK   29  A    between atoms: C_49  and  C_51 
REMARK   30  A    between atoms: C_51  and  C_52 
REMARK   31  A    between atoms: C_52  and  C_53 
REMARK   32  A    between atoms: C_52  and  N_92 
REMARK       I    between atoms: C_53  and  N_55 
REMARK   33  A    between atoms: C_56  and  N_55 
REMARK   34  A    between atoms: C_56  and  C_57 
REMARK   35  A    between atoms: C_56  and  C_89 
REMARK   36  A    between atoms: C_57  and  C_58 
REMARK   37  A    between atoms: C_58  and  C_59 
REMARK       I    between atoms: C_59  and  N_61 
REMARK   38  A    between atoms: C_62  and  N_61 
REMARK   39  A    between atoms: C_62  and  C_63 
REMARK   40  A    between atoms: C_62  and  C_86 
REMARK   41  A    between atoms: C_63  and  C_64 
REMARK   42  A    between atoms: C_64  and  C_65 
REMARK       I    between atoms: C_65  and  N_67 
REMARK   43  A    between atoms: C_68  and  N_67 
REMARK   44  A    between atoms: C_68  and  C_69 
REMARK   45  A    between atoms: C_68  and  C_83 
REMARK   46  A    between atoms: C_69  and  C_70 
REMARK   47  A    between atoms: C_70  and  C_71 
REMARK       I    between atoms: C_71  and  N_73 
REMARK   48  A    between atoms: C_74  and  N_73 
REMARK   49  A    between atoms: C_74  and  C_75 
REMARK   50  A    between atoms: C_74  and  C_80 
REMARK   51  A    between atoms: C_75  and  C_76 
REMARK   52  A    between atoms: C_76  and  C_77 
REMARK   53  A    between atoms: C_77  and  O_79 
REMARK   54  A    between atoms: C_80  and  O_82 
REMARK   55  A    between atoms: C_83  and  O_85 
REMARK   56  A    between atoms: C_86  and  O_88 
REMARK   57  A    between atoms: C_89  and  O_91 
ROOT
HETATM    1  C   UNK N   1      35.730  11.761  10.480  0.00  0.00     0.176 C 
HETATM    2  C   UNK N   1      35.022  12.790   9.588  0.00  0.00     0.085 C 
HETATM    3  C   UNK N   1      34.509  11.892   8.521  0.00  0.00    -0.033 C 
HETATM    4  C   UNK N   1      35.266  10.795   8.411  0.00  0.00    -0.046 C 
HETATM    5  C   UNK N   1      36.344  10.782   9.472  0.00  0.00     0.191 C 
HETATM    6  C   UNK N   1      35.099   9.740   7.362  0.00  0.00     0.046 C 
HETATM    7  C   UNK N   1      33.253  12.285   7.750  0.00  0.00     0.202 C 
HETATM    8  C   UNK N   1      33.219  13.630   6.962  0.00  0.00     0.154 C 
HETATM    9  C   UNK N   1      34.180  14.766   7.393  0.00  0.00     0.175 C 
HETATM   10  C   UNK N   1      35.611  14.309   7.585  0.00  0.00     0.075 C 
HETATM   11  C   UNK N   1      35.998  13.879   8.995  0.00  0.00     0.079 C 
HETATM   12  C   UNK N   1      37.422  13.373   8.778  0.00  0.00     0.047 C 
HETATM   13  C   UNK N   1      33.336  13.194   5.472  0.00  0.00     0.178 C 
HETATM   14  C   UNK N   1      32.863  11.798   5.584  0.00  0.00     0.297 C 
HETATM   15  O   UNK N   1      32.663  11.071   4.623  0.00  0.00    -0.262 OA
HETATM   16  O   UNK N   1      32.841  11.337   6.841  0.00  0.00    -0.306 OA
HETATM   17  C   UNK N   1      32.478  14.044   4.535  0.00  0.00     0.060 C 
HETATM   18  O   UNK N   1      34.657  13.180   5.017  0.00  0.00    -0.377 OA
HETATM   19  H   UNK N   1      35.533  13.069   4.616  0.00  0.00     0.211 HD
ENDROOT
BRANCH   8  20
HETATM   20  O   UNK N   1      31.921  14.114   7.170  0.00  0.00    -0.380 OA
HETATM   21  H   UNK N   1      31.222  14.781   7.081  0.00  0.00     0.211 HD
ENDBRANCH   8  20
BRANCH   9  22
HETATM   22  O   UNK N   1      34.214  15.747   6.428  0.00  0.00    -0.313 OA
BRANCH  22  23
HETATM   23  C   UNK N   1      33.968  17.037   6.748  0.00  0.00     0.259 C 
HETATM   24  O   UNK N   1      34.159  17.911   5.919  0.00  0.00    -0.265 OA
BRANCH  23  25
HETATM   25  C   UNK N   1      33.505  17.406   8.123  0.00  0.00     0.111 C 
BRANCH  25  26
HETATM   26  C   UNK N   1      32.034  17.822   8.147  0.00  0.00     0.010 C 
BRANCH  26  27
HETATM   27  C   UNK N   1      31.115  16.721   8.676  0.00  0.00     0.000 C 
BRANCH  27  28
HETATM   28  C   UNK N   1      29.835  17.295   9.260  0.00  0.00     0.000 C 
BRANCH  28  29
HETATM   29  C   UNK N   1      29.537  18.696   8.734  0.00  0.00     0.000 C 
BRANCH  29  30
HETATM   30  C   UNK N   1      28.181  18.799   8.040  0.00  0.00     0.000 C 
BRANCH  30  31
HETATM   31  C   UNK N   1      27.996  17.815   6.886  0.00  0.00     0.000 C 
BRANCH  31  32
HETATM   32  C   UNK N   1      28.501  18.359   5.552  0.00  0.00     0.000 C 
BRANCH  32  33
HETATM   33  C   UNK N   1      29.313  17.310   4.801  0.00  0.00     0.002 C 
BRANCH  33  34
HETATM   34  C   UNK N   1      28.637  16.881   3.506  0.00  0.00     0.020 C 
BRANCH  34  35
HETATM   35  C   UNK N   1      27.874  15.577   3.676  0.00  0.00     0.122 C 
BRANCH  35  36
HETATM   36  N   UNK N   1      26.447  15.778   3.741  0.00  0.00    -0.361 N 
HETATM   37  C   UNK N   1      25.552  15.265   2.857  0.00  0.00     0.220 C 
HETATM   38  O   UNK N   1      25.901  14.515   1.965  0.00  0.00    -0.274 OA
HETATM   39  H   UNK N   1      26.096  16.326   4.479  0.00  0.00     0.162 HD
BRANCH  37  40
HETATM   40  C   UNK N   1      24.118  15.648   2.961  0.00  0.00     0.137 C 
BRANCH  40  41
HETATM   41  C   UNK N   1      23.223  14.703   2.162  0.00  0.00     0.176 C 
BRANCH  41  42
HETATM   42  C   UNK N   1      21.826  15.229   2.013  0.00  0.00     0.241 C 
HETATM   43  O   UNK N   1      21.124  14.847   1.088  0.00  0.00    -0.271 OA
HETATM   44  N   UNK N   1      21.347  16.093   2.933  0.00  0.00    -0.345 N 
HETATM   45  H   UNK N   1      21.974  16.464   3.597  0.00  0.00     0.163 HD
BRANCH  44  46
HETATM   46  C   UNK N   1      19.964  16.500   2.995  0.00  0.00     0.182 C 
BRANCH  46  47
HETATM   47  C   UNK N   1      19.453  16.371   4.445  0.00  0.00     0.045 C 
BRANCH  47  48
HETATM   48  C   UNK N   1      20.568  16.035   5.447  0.00  0.00     0.105 C 
BRANCH  48  49
HETATM   49  C   UNK N   1      21.211  17.285   5.998  0.00  0.00     0.218 C 
HETATM   50  O   UNK N   1      21.998  17.916   5.312  0.00  0.00    -0.274 OA
HETATM   51  N   UNK N   1      20.931  17.729   7.249  0.00  0.00    -0.347 N 
HETATM   52  H   UNK N   1      21.331  18.584   7.527  0.00  0.00     0.163 HD
BRANCH  51  53
HETATM   53  C   UNK N   1      20.088  17.037   8.207  0.00  0.00     0.182 C 
BRANCH  53  54
HETATM   54  C   UNK N   1      20.849  15.995   9.026  0.00  0.00     0.045 C 
BRANCH  54  55
HETATM   55  C   UNK N   1      20.298  14.586   8.862  0.00  0.00     0.105 C 
BRANCH  55  56
HETATM   56  C   UNK N   1      21.182  13.656   9.607  0.00  0.00     0.218 C 
HETATM   57  O   UNK N   1      20.751  13.025  10.563  0.00  0.00    -0.274 OA
HETATM   58  N   UNK N   1      22.437  13.460   9.156  0.00  0.00    -0.347 N 
HETATM   59  H   UNK N   1      22.784  14.048   8.446  0.00  0.00     0.163 HD
BRANCH  58  60
HETATM   60  C   UNK N   1      23.291  12.420   9.675  0.00  0.00     0.182 C 
BRANCH  60  61
HETATM   61  C   UNK N   1      23.379  11.246   8.674  0.00  0.00     0.045 C 
BRANCH  61  62
HETATM   62  C   UNK N   1      22.895  11.587   7.258  0.00  0.00     0.105 C 
BRANCH  62  63
HETATM   63  C   UNK N   1      24.024  11.638   6.268  0.00  0.00     0.218 C 
HETATM   64  O   UNK N   1      24.843  12.539   6.343  0.00  0.00    -0.274 OA
HETATM   65  N   UNK N   1      24.123  10.733   5.269  0.00  0.00    -0.347 N 
HETATM   66  H   UNK N   1      24.874  10.796   4.636  0.00  0.00     0.163 HD
BRANCH  65  67
HETATM   67  C   UNK N   1      23.156   9.674   5.104  0.00  0.00     0.182 C 
BRANCH  67  68
HETATM   68  C   UNK N   1      23.811   8.302   5.259  0.00  0.00     0.046 C 
BRANCH  68  69
HETATM   69  C   UNK N   1      24.094   7.938   6.711  0.00  0.00     0.112 C 
BRANCH  69  70
HETATM   70  C   UNK N   1      23.151   6.879   7.177  0.00  0.00     0.139 C 
HETATM   71  O   UNK N   1      23.462   6.137   8.093  0.00  0.00    -0.650 OA
BRANCH  70  72
HETATM   72  O   UNK N   1      21.946   6.753   6.592  0.00  0.00    -0.776 OA
HETATM   73  H   UNK N   1      21.572   5.908   6.436  0.00  0.00     0.167 HD
ENDBRANCH  70  72
ENDBRANCH  69  70
ENDBRANCH  68  69
ENDBRANCH  67  68
BRANCH  67  74
HETATM   74  C   UNK N   1      22.416   9.840   3.812  0.00  0.00     0.163 C 
HETATM   75  O   UNK N   1      22.841  10.581   2.940  0.00  0.00    -0.648 OA
BRANCH  74  76
HETATM   76  O   UNK N   1      21.251   9.191   3.628  0.00  0.00    -0.775 OA
HETATM   77  H   UNK N   1      20.795   8.390   3.792  0.00  0.00     0.167 HD
ENDBRANCH  74  76
ENDBRANCH  67  74
ENDBRANCH  65  67
ENDBRANCH  62  63
ENDBRANCH  61  62
ENDBRANCH  60  61
BRANCH  60  78
HETATM   78  C   UNK N   1      24.628  12.997  10.036  0.00  0.00     0.163 C 
HETATM   79  O   UNK N   1      25.201  13.772   9.285  0.00  0.00    -0.648 OA
BRANCH  78  80
HETATM   80  O   UNK N   1      25.209  12.648  11.200  0.00  0.00    -0.775 OA
HETATM   81  H   UNK N   1      25.204  13.156  11.987  0.00  0.00     0.167 HD
ENDBRANCH  78  80
ENDBRANCH  60  78
ENDBRANCH  58  60
ENDBRANCH  55  56
ENDBRANCH  54  55
ENDBRANCH  53  54
BRANCH  53  82
HETATM   82  C   UNK N   1      19.375  18.000   9.121  0.00  0.00     0.163 C 
HETATM   83  O   UNK N   1      20.002  18.890   9.672  0.00  0.00    -0.648 OA
BRANCH  82  84
HETATM   84  O   UNK N   1      18.052  17.879   9.353  0.00  0.00    -0.775 OA
HETATM   85  H   UNK N   1      17.743  17.673  10.213  0.00  0.00     0.167 HD
ENDBRANCH  82  84
ENDBRANCH  53  82
ENDBRANCH  51  53
ENDBRANCH  48  49
ENDBRANCH  47  48
ENDBRANCH  46  47
BRANCH  46  86
HETATM   86  C   UNK N   1      19.822  17.909   2.475  0.00  0.00     0.163 C 
HETATM   87  O   UNK N   1      20.783  18.508   2.018  0.00  0.00    -0.648 OA
BRANCH  86  88
HETATM   88  O   UNK N   1      18.621  18.517   2.513  0.00  0.00    -0.775 OA
HETATM   89  H   UNK N   1      17.934  18.246   1.936  0.00  0.00     0.167 HD
ENDBRANCH  86  88
ENDBRANCH  46  86
ENDBRANCH  44  46
ENDBRANCH  41  42
BRANCH  41  90
HETATM   90  N   UNK N   1      23.180  13.422   2.846  0.00  0.00    -0.418 N 
HETATM   91  H   UNK N   1      23.316  12.552   2.331  0.00  0.00     0.150 HD
HETATM   92  H   UNK N   1      23.011  13.392   3.851  0.00  0.00     0.150 HD
ENDBRANCH  41  90
ENDBRANCH  40  41
ENDBRANCH  37  40
ENDBRANCH  35  36
ENDBRANCH  34  35
ENDBRANCH  33  34
ENDBRANCH  32  33
ENDBRANCH  31  32
ENDBRANCH  30  31
ENDBRANCH  29  30
ENDBRANCH  28  29
ENDBRANCH  27  28
ENDBRANCH  26  27
ENDBRANCH  25  26
ENDBRANCH  23  25
ENDBRANCH  22  23
ENDBRANCH   9  22
BRANCH  11  93
HETATM   93  O   UNK N   1      36.103  14.966   9.854  0.00  0.00    -0.310 OA
BRANCH  93  94
HETATM   94  C   UNK N   1      35.120  15.489  10.636  0.00  0.00     0.255 C 
HETATM   95  O   UNK N   1      34.078  14.886  10.836  0.00  0.00    -0.266 OA
HETATM   96  C   UNK N   1      35.336  16.809  11.291  0.00  0.00     0.126 C 
ENDBRANCH  93  94
ENDBRANCH  11  93
BRANCH   1  97
HETATM   97  O   UNK N   1      36.629  12.352  11.341  0.00  0.00    -0.312 OA
BRANCH  97  98
HETATM   98  C   UNK N   1      36.473  12.271  12.687  0.00  0.00     0.259 C 
HETATM   99  O   UNK N   1      37.398  11.915  13.403  0.00  0.00    -0.265 OA
BRANCH  98 100
HETATM  100  C   UNK N   1      35.130  12.538  13.285  0.00  0.00     0.111 C 
BRANCH 100 101
HETATM  101  C   UNK N   1      34.547  11.310  13.956  0.00  0.00     0.010 C 
BRANCH 101 102
HETATM  102  C   UNK N   1      34.576  11.471  15.468  0.00  0.00     0.000 C 
BRANCH 102 103
HETATM  103  C   UNK N   1      34.551  12.939  15.875  0.00  0.00     0.000 C 
BRANCH 103 104
HETATM  104  C   UNK N   1      35.333  13.185  17.161  0.00  0.00    -0.000 C 
BRANCH 104 105
HETATM  105  C   UNK N   1      35.304  11.970  18.075  0.00  0.00    -0.005 C 
HETATM  106  C   UNK N   1      35.296  12.389  19.533  0.00  0.00     0.005 C 
ENDBRANCH 104 105
ENDBRANCH 103 104
ENDBRANCH 102 103
ENDBRANCH 101 102
ENDBRANCH 100 101
ENDBRANCH  98 100
ENDBRANCH  97  98
ENDBRANCH   1  97
BRANCH   5 107
HETATM  107  O   UNK N   1      36.661   9.583  10.093  0.00  0.00    -0.305 OA
BRANCH 107 108
HETATM  108  C   UNK N   1      35.990   8.931  11.078  0.00  0.00     0.289 C 
HETATM  109  O   UNK N   1      36.479   8.815  12.194  0.00  0.00    -0.260 OA
BRANCH 108 110
HETATM  110  C   UNK N   1      34.655   8.355  10.769  0.00  0.00     0.009 C 
HETATM  111  C   UNK N   1      34.471   7.172  10.161  0.00  0.00    -0.018 C 
HETATM  112  C   UNK N   1      35.579   6.263   9.731  0.00  0.00     0.036 C 
HETATM  113  C   UNK N   1      33.438   9.115  11.187  0.00  0.00     0.054 C 
ENDBRANCH 108 110
ENDBRANCH 107 108
ENDBRANCH   5 107
TORSDOF 57
ENDMDL
