MODEL 1
REMARK VINA RESULT:      -6.0      0.000      0.000
REMARK  5 active torsions:
REMARK  status: ('A' for Active; 'I' for Inactive)
REMARK    1  A    between atoms: C_10  and  N_3 
REMARK    2  A    between atoms: C_8  and  N_9 
REMARK    3  A    between atoms: C_12  and  O_17 
REMARK    4  A    between atoms: C_13  and  C_15 
REMARK    5  A    between atoms: C_15  and  O_16 
ROOT
HETATM    1  C   UNK N   1      33.731  15.957   8.157  0.00  0.00     0.252 C 
HETATM    2  C   UNK N   1      33.953  17.065   9.174  0.00  0.00     0.173 C 
HETATM    3  C   UNK N   1      34.743  16.232  10.125  0.00  0.00     0.171 C 
HETATM    4  C   UNK N   1      33.817  15.030  10.196  0.00  0.00     0.177 C 
HETATM    5  O   UNK N   1      33.312  14.823   8.892  0.00  0.00    -0.355 OA
HETATM    6  C   UNK N   1      34.712  18.211   8.652  0.00  0.00     0.071 C 
HETATM    7  N   UNK N   1      35.310  19.116   8.239  0.00  0.00    -0.197 NA
ENDROOT
BRANCH   1   8
HETATM    8  N   UNK N   1      32.875  16.258   6.984  0.00  0.00    -0.281 N 
HETATM    9  C   UNK N   1      31.533  16.414   7.185  0.00  0.00     0.102 A 
HETATM   10  C   UNK N   1      30.688  16.806   6.152  0.00  0.00     0.065 A 
HETATM   11  C   UNK N   1      31.234  17.067   4.903  0.00  0.00     0.103 A 
HETATM   12  N   UNK N   1      32.567  16.925   4.707  0.00  0.00    -0.295 N 
HETATM   13  C   UNK N   1      33.397  16.528   5.724  0.00  0.00     0.330 A 
ATOM     14  HN  UNK N   1      32.961  17.118   3.785  1.00  0.00     0.172 HD
HETATM   15  O   UNK N   1      34.594  16.456   5.510  0.00  0.00    -0.246 OA
BRANCH  11  16
HETATM   16  N   UNK N   1      30.409  17.501   3.848  0.00  0.00    -0.385 N 
HETATM   17  H   UNK N   1      30.386  18.454   3.599  0.00  0.00     0.157 HD
HETATM   18  H   UNK N   1      29.853  16.852   3.359  0.00  0.00     0.157 HD
ENDBRANCH  11  16
ENDBRANCH   1   8
BRANCH   3  19
HETATM   19  O   UNK N   1      34.931  16.845  11.366  0.00  0.00    -0.391 OA
HETATM   20  H   UNK N   1      34.277  17.331  11.892  0.00  0.00     0.210 HD
ENDBRANCH   3  19
BRANCH   4  21
HETATM   21  C   UNK N   1      34.534  13.776  10.679  0.00  0.00     0.198 C 
BRANCH  21  22
HETATM   22  O   UNK N   1      34.473  13.692  12.070  0.00  0.00    -0.398 OA
HETATM   23  H   UNK N   1      33.661  13.581  12.589  0.00  0.00     0.209 HD
ENDBRANCH  21  22
ENDBRANCH   4  21
TORSDOF 5
ENDMDL
MODEL 2
REMARK VINA RESULT:      -5.7      3.106      4.423
REMARK  5 active torsions:
REMARK  status: ('A' for Active; 'I' for Inactive)
REMARK    1  A    between atoms: C_10  and  N_3 
REMARK    2  A    between atoms: C_8  and  N_9 
REMARK    3  A    between atoms: C_12  and  O_17 
REMARK    4  A    between atoms: C_13  and  C_15 
REMARK    5  A    between atoms: C_15  and  O_16 
ROOT
HETATM    1  C   UNK N   1      30.781  16.490   6.925  0.00  0.00     0.252 C 
HETATM    2  C   UNK N   1      31.410  17.541   7.826  0.00  0.00     0.173 C 
HETATM    3  C   UNK N   1      30.300  17.563   8.820  0.00  0.00     0.171 C 
HETATM    4  C   UNK N   1      29.135  17.694   7.854  0.00  0.00     0.177 C 
HETATM    5  O   UNK N   1      29.437  16.887   6.734  0.00  0.00    -0.355 OA
HETATM    6  C   UNK N   1      32.694  17.132   8.413  0.00  0.00     0.071 C 
HETATM    7  N   UNK N   1      33.709  16.809   8.875  0.00  0.00    -0.197 NA
ENDROOT
BRANCH   1   8
HETATM    8  N   UNK N   1      31.487  16.148   5.666  0.00  0.00    -0.281 N 
HETATM    9  C   UNK N   1      31.879  17.167   4.846  0.00  0.00     0.102 A 
HETATM   10  C   UNK N   1      32.641  16.927   3.708  0.00  0.00     0.065 A 
HETATM   11  C   UNK N   1      33.028  15.624   3.424  0.00  0.00     0.103 A 
HETATM   12  N   UNK N   1      32.650  14.614   4.244  0.00  0.00    -0.295 N 
HETATM   13  C   UNK N   1      31.889  14.852   5.360  0.00  0.00     0.330 A 
ATOM     14  HN  UNK N   1      32.937  13.660   4.028  1.00  0.00     0.172 HD
HETATM   15  O   UNK N   1      31.611  13.918   6.090  0.00  0.00    -0.246 OA
BRANCH  11  16
HETATM   16  N   UNK N   1      33.830  15.356   2.298  0.00  0.00    -0.385 N 
HETATM   17  H   UNK N   1      33.443  15.401   1.394  0.00  0.00     0.157 HD
HETATM   18  H   UNK N   1      34.779  15.123   2.415  0.00  0.00     0.157 HD
ENDBRANCH  11  16
ENDBRANCH   1   8
BRANCH   3  19
HETATM   19  O   UNK N   1      30.385  18.632   9.715  0.00  0.00    -0.391 OA
HETATM   20  H   UNK N   1      31.139  18.877  10.273  0.00  0.00     0.210 HD
ENDBRANCH   3  19
BRANCH   4  21
HETATM   21  C   UNK N   1      27.817  17.248   8.475  0.00  0.00     0.198 C 
BRANCH  21  22
HETATM   22  O   UNK N   1      27.399  18.171   9.433  0.00  0.00    -0.398 OA
HETATM   23  H   UNK N   1      26.768  17.990  10.147  0.00  0.00     0.209 HD
ENDBRANCH  21  22
ENDBRANCH   4  21
TORSDOF 5
ENDMDL
MODEL 3
REMARK VINA RESULT:      -5.6      3.574      5.010
REMARK  5 active torsions:
REMARK  status: ('A' for Active; 'I' for Inactive)
REMARK    1  A    between atoms: C_10  and  N_3 
REMARK    2  A    between atoms: C_8  and  N_9 
REMARK    3  A    between atoms: C_12  and  O_17 
REMARK    4  A    between atoms: C_13  and  C_15 
REMARK    5  A    between atoms: C_15  and  O_16 
ROOT
HETATM    1  C   UNK N   1      30.300  17.590   6.795  0.00  0.00     0.252 C 
HETATM    2  C   UNK N   1      30.723  17.255   8.217  0.00  0.00     0.173 C 
HETATM    3  C   UNK N   1      32.153  17.632   8.035  0.00  0.00     0.171 C 
HETATM    4  C   UNK N   1      32.424  16.876   6.745  0.00  0.00     0.177 C 
HETATM    5  O   UNK N   1      31.264  16.999   5.946  0.00  0.00    -0.355 OA
HETATM    6  C   UNK N   1      30.047  18.058   9.246  0.00  0.00     0.071 C 
HETATM    7  N   UNK N   1      29.512  18.691  10.058  0.00  0.00    -0.197 NA
ENDROOT
BRANCH   1   8
HETATM    8  N   UNK N   1      28.900  17.295   6.405  0.00  0.00    -0.281 N 
HETATM    9  C   UNK N   1      28.549  15.994   6.186  0.00  0.00     0.102 A 
HETATM   10  C   UNK N   1      27.230  15.635   5.926  0.00  0.00     0.065 A 
HETATM   11  C   UNK N   1      26.256  16.624   5.917  0.00  0.00     0.103 A 
HETATM   12  N   UNK N   1      26.602  17.914   6.147  0.00  0.00    -0.295 N 
HETATM   13  C   UNK N   1      27.904  18.267   6.393  0.00  0.00     0.330 A 
ATOM     14  HN  UNK N   1      25.881  18.635   6.137  1.00  0.00     0.172 HD
HETATM   15  O   UNK N   1      28.160  19.432   6.636  0.00  0.00    -0.246 OA
BRANCH  11  16
HETATM   16  N   UNK N   1      24.908  16.285   5.693  0.00  0.00    -0.385 N 
HETATM   17  H   UNK N   1      24.648  15.816   4.867  0.00  0.00     0.157 HD
HETATM   18  H   UNK N   1      24.224  16.517   6.362  0.00  0.00     0.157 HD
ENDBRANCH  11  16
ENDBRANCH   1   8
BRANCH   3  19
HETATM   19  O   UNK N   1      32.969  17.214   9.089  0.00  0.00    -0.391 OA
HETATM   20  H   UNK N   1      32.865  17.413  10.032  0.00  0.00     0.210 HD
ENDBRANCH   3  19
BRANCH   4  21
HETATM   21  C   UNK N   1      33.630  17.426   5.996  0.00  0.00     0.198 C 
BRANCH  21  22
HETATM   22  O   UNK N   1      34.488  18.083   6.879  0.00  0.00    -0.398 OA
HETATM   23  H   UNK N   1      34.240  18.825   7.451  0.00  0.00     0.209 HD
ENDBRANCH  21  22
ENDBRANCH   4  21
TORSDOF 5
ENDMDL
MODEL 4
REMARK VINA RESULT:      -5.5     12.392     13.128
REMARK  5 active torsions:
REMARK  status: ('A' for Active; 'I' for Inactive)
REMARK    1  A    between atoms: C_10  and  N_3 
REMARK    2  A    between atoms: C_8  and  N_9 
REMARK    3  A    between atoms: C_12  and  O_17 
REMARK    4  A    between atoms: C_13  and  C_15 
REMARK    5  A    between atoms: C_15  and  O_16 
ROOT
HETATM    1  C   UNK N   1      20.920  16.077   6.563  0.00  0.00     0.252 C 
HETATM    2  C   UNK N   1      19.844  16.126   7.635  0.00  0.00     0.173 C 
HETATM    3  C   UNK N   1      20.388  14.997   8.440  0.00  0.00     0.171 C 
HETATM    4  C   UNK N   1      20.586  13.993   7.317  0.00  0.00     0.177 C 
HETATM    5  O   UNK N   1      21.051  14.717   6.196  0.00  0.00    -0.355 OA
HETATM    6  C   UNK N   1      19.801  17.392   8.381  0.00  0.00     0.071 C 
HETATM    7  N   UNK N   1      19.768  18.393   8.968  0.00  0.00    -0.197 NA
ENDROOT
BRANCH   1   8
HETATM    8  N   UNK N   1      20.786  16.997   5.407  0.00  0.00    -0.281 N 
HETATM    9  C   UNK N   1      19.919  16.659   4.408  0.00  0.00     0.102 A 
HETATM   10  C   UNK N   1      19.661  17.526   3.351  0.00  0.00     0.065 A 
HETATM   11  C   UNK N   1      20.284  18.766   3.335  0.00  0.00     0.103 A 
HETATM   12  N   UNK N   1      21.135  19.106   4.333  0.00  0.00    -0.295 N 
HETATM   13  C   UNK N   1      21.396  18.246   5.369  0.00  0.00     0.330 A 
ATOM     14  HN  UNK N   1      21.590  20.019   4.313  1.00  0.00     0.172 HD
HETATM   15  O   UNK N   1      22.135  18.614   6.264  0.00  0.00    -0.246 OA
BRANCH  11  16
HETATM   16  N   UNK N   1      20.014  19.678   2.297  0.00  0.00    -0.385 N 
HETATM   17  H   UNK N   1      19.806  20.618   2.507  0.00  0.00     0.157 HD
HETATM   18  H   UNK N   1      20.034  19.378   1.360  0.00  0.00     0.157 HD
ENDBRANCH  11  16
ENDBRANCH   1   8
BRANCH   3  19
HETATM   19  O   UNK N   1      19.504  14.546   9.422  0.00  0.00    -0.391 OA
HETATM   20  H   UNK N   1      19.571  13.739   9.954  0.00  0.00     0.210 HD
ENDBRANCH   3  19
BRANCH   4  21
HETATM   21  C   UNK N   1      21.586  12.906   7.684  0.00  0.00     0.198 C 
BRANCH  21  22
HETATM   22  O   UNK N   1      21.283  12.375   8.939  0.00  0.00    -0.398 OA
HETATM   23  H   UNK N   1      20.392  12.154   9.252  0.00  0.00     0.209 HD
ENDBRANCH  21  22
ENDBRANCH   4  21
TORSDOF 5
ENDMDL
MODEL 5
REMARK VINA RESULT:      -5.5     12.289     14.595
REMARK  5 active torsions:
REMARK  status: ('A' for Active; 'I' for Inactive)
REMARK    1  A    between atoms: C_10  and  N_3 
REMARK    2  A    between atoms: C_8  and  N_9 
REMARK    3  A    between atoms: C_12  and  O_17 
REMARK    4  A    between atoms: C_13  and  C_15 
REMARK    5  A    between atoms: C_15  and  O_16 
ROOT
HETATM    1  C   UNK N   1      20.891  17.858   3.442  0.00  0.00     0.252 C 
HETATM    2  C   UNK N   1      20.403  17.039   2.259  0.00  0.00     0.173 C 
HETATM    3  C   UNK N   1      20.767  18.047   1.224  0.00  0.00     0.171 C 
HETATM    4  C   UNK N   1      20.144  19.271   1.872  0.00  0.00     0.177 C 
HETATM    5  O   UNK N   1      20.372  19.161   3.262  0.00  0.00    -0.355 OA
HETATM    6  C   UNK N   1      21.109  15.761   2.084  0.00  0.00     0.071 C 
HETATM    7  N   UNK N   1      21.666  14.752   1.949  0.00  0.00    -0.197 NA
ENDROOT
BRANCH   1   8
HETATM    8  N   UNK N   1      20.667  17.308   4.801  0.00  0.00    -0.281 N 
HETATM    9  C   UNK N   1      19.595  16.486   4.998  0.00  0.00     0.102 A 
HETATM   10  C   UNK N   1      19.387  15.848   6.217  0.00  0.00     0.065 A 
HETATM   11  C   UNK N   1      20.309  16.037   7.237  0.00  0.00     0.103 A 
HETATM   12  N   UNK N   1      21.381  16.842   7.037  0.00  0.00    -0.295 N 
HETATM   13  C   UNK N   1      21.577  17.479   5.839  0.00  0.00     0.330 A 
ATOM     14  HN  UNK N   1      22.053  16.977   7.793  1.00  0.00     0.172 HD
HETATM   15  O   UNK N   1      22.577  18.158   5.693  0.00  0.00    -0.246 OA
BRANCH  11  16
HETATM   16  N   UNK N   1      20.145  15.375   8.469  0.00  0.00    -0.385 N 
HETATM   17  H   UNK N   1      20.118  15.891   9.307  0.00  0.00     0.157 HD
HETATM   18  H   UNK N   1      20.056  14.395   8.493  0.00  0.00     0.157 HD
ENDBRANCH  11  16
ENDBRANCH   1   8
BRANCH   3  19
HETATM   19  O   UNK N   1      20.227  17.765  -0.033  0.00  0.00    -0.391 OA
HETATM   20  H   UNK N   1      19.374  18.055  -0.389  0.00  0.00     0.210 HD
ENDBRANCH   3  19
BRANCH   4  21
HETATM   21  C   UNK N   1      20.743  20.570   1.350  0.00  0.00     0.198 C 
BRANCH  21  22
HETATM   22  O   UNK N   1      20.629  20.629  -0.040  0.00  0.00    -0.398 OA
HETATM   23  H   UNK N   1      20.280  21.382  -0.541  0.00  0.00     0.209 HD
ENDBRANCH  21  22
ENDBRANCH   4  21
TORSDOF 5
ENDMDL
MODEL 6
REMARK VINA RESULT:      -5.5     11.297     13.115
REMARK  5 active torsions:
REMARK  status: ('A' for Active; 'I' for Inactive)
REMARK    1  A    between atoms: C_10  and  N_3 
REMARK    2  A    between atoms: C_8  and  N_9 
REMARK    3  A    between atoms: C_12  and  O_17 
REMARK    4  A    between atoms: C_13  and  C_15 
REMARK    5  A    between atoms: C_15  and  O_16 
ROOT
HETATM    1  C   UNK N   1      22.304  18.142   4.030  0.00  0.00     0.252 C 
HETATM    2  C   UNK N   1      21.492  19.409   3.817  0.00  0.00     0.173 C 
HETATM    3  C   UNK N   1      22.492  20.077   2.938  0.00  0.00     0.171 C 
HETATM    4  C   UNK N   1      23.728  19.856   3.793  0.00  0.00     0.177 C 
HETATM    5  O   UNK N   1      23.616  18.562   4.350  0.00  0.00    -0.355 OA
HETATM    6  C   UNK N   1      20.201  19.186   3.149  0.00  0.00     0.071 C 
HETATM    7  N   UNK N   1      19.182  19.009   2.623  0.00  0.00    -0.197 NA
ENDROOT
BRANCH   1   8
HETATM    8  N   UNK N   1      21.761  17.121   4.958  0.00  0.00    -0.281 N 
HETATM    9  C   UNK N   1      21.715  15.823   4.538  0.00  0.00     0.102 A 
HETATM   10  C   UNK N   1      21.321  14.799   5.394  0.00  0.00     0.065 A 
HETATM   11  C   UNK N   1      20.996  15.112   6.706  0.00  0.00     0.103 A 
HETATM   12  N   UNK N   1      21.054  16.399   7.127  0.00  0.00    -0.295 N 
HETATM   13  C   UNK N   1      21.432  17.408   6.279  0.00  0.00     0.330 A 
ATOM     14  HN  UNK N   1      20.812  16.620   8.093  1.00  0.00     0.172 HD
HETATM   15  O   UNK N   1      21.510  18.542   6.715  0.00  0.00    -0.246 OA
BRANCH  11  16
HETATM   16  N   UNK N   1      20.630  14.092   7.605  0.00  0.00    -0.385 N 
HETATM   17  H   UNK N   1      20.431  13.187   7.270  0.00  0.00     0.157 HD
HETATM   18  H   UNK N   1      20.573  14.282   8.569  0.00  0.00     0.157 HD
ENDBRANCH  11  16
ENDBRANCH   1   8
BRANCH   3  19
HETATM   19  O   UNK N   1      22.216  21.429   2.722  0.00  0.00    -0.391 OA
HETATM   20  H   UNK N   1      22.255  21.915   1.884  0.00  0.00     0.210 HD
ENDBRANCH   3  19
BRANCH   4  21
HETATM   21  C   UNK N   1      25.015  19.964   2.986  0.00  0.00     0.198 C 
BRANCH  21  22
HETATM   22  O   UNK N   1      24.863  20.895   1.958  0.00  0.00    -0.398 OA
HETATM   23  H   UNK N   1      24.848  20.685   1.011  0.00  0.00     0.209 HD
ENDBRANCH  21  22
ENDBRANCH   4  21
TORSDOF 5
ENDMDL
MODEL 7
REMARK VINA RESULT:      -5.4      3.028      5.595
REMARK  5 active torsions:
REMARK  status: ('A' for Active; 'I' for Inactive)
REMARK    1  A    between atoms: C_10  and  N_3 
REMARK    2  A    between atoms: C_8  and  N_9 
REMARK    3  A    between atoms: C_12  and  O_17 
REMARK    4  A    between atoms: C_13  and  C_15 
REMARK    5  A    between atoms: C_15  and  O_16 
ROOT
HETATM    1  C   UNK N   1      31.462  17.395   8.009  0.00  0.00     0.252 C 
HETATM    2  C   UNK N   1      31.030  16.807   6.675  0.00  0.00     0.173 C 
HETATM    3  C   UNK N   1      29.800  17.636   6.542  0.00  0.00     0.171 C 
HETATM    4  C   UNK N   1      29.223  17.409   7.928  0.00  0.00     0.177 C 
HETATM    5  O   UNK N   1      30.311  17.400   8.830  0.00  0.00    -0.355 OA
HETATM    6  C   UNK N   1      31.991  17.030   5.584  0.00  0.00     0.071 C 
HETATM    7  N   UNK N   1      32.750  17.206   4.725  0.00  0.00    -0.197 NA
ENDROOT
BRANCH   1   8
HETATM    8  N   UNK N   1      32.660  16.815   8.663  0.00  0.00    -0.281 N 
HETATM    9  C   UNK N   1      32.614  15.510   9.058  0.00  0.00     0.102 A 
HETATM   10  C   UNK N   1      33.736  14.871   9.576  0.00  0.00     0.065 A 
HETATM   11  C   UNK N   1      34.928  15.577   9.664  0.00  0.00     0.103 A 
HETATM   12  N   UNK N   1      34.977  16.869   9.260  0.00  0.00    -0.295 N 
HETATM   13  C   UNK N   1      33.867  17.500   8.759  0.00  0.00     0.330 A 
ATOM     14  HN  UNK N   1      35.857  17.382   9.329  1.00  0.00     0.172 HD
HETATM   15  O   UNK N   1      33.972  18.649   8.369  0.00  0.00    -0.246 OA
BRANCH  11  16
HETATM   16  N   UNK N   1      36.088  14.945  10.150  0.00  0.00    -0.385 N 
HETATM   17  H   UNK N   1      36.035  14.037  10.528  0.00  0.00     0.157 HD
HETATM   18  H   UNK N   1      36.954  15.411  10.113  0.00  0.00     0.157 HD
ENDBRANCH  11  16
ENDBRANCH   1   8
BRANCH   3  19
HETATM   19  O   UNK N   1      28.951  17.200   5.522  0.00  0.00    -0.391 OA
HETATM   20  H   UNK N   1      28.270  17.712   5.059  0.00  0.00     0.210 HD
ENDBRANCH   3  19
BRANCH   4  21
HETATM   21  C   UNK N   1      28.229  18.492   8.326  0.00  0.00     0.198 C 
BRANCH  21  22
HETATM   22  O   UNK N   1      27.457  18.065   9.407  0.00  0.00    -0.398 OA
HETATM   23  H   UNK N   1      27.696  18.170  10.341  0.00  0.00     0.209 HD
ENDBRANCH  21  22
ENDBRANCH   4  21
TORSDOF 5
ENDMDL
MODEL 8
REMARK VINA RESULT:      -5.4      2.718      4.279
REMARK  5 active torsions:
REMARK  status: ('A' for Active; 'I' for Inactive)
REMARK    1  A    between atoms: C_10  and  N_3 
REMARK    2  A    between atoms: C_8  and  N_9 
REMARK    3  A    between atoms: C_12  and  O_17 
REMARK    4  A    between atoms: C_13  and  C_15 
REMARK    5  A    between atoms: C_15  and  O_16 
ROOT
HETATM    1  C   UNK N   1      35.160  14.432  10.842  0.00  0.00     0.252 C 
HETATM    2  C   UNK N   1      36.590  14.160  10.407  0.00  0.00     0.173 C 
HETATM    3  C   UNK N   1      36.942  13.316  11.583  0.00  0.00     0.171 C 
HETATM    4  C   UNK N   1      36.425  14.230  12.680  0.00  0.00     0.177 C 
HETATM    5  O   UNK N   1      35.225  14.805  12.205  0.00  0.00    -0.355 OA
HETATM    6  C   UNK N   1      36.699  13.437   9.131  0.00  0.00     0.071 C 
HETATM    7  N   UNK N   1      36.783  12.867   8.124  0.00  0.00    -0.197 NA
ENDROOT
BRANCH   1   8
HETATM    8  N   UNK N   1      34.348  15.353  10.009  0.00  0.00    -0.281 N 
HETATM    9  C   UNK N   1      33.192  14.880   9.460  0.00  0.00     0.102 A 
HETATM   10  C   UNK N   1      32.328  15.717   8.761  0.00  0.00     0.065 A 
HETATM   11  C   UNK N   1      32.645  17.063   8.649  0.00  0.00     0.103 A 
HETATM   12  N   UNK N   1      33.786  17.536   9.205  0.00  0.00    -0.295 N 
HETATM   13  C   UNK N   1      34.642  16.707   9.884  0.00  0.00     0.330 A 
ATOM     14  HN  UNK N   1      34.013  18.527   9.117  1.00  0.00     0.172 HD
HETATM   15  O   UNK N   1      35.634  17.186  10.404  0.00  0.00    -0.246 OA
BRANCH  11  16
HETATM   16  N   UNK N   1      31.771  17.941   7.979  0.00  0.00    -0.385 N 
HETATM   17  H   UNK N   1      31.694  17.906   6.998  0.00  0.00     0.157 HD
HETATM   18  H   UNK N   1      31.236  18.589   8.491  0.00  0.00     0.157 HD
ENDBRANCH  11  16
ENDBRANCH   1   8
BRANCH   3  19
HETATM   19  O   UNK N   1      38.311  13.062  11.688  0.00  0.00    -0.391 OA
HETATM   20  H   UNK N   1      39.003  13.273  11.042  0.00  0.00     0.210 HD
ENDBRANCH   3  19
BRANCH   4  21
HETATM   21  C   UNK N   1      36.163  13.482  13.980  0.00  0.00     0.198 C 
BRANCH  21  22
HETATM   22  O   UNK N   1      37.367  13.063  14.547  0.00  0.00    -0.398 OA
HETATM   23  H   UNK N   1      37.725  12.162  14.499  0.00  0.00     0.209 HD
ENDBRANCH  21  22
ENDBRANCH   4  21
TORSDOF 5
ENDMDL
MODEL 9
REMARK VINA RESULT:      -5.4     10.525     12.432
REMARK  5 active torsions:
REMARK  status: ('A' for Active; 'I' for Inactive)
REMARK    1  A    between atoms: C_10  and  N_3 
REMARK    2  A    between atoms: C_8  and  N_9 
REMARK    3  A    between atoms: C_12  and  O_17 
REMARK    4  A    between atoms: C_13  and  C_15 
REMARK    5  A    between atoms: C_15  and  O_16 
ROOT
HETATM    1  C   UNK N   1      22.359  17.410   4.421  0.00  0.00     0.252 C 
HETATM    2  C   UNK N   1      21.513  16.909   5.581  0.00  0.00     0.173 C 
HETATM    3  C   UNK N   1      22.536  15.963   6.109  0.00  0.00     0.171 C 
HETATM    4  C   UNK N   1      22.895  15.268   4.807  0.00  0.00     0.177 C 
HETATM    5  O   UNK N   1      22.898  16.259   3.799  0.00  0.00    -0.355 OA
HETATM    6  C   UNK N   1      21.148  17.954   6.548  0.00  0.00     0.071 C 
HETATM    7  N   UNK N   1      20.859  18.780   7.311  0.00  0.00    -0.197 NA
ENDROOT
BRANCH   1   8
HETATM    8  N   UNK N   1      21.735  18.364   3.473  0.00  0.00    -0.281 N 
HETATM    9  C   UNK N   1      22.268  19.617   3.371  0.00  0.00     0.102 A 
HETATM   10  C   UNK N   1      21.804  20.525   2.425  0.00  0.00     0.065 A 
HETATM   11  C   UNK N   1      20.796  20.130   1.555  0.00  0.00     0.103 A 
HETATM   12  N   UNK N   1      20.276  18.882   1.649  0.00  0.00    -0.295 N 
HETATM   13  C   UNK N   1      20.727  17.992   2.589  0.00  0.00     0.330 A 
ATOM     14  HN  UNK N   1      19.534  18.600   1.007  1.00  0.00     0.172 HD
HETATM   15  O   UNK N   1      20.259  16.869   2.606  0.00  0.00    -0.246 OA
BRANCH  11  16
HETATM   16  N   UNK N   1      20.332  21.015   0.564  0.00  0.00    -0.385 N 
HETATM   17  H   UNK N   1      20.752  21.899   0.456  0.00  0.00     0.157 HD
HETATM   18  H   UNK N   1      19.586  20.751  -0.022  0.00  0.00     0.157 HD
ENDBRANCH  11  16
ENDBRANCH   1   8
BRANCH   3  19
HETATM   19  O   UNK N   1      22.028  15.085   7.070  0.00  0.00    -0.391 OA
HETATM   20  H   UNK N   1      21.846  15.271   8.004  0.00  0.00     0.210 HD
ENDBRANCH   3  19
BRANCH   4  21
HETATM   21  C   UNK N   1      24.256  14.589   4.870  0.00  0.00     0.198 C 
BRANCH  21  22
HETATM   22  O   UNK N   1      24.886  14.883   6.080  0.00  0.00    -0.398 OA
HETATM   23  H   UNK N   1      24.553  15.503   6.748  0.00  0.00     0.209 HD
ENDBRANCH  21  22
ENDBRANCH   4  21
TORSDOF 5
ENDMDL
