REMARK  5 active torsions:
REMARK  status: ('A' for Active; 'I' for Inactive)
REMARK    1  A    between atoms: C_2  and  N_3 
REMARK    2  A    between atoms: N_3  and  C_4 
REMARK    3  A    between atoms: C_8  and  O_10 
REMARK    4  A    between atoms: C_20  and  O_26 
REMARK    5  A    between atoms: C_21  and  O_25 
ROOT
HETATM    1  C   UNK N   1       0.812  -2.740  -0.089  0.00  0.00     0.031 A 
HETATM    2  C   UNK N   1       1.841  -3.675  -0.145  0.00  0.00     0.041 A 
HETATM    3  C   UNK N   1       3.178  -3.281  -0.258  0.00  0.00    -0.015 A 
HETATM    4  C   UNK N   1       3.494  -1.881  -0.350  0.00  0.00     0.083 A 
HETATM    5  C   UNK N   1       2.438  -0.944  -0.243  0.00  0.00     0.085 A 
HETATM    6  C   UNK N   1       1.117  -1.377  -0.116  0.00  0.00     0.066 A 
HETATM    7  C   UNK N   1       4.892  -1.397  -0.606  0.00  0.00     0.297 C 
HETATM    8  O   UNK N   1       5.714  -2.155  -1.091  0.00  0.00    -0.259 OA
HETATM    9  O   UNK N   1       5.234  -0.095  -0.403  0.00  0.00    -0.312 OA
HETATM   10  C   UNK N   1       6.537   0.337  -0.570  0.00  0.00     0.135 C 
HETATM   11  C   UNK N   1       7.454  -0.294   0.493  0.00  0.00     0.033 C 
HETATM   12  C   UNK N   1       8.902  -0.203   0.131  0.00  0.00    -0.016 C 
HETATM   13  C   UNK N   1       9.709  -1.263  -0.066  0.00  0.00     0.049 C 
HETATM   14  C   UNK N   1       9.376  -2.715   0.022  0.00  0.00     0.180 C 
HETATM   15  O   UNK N   1      10.252  -3.519  -0.255  0.00  0.00    -0.290 OA
HETATM   16  C   UNK N   1       8.008  -3.220   0.428  0.00  0.00     0.220 C 
HETATM   17  C   UNK N   1       7.780  -4.729   0.178  0.00  0.00     0.158 C 
HETATM   18  C   UNK N   1       6.395  -5.243   0.618  0.00  0.00     0.061 C 
HETATM   19  C   UNK N   1       5.319  -4.207   0.505  0.00  0.00    -0.023 C 
HETATM   20  C   UNK N   1       4.188  -4.371  -0.188  0.00  0.00     0.009 C 
HETATM   21  C   UNK N   1       7.214   0.283   1.880  0.00  0.00     0.017 C 
HETATM   22  C   UNK N   1       6.596   1.858  -0.576  0.00  0.00     0.041 C 
ENDROOT
BRANCH   1  23
HETATM   23  N   UNK N   1      -0.531  -3.190  -0.027  0.00  0.00    -0.390 N 
HETATM   24  H   UNK N   1      -0.705  -4.157   0.023  0.00  0.00     0.159 HD
BRANCH  23  25
HETATM   25  C   UNK N   1      -1.651  -2.282  -0.035  0.00  0.00     0.115 C 
HETATM   26  C   UNK N   1      -2.682  -2.737   0.976  0.00  0.00     0.026 C 
ENDBRANCH  23  25
ENDBRANCH   1  23
BRANCH   5  27
HETATM   27  O   UNK N   1       2.675   0.379  -0.296  0.00  0.00    -0.360 OA
HETATM   28  H   UNK N   1       3.556   0.697  -0.333  0.00  0.00     0.217 HD
ENDBRANCH   5  27
BRANCH  17  29
HETATM   29  O   UNK N   1       7.981  -5.034  -1.169  0.00  0.00    -0.392 OA
HETATM   30  H   UNK N   1       7.868  -5.260  -2.105  0.00  0.00     0.210 HD
ENDBRANCH  17  29
BRANCH  16  31
HETATM   31  O   UNK N   1       7.778  -2.916   1.771  0.00  0.00    -0.385 OA
HETATM   32  H   UNK N   1       7.881  -2.671   2.704  0.00  0.00     0.210 HD
ENDBRANCH  16  31
TORSDOF 5
