MODEL 1
REMARK VINA RESULT:      -8.1      0.000      0.000
REMARK  5 active torsions:
REMARK  status: ('A' for Active; 'I' for Inactive)
REMARK    1  A    between atoms: C_5  and  N_9 
REMARK       I    between atoms: N_9  and  C_10 
REMARK       I    between atoms: C_10  and  N_12 
REMARK    2  A    between atoms: N_12  and  C_13 
REMARK    3  A    between atoms: C_17  and  C_20 
REMARK    4  A    between atoms: C_20  and  N_21 
REMARK       I    between atoms: N_24  and  C_27 
REMARK    5  A    between atoms: C_27  and  O_29 
ROOT
HETATM    1  C   UNK N   1      33.144  17.101   8.072  0.00  0.00     0.075 A 
HETATM    2  C   UNK N   1      33.985  17.472   7.010  0.00  0.00     0.033 A 
HETATM    3  C   UNK N   1      33.499  17.511   5.701  0.00  0.00     0.003 A 
HETATM    4  C   UNK N   1      32.183  17.126   5.433  0.00  0.00     0.012 A 
HETATM    5  C   UNK N   1      31.333  16.757   6.479  0.00  0.00     0.011 A 
HETATM    6  C   UNK N   1      31.817  16.777   7.810  0.00  0.00     0.151 A 
HETATM    7  F   UNK N   1      31.023  16.420   8.853  0.00  0.00    -0.203 F 
ENDROOT
BRANCH   1   8
HETATM    8  N   UNK N   1      33.624  16.936   9.405  0.00  0.00    -0.306 N 
HETATM    9  C   UNK N   1      34.303  15.862   9.874  0.00  0.00     0.325 C 
HETATM   10  N   UNK N   1      34.571  15.780  11.205  0.00  0.00    -0.307 N 
HETATM   11  O   UNK N   1      34.658  14.975   9.110  0.00  0.00    -0.247 OA
HETATM   12  H   UNK N   1      34.295  16.534  11.774  0.00  0.00     0.170 HD
HETATM   13  H   UNK N   1      33.445  17.668  10.041  0.00  0.00     0.171 HD
BRANCH  10  14
HETATM   14  C   UNK N   1      35.223  14.682  11.837  0.00  0.00     0.051 A 
HETATM   15  C   UNK N   1      34.893  13.352  11.537  0.00  0.00     0.033 A 
HETATM   16  C   UNK N   1      35.584  12.305  12.136  0.00  0.00     0.027 A 
HETATM   17  C   UNK N   1      36.605  12.594  13.038  0.00  0.00     0.005 A 
HETATM   18  C   UNK N   1      37.376  11.485  13.656  0.00  0.00     0.068 C 
HETATM   19  N   UNK N   1      36.903  13.887  13.341  0.00  0.00    -0.367 N 
HETATM   20  C   UNK N   1      36.236  14.926  12.767  0.00  0.00     0.117 A 
ATOM     21  HN  UNK N   1      37.645  14.082  14.015  1.00  0.00     0.165 HD
ENDBRANCH  10  14
ENDBRANCH   1   8
BRANCH   5  22
HETATM   22  C   UNK N   1      29.957  16.226   6.155  0.00  0.00     0.314 C 
BRANCH  22  23
HETATM   23  N   UNK N   1      29.093  17.333   5.754  0.00  0.00     0.095 N 
HETATM   24  C   UNK N   1      28.252  17.076   4.604  0.00  0.00     0.292 C 
HETATM   25  C   UNK N   1      27.777  18.441   4.081  0.00  0.00     0.158 C 
HETATM   26  N   UNK N   1      27.306  19.329   5.149  0.00  0.00    -0.325 N 
HETATM   27  C   UNK N   1      27.925  19.262   6.466  0.00  0.00     0.158 C 
HETATM   28  C   UNK N   1      26.372  20.311   4.921  0.00  0.00     0.362 C 
HETATM   29  C   UNK N   1      28.244  17.824   6.828  0.00  0.00     0.292 C 
HETATM   30  O   UNK N   1      26.104  21.094   5.822  0.00  0.00    -0.238 OA
BRANCH  28  31
HETATM   31  O   UNK N   1      25.724  20.474   3.732  0.00  0.00    -0.309 OA
HETATM   32  C   UNK N   1      24.425  20.129   3.445  0.00  0.00     0.215 C 
ENDBRANCH  28  31
ENDBRANCH  22  23
ENDBRANCH   5  22
TORSDOF 5
ENDMDL
MODEL 2
REMARK VINA RESULT:      -8.0      3.135      5.262
REMARK  5 active torsions:
REMARK  status: ('A' for Active; 'I' for Inactive)
REMARK    1  A    between atoms: C_5  and  N_9 
REMARK       I    between atoms: N_9  and  C_10 
REMARK       I    between atoms: C_10  and  N_12 
REMARK    2  A    between atoms: N_12  and  C_13 
REMARK    3  A    between atoms: C_17  and  C_20 
REMARK    4  A    between atoms: C_20  and  N_21 
REMARK       I    between atoms: N_24  and  C_27 
REMARK    5  A    between atoms: C_27  and  O_29 
ROOT
HETATM    1  C   UNK N   1      36.545  14.141  10.709  0.00  0.00     0.075 A 
HETATM    2  C   UNK N   1      36.439  13.227   9.647  0.00  0.00     0.033 A 
HETATM    3  C   UNK N   1      35.747  13.569   8.484  0.00  0.00     0.003 A 
HETATM    4  C   UNK N   1      35.106  14.806   8.390  0.00  0.00     0.012 A 
HETATM    5  C   UNK N   1      35.203  15.728   9.436  0.00  0.00     0.011 A 
HETATM    6  C   UNK N   1      35.956  15.396  10.589  0.00  0.00     0.151 A 
HETATM    7  F   UNK N   1      36.070  16.262  11.629  0.00  0.00    -0.203 F 
ENDROOT
BRANCH   1   8
HETATM    8  N   UNK N   1      37.141  13.797  11.958  0.00  0.00    -0.306 N 
HETATM    9  C   UNK N   1      36.526  13.144  12.974  0.00  0.00     0.325 C 
HETATM   10  N   UNK N   1      37.176  13.013  14.163  0.00  0.00    -0.307 N 
HETATM   11  O   UNK N   1      35.400  12.693  12.826  0.00  0.00    -0.247 OA
HETATM   12  H   UNK N   1      38.094  13.363  14.222  0.00  0.00     0.170 HD
HETATM   13  H   UNK N   1      38.082  14.056  12.094  0.00  0.00     0.171 HD
BRANCH  10  14
HETATM   14  C   UNK N   1      36.625  12.404  15.327  0.00  0.00     0.051 A 
HETATM   15  C   UNK N   1      35.829  13.121  16.232  0.00  0.00     0.033 A 
HETATM   16  C   UNK N   1      35.268  12.483  17.332  0.00  0.00     0.027 A 
HETATM   17  C   UNK N   1      35.507  11.124  17.523  0.00  0.00     0.005 A 
HETATM   18  C   UNK N   1      34.881  10.422  18.672  0.00  0.00     0.068 C 
HETATM   19  N   UNK N   1      36.299  10.440  16.652  0.00  0.00    -0.367 N 
HETATM   20  C   UNK N   1      36.860  11.049  15.571  0.00  0.00     0.117 A 
ATOM     21  HN  UNK N   1      36.476   9.449  16.814  1.00  0.00     0.165 HD
ENDBRANCH  10  14
ENDBRANCH   1   8
BRANCH   5  22
HETATM   22  C   UNK N   1      34.401  17.005   9.367  0.00  0.00     0.314 C 
BRANCH  22  23
HETATM   23  N   UNK N   1      33.558  16.983   8.175  0.00  0.00     0.095 N 
HETATM   24  C   UNK N   1      32.139  17.124   8.418  0.00  0.00     0.292 C 
HETATM   25  C   UNK N   1      31.415  16.640   7.151  0.00  0.00     0.158 C 
HETATM   26  N   UNK N   1      32.003  17.176   5.919  0.00  0.00    -0.325 N 
HETATM   27  C   UNK N   1      33.438  17.423   5.855  0.00  0.00     0.158 C 
HETATM   28  C   UNK N   1      31.265  17.348   4.774  0.00  0.00     0.362 C 
HETATM   29  C   UNK N   1      33.940  17.969   7.177  0.00  0.00     0.292 C 
HETATM   30  O   UNK N   1      31.835  17.689   3.746  0.00  0.00    -0.238 OA
BRANCH  28  31
HETATM   31  O   UNK N   1      29.917  17.149   4.709  0.00  0.00    -0.309 OA
HETATM   32  C   UNK N   1      28.934  18.103   4.826  0.00  0.00     0.215 C 
ENDBRANCH  28  31
ENDBRANCH  22  23
ENDBRANCH   5  22
TORSDOF 5
ENDMDL
MODEL 3
REMARK VINA RESULT:      -7.8      2.056      3.065
REMARK  5 active torsions:
REMARK  status: ('A' for Active; 'I' for Inactive)
REMARK    1  A    between atoms: C_5  and  N_9 
REMARK       I    between atoms: N_9  and  C_10 
REMARK       I    between atoms: C_10  and  N_12 
REMARK    2  A    between atoms: N_12  and  C_13 
REMARK    3  A    between atoms: C_17  and  C_20 
REMARK    4  A    between atoms: C_20  and  N_21 
REMARK       I    between atoms: N_24  and  C_27 
REMARK    5  A    between atoms: C_27  and  O_29 
ROOT
HETATM    1  C   UNK N   1      30.739  17.890   8.408  0.00  0.00     0.075 A 
HETATM    2  C   UNK N   1      29.705  18.241   9.291  0.00  0.00     0.033 A 
HETATM    3  C   UNK N   1      28.382  18.297   8.848  0.00  0.00     0.003 A 
HETATM    4  C   UNK N   1      28.084  18.057   7.504  0.00  0.00     0.012 A 
HETATM    5  C   UNK N   1      29.101  17.704   6.613  0.00  0.00     0.011 A 
HETATM    6  C   UNK N   1      30.432  17.593   7.083  0.00  0.00     0.151 A 
HETATM    7  F   UNK N   1      31.448  17.257   6.247  0.00  0.00    -0.203 F 
ENDROOT
BRANCH   1   8
HETATM    8  N   UNK N   1      32.114  17.931   8.784  0.00  0.00    -0.306 N 
HETATM    9  C   UNK N   1      32.890  16.854   9.059  0.00  0.00     0.325 C 
HETATM   10  N   UNK N   1      34.145  17.053   9.545  0.00  0.00    -0.307 N 
HETATM   11  O   UNK N   1      32.461  15.723   8.882  0.00  0.00    -0.247 OA
HETATM   12  H   UNK N   1      34.457  17.982   9.638  0.00  0.00     0.170 HD
HETATM   13  H   UNK N   1      32.536  18.818   8.851  0.00  0.00     0.171 HD
BRANCH  10  14
HETATM   14  C   UNK N   1      35.041  16.014   9.929  0.00  0.00     0.051 A 
HETATM   15  C   UNK N   1      35.501  15.056   9.014  0.00  0.00     0.033 A 
HETATM   16  C   UNK N   1      36.413  14.086   9.412  0.00  0.00     0.027 A 
HETATM   17  C   UNK N   1      36.864  14.078  10.730  0.00  0.00     0.005 A 
HETATM   18  C   UNK N   1      37.868  13.071  11.157  0.00  0.00     0.068 C 
HETATM   19  N   UNK N   1      36.396  14.999  11.618  0.00  0.00    -0.367 N 
HETATM   20  C   UNK N   1      35.500  15.954  11.248  0.00  0.00     0.117 A 
ATOM     21  HN  UNK N   1      36.725  14.970  12.583  1.00  0.00     0.165 HD
ENDBRANCH  10  14
ENDBRANCH   1   8
BRANCH   5  22
HETATM   22  C   UNK N   1      28.776  17.573   5.144  0.00  0.00     0.314 C 
BRANCH  22  23
HETATM   23  N   UNK N   1      27.409  18.026   4.908  0.00  0.00     0.095 N 
HETATM   24  C   UNK N   1      27.279  19.174   4.037  0.00  0.00     0.292 C 
HETATM   25  C   UNK N   1      25.875  19.755   4.265  0.00  0.00     0.158 C 
HETATM   26  N   UNK N   1      24.828  18.728   4.282  0.00  0.00    -0.325 N 
HETATM   27  C   UNK N   1      25.130  17.402   4.805  0.00  0.00     0.158 C 
HETATM   28  C   UNK N   1      23.530  19.003   3.926  0.00  0.00     0.362 C 
HETATM   29  C   UNK N   1      26.531  16.981   4.404  0.00  0.00     0.292 C 
HETATM   30  O   UNK N   1      22.679  18.136   4.071  0.00  0.00    -0.238 OA
BRANCH  28  31
HETATM   31  O   UNK N   1      23.125  20.205   3.425  0.00  0.00    -0.309 OA
HETATM   32  C   UNK N   1      22.024  20.442   2.636  0.00  0.00     0.215 C 
ENDBRANCH  28  31
ENDBRANCH  22  23
ENDBRANCH   5  22
TORSDOF 5
ENDMDL
MODEL 4
REMARK VINA RESULT:      -7.7      2.230     11.274
REMARK  5 active torsions:
REMARK  status: ('A' for Active; 'I' for Inactive)
REMARK    1  A    between atoms: C_5  and  N_9 
REMARK       I    between atoms: N_9  and  C_10 
REMARK       I    between atoms: C_10  and  N_12 
REMARK    2  A    between atoms: N_12  and  C_13 
REMARK    3  A    between atoms: C_17  and  C_20 
REMARK    4  A    between atoms: C_20  and  N_21 
REMARK       I    between atoms: N_24  and  C_27 
REMARK    5  A    between atoms: C_27  and  O_29 
ROOT
HETATM    1  C   UNK N   1      28.194  17.633   7.171  0.00  0.00     0.075 A 
HETATM    2  C   UNK N   1      28.173  18.148   8.478  0.00  0.00     0.033 A 
HETATM    3  C   UNK N   1      29.363  18.345   9.181  0.00  0.00     0.003 A 
HETATM    4  C   UNK N   1      30.583  17.978   8.608  0.00  0.00     0.012 A 
HETATM    5  C   UNK N   1      30.622  17.467   7.308  0.00  0.00     0.011 A 
HETATM    6  C   UNK N   1      29.416  17.324   6.580  0.00  0.00     0.151 A 
HETATM    7  F   UNK N   1      29.412  16.826   5.316  0.00  0.00    -0.203 F 
ENDROOT
BRANCH   1   8
HETATM    8  N   UNK N   1      27.003  17.307   6.457  0.00  0.00    -0.306 N 
HETATM    9  C   UNK N   1      26.250  18.175   5.740  0.00  0.00     0.325 C 
HETATM   10  N   UNK N   1      25.061  17.753   5.231  0.00  0.00    -0.307 N 
HETATM   11  O   UNK N   1      26.631  19.323   5.564  0.00  0.00    -0.247 OA
HETATM   12  H   UNK N   1      24.814  16.810   5.370  0.00  0.00     0.170 HD
HETATM   13  H   UNK N   1      26.702  16.370   6.489  0.00  0.00     0.171 HD
BRANCH  10  14
HETATM   14  C   UNK N   1      24.147  18.574   4.510  0.00  0.00     0.051 A 
HETATM   15  C   UNK N   1      24.583  19.629   3.695  0.00  0.00     0.033 A 
HETATM   16  C   UNK N   1      23.667  20.380   2.968  0.00  0.00     0.027 A 
HETATM   17  C   UNK N   1      22.312  20.071   3.060  0.00  0.00     0.005 A 
HETATM   18  C   UNK N   1      21.326  20.840   2.258  0.00  0.00     0.068 C 
HETATM   19  N   UNK N   1      21.894  19.060   3.871  0.00  0.00    -0.367 N 
HETATM   20  C   UNK N   1      22.777  18.316   4.593  0.00  0.00     0.117 A 
ATOM     21  HN  UNK N   1      20.897  18.855   3.938  1.00  0.00     0.165 HD
ENDBRANCH  10  14
ENDBRANCH   1   8
BRANCH   5  22
HETATM   22  C   UNK N   1      31.933  16.961   6.757  0.00  0.00     0.314 C 
BRANCH  22  23
HETATM   23  N   UNK N   1      32.823  16.619   7.863  0.00  0.00     0.095 N 
HETATM   24  C   UNK N   1      32.864  15.216   8.214  0.00  0.00     0.292 C 
HETATM   25  C   UNK N   1      33.471  15.122   9.623  0.00  0.00     0.158 C 
HETATM   26  N   UNK N   1      34.670  15.952   9.783  0.00  0.00    -0.325 N 
HETATM   27  C   UNK N   1      34.776  17.211   9.059  0.00  0.00     0.158 C 
HETATM   28  C   UNK N   1      35.656  15.640  10.688  0.00  0.00     0.362 C 
HETATM   29  C   UNK N   1      34.192  17.071   7.666  0.00  0.00     0.292 C 
HETATM   30  O   UNK N   1      36.575  16.430  10.858  0.00  0.00    -0.238 OA
BRANCH  28  31
HETATM   31  O   UNK N   1      35.668  14.493  11.425  0.00  0.00    -0.309 OA
HETATM   32  C   UNK N   1      36.093  14.350  12.725  0.00  0.00     0.215 C 
ENDBRANCH  28  31
ENDBRANCH  22  23
ENDBRANCH   5  22
TORSDOF 5
ENDMDL
MODEL 5
REMARK VINA RESULT:      -7.5      2.630      4.415
REMARK  5 active torsions:
REMARK  status: ('A' for Active; 'I' for Inactive)
REMARK    1  A    between atoms: C_5  and  N_9 
REMARK       I    between atoms: N_9  and  C_10 
REMARK       I    between atoms: C_10  and  N_12 
REMARK    2  A    between atoms: N_12  and  C_13 
REMARK    3  A    between atoms: C_17  and  C_20 
REMARK    4  A    between atoms: C_20  and  N_21 
REMARK       I    between atoms: N_24  and  C_27 
REMARK    5  A    between atoms: C_27  and  O_29 
ROOT
HETATM    1  C   UNK N   1      29.547  17.721   6.669  0.00  0.00     0.075 A 
HETATM    2  C   UNK N   1      28.972  18.403   7.753  0.00  0.00     0.033 A 
HETATM    3  C   UNK N   1      27.901  19.276   7.554  0.00  0.00     0.003 A 
HETATM    4  C   UNK N   1      27.427  19.518   6.263  0.00  0.00     0.012 A 
HETATM    5  C   UNK N   1      27.985  18.845   5.173  0.00  0.00     0.011 A 
HETATM    6  C   UNK N   1      29.033  17.918   5.390  0.00  0.00     0.151 A 
HETATM    7  F   UNK N   1      29.605  17.247   4.357  0.00  0.00    -0.203 F 
ENDROOT
BRANCH   1   8
HETATM    8  N   UNK N   1      30.712  16.910   6.806  0.00  0.00    -0.306 N 
HETATM    9  C   UNK N   1      31.416  16.724   7.949  0.00  0.00     0.325 C 
HETATM   10  N   UNK N   1      32.590  16.039   7.896  0.00  0.00    -0.307 N 
HETATM   11  O   UNK N   1      31.005  17.178   9.007  0.00  0.00    -0.247 OA
HETATM   12  H   UNK N   1      32.862  15.665   7.028  0.00  0.00     0.170 HD
HETATM   13  H   UNK N   1      31.033  16.444   5.999  0.00  0.00     0.171 HD
BRANCH  10  14
HETATM   14  C   UNK N   1      33.456  15.823   9.007  0.00  0.00     0.051 A 
HETATM   15  C   UNK N   1      34.465  16.735   9.349  0.00  0.00     0.033 A 
HETATM   16  C   UNK N   1      35.259  16.517  10.468  0.00  0.00     0.027 A 
HETATM   17  C   UNK N   1      35.040  15.381  11.245  0.00  0.00     0.005 A 
HETATM   18  C   UNK N   1      35.855  15.157  12.465  0.00  0.00     0.068 C 
HETATM   19  N   UNK N   1      34.072  14.490  10.894  0.00  0.00    -0.367 N 
HETATM   20  C   UNK N   1      33.287  14.685   9.799  0.00  0.00     0.117 A 
ATOM     21  HN  UNK N   1      33.934  13.656  11.465  1.00  0.00     0.165 HD
ENDBRANCH  10  14
ENDBRANCH   1   8
BRANCH   5  22
HETATM   22  C   UNK N   1      27.544  19.214   3.777  0.00  0.00     0.314 C 
BRANCH  22  23
HETATM   23  N   UNK N   1      26.096  19.398   3.759  0.00  0.00     0.095 N 
HETATM   24  C   UNK N   1      25.605  20.355   2.792  0.00  0.00     0.292 C 
HETATM   25  C   UNK N   1      24.177  20.732   3.216  0.00  0.00     0.158 C 
HETATM   26  N   UNK N   1      23.361  19.566   3.570  0.00  0.00    -0.325 N 
HETATM   27  C   UNK N   1      23.992  18.407   4.189  0.00  0.00     0.158 C 
HETATM   28  C   UNK N   1      21.993  19.569   3.445  0.00  0.00     0.362 C 
HETATM   29  C   UNK N   1      25.357  18.159   3.576  0.00  0.00     0.292 C 
HETATM   30  O   UNK N   1      21.358  18.610   3.864  0.00  0.00    -0.238 OA
BRANCH  28  31
HETATM   31  O   UNK N   1      21.289  20.594   2.884  0.00  0.00    -0.309 OA
HETATM   32  C   UNK N   1      20.730  20.621   1.629  0.00  0.00     0.215 C 
ENDBRANCH  28  31
ENDBRANCH  22  23
ENDBRANCH   5  22
TORSDOF 5
ENDMDL
MODEL 6
REMARK VINA RESULT:      -7.4      4.009      6.389
REMARK  5 active torsions:
REMARK  status: ('A' for Active; 'I' for Inactive)
REMARK    1  A    between atoms: C_5  and  N_9 
REMARK       I    between atoms: N_9  and  C_10 
REMARK       I    between atoms: C_10  and  N_12 
REMARK    2  A    between atoms: N_12  and  C_13 
REMARK    3  A    between atoms: C_17  and  C_20 
REMARK    4  A    between atoms: C_20  and  N_21 
REMARK       I    between atoms: N_24  and  C_27 
REMARK    5  A    between atoms: C_27  and  O_29 
ROOT
HETATM    1  C   UNK N   1      28.105  18.596   4.887  0.00  0.00     0.075 A 
HETATM    2  C   UNK N   1      27.955  19.989   4.983  0.00  0.00     0.033 A 
HETATM    3  C   UNK N   1      26.714  20.586   4.753  0.00  0.00     0.003 A 
HETATM    4  C   UNK N   1      25.622  19.802   4.372  0.00  0.00     0.012 A 
HETATM    5  C   UNK N   1      25.754  18.415   4.275  0.00  0.00     0.011 A 
HETATM    6  C   UNK N   1      27.002  17.812   4.566  0.00  0.00     0.151 A 
HETATM    7  F   UNK N   1      27.171  16.467   4.478  0.00  0.00    -0.203 F 
ENDROOT
BRANCH   1   8
HETATM    8  N   UNK N   1      29.374  17.954   5.000  0.00  0.00    -0.306 N 
HETATM    9  C   UNK N   1      29.887  17.411   6.131  0.00  0.00     0.325 C 
HETATM   10  N   UNK N   1      31.171  16.960   6.122  0.00  0.00    -0.307 N 
HETATM   11  O   UNK N   1      29.208  17.341   7.145  0.00  0.00    -0.247 OA
HETATM   12  H   UNK N   1      31.666  17.007   5.273  0.00  0.00     0.170 HD
HETATM   13  H   UNK N   1      29.925  17.899   4.185  0.00  0.00     0.171 HD
BRANCH  10  14
HETATM   14  C   UNK N   1      31.852  16.424   7.253  0.00  0.00     0.051 A 
HETATM   15  C   UNK N   1      31.939  15.042   7.478  0.00  0.00     0.033 A 
HETATM   16  C   UNK N   1      32.652  14.552   8.565  0.00  0.00     0.027 A 
HETATM   17  C   UNK N   1      33.278  15.450   9.427  0.00  0.00     0.005 A 
HETATM   18  C   UNK N   1      34.076  14.937  10.570  0.00  0.00     0.068 C 
HETATM   19  N   UNK N   1      33.170  16.790   9.214  0.00  0.00    -0.367 N 
HETATM   20  C   UNK N   1      32.473  17.289   8.156  0.00  0.00     0.117 A 
ATOM     21  HN  UNK N   1      33.623  17.435   9.862  1.00  0.00     0.165 HD
ENDBRANCH  10  14
ENDBRANCH   1   8
BRANCH   5  22
HETATM   22  C   UNK N   1      24.598  17.603   3.740  0.00  0.00     0.314 C 
BRANCH  22  23
HETATM   23  N   UNK N   1      23.636  17.366   4.812  0.00  0.00     0.095 N 
HETATM   24  C   UNK N   1      22.366  18.045   4.665  0.00  0.00     0.292 C 
HETATM   25  C   UNK N   1      21.692  18.042   6.045  0.00  0.00     0.158 C 
HETATM   26  N   UNK N   1      21.750  16.734   6.706  0.00  0.00    -0.325 N 
HETATM   27  C   UNK N   1      22.902  15.869   6.489  0.00  0.00     0.158 C 
HETATM   28  C   UNK N   1      20.805  16.337   7.622  0.00  0.00     0.362 C 
HETATM   29  C   UNK N   1      23.365  15.957   5.047  0.00  0.00     0.292 C 
HETATM   30  O   UNK N   1      20.970  15.285   8.224  0.00  0.00    -0.238 OA
BRANCH  28  31
HETATM   31  O   UNK N   1      19.686  17.060   7.911  0.00  0.00    -0.309 OA
HETATM   32  C   UNK N   1      19.491  17.882   8.996  0.00  0.00     0.215 C 
ENDBRANCH  28  31
ENDBRANCH  22  23
ENDBRANCH   5  22
TORSDOF 5
ENDMDL
MODEL 7
REMARK VINA RESULT:      -7.4      5.992     11.159
REMARK  5 active torsions:
REMARK  status: ('A' for Active; 'I' for Inactive)
REMARK    1  A    between atoms: C_5  and  N_9 
REMARK       I    between atoms: N_9  and  C_10 
REMARK       I    between atoms: C_10  and  N_12 
REMARK    2  A    between atoms: N_12  and  C_13 
REMARK    3  A    between atoms: C_17  and  C_20 
REMARK    4  A    between atoms: C_20  and  N_21 
REMARK       I    between atoms: N_24  and  C_27 
REMARK    5  A    between atoms: C_27  and  O_29 
ROOT
HETATM    1  C   UNK N   1      36.533  13.330  15.229  0.00  0.00     0.075 A 
HETATM    2  C   UNK N   1      35.773  13.679  16.358  0.00  0.00     0.033 A 
HETATM    3  C   UNK N   1      35.391  12.706  17.284  0.00  0.00     0.003 A 
HETATM    4  C   UNK N   1      35.716  11.366  17.063  0.00  0.00     0.012 A 
HETATM    5  C   UNK N   1      36.474  11.002  15.947  0.00  0.00     0.011 A 
HETATM    6  C   UNK N   1      36.907  12.003  15.044  0.00  0.00     0.151 A 
HETATM    7  F   UNK N   1      37.641  11.689  13.944  0.00  0.00    -0.203 F 
ENDROOT
BRANCH   1   8
HETATM    8  N   UNK N   1      36.848  14.266  14.200  0.00  0.00    -0.306 N 
HETATM    9  C   UNK N   1      36.091  14.523  13.107  0.00  0.00     0.325 C 
HETATM   10  N   UNK N   1      36.589  15.337  12.136  0.00  0.00    -0.307 N 
HETATM   11  O   UNK N   1      34.983  14.021  12.992  0.00  0.00    -0.247 OA
HETATM   12  H   UNK N   1      37.471  15.744  12.290  0.00  0.00     0.170 HD
HETATM   13  H   UNK N   1      37.690  14.770  14.293  0.00  0.00     0.171 HD
BRANCH  10  14
HETATM   14  C   UNK N   1      35.925  15.643  10.913  0.00  0.00     0.051 A 
HETATM   15  C   UNK N   1      35.977  14.782   9.806  0.00  0.00     0.033 A 
HETATM   16  C   UNK N   1      35.278  15.088   8.645  0.00  0.00     0.027 A 
HETATM   17  C   UNK N   1      34.526  16.260   8.595  0.00  0.00     0.005 A 
HETATM   18  C   UNK N   1      33.743  16.579   7.374  0.00  0.00     0.068 C 
HETATM   19  N   UNK N   1      34.499  17.101   9.666  0.00  0.00    -0.367 N 
HETATM   20  C   UNK N   1      35.180  16.819  10.810  0.00  0.00     0.117 A 
ATOM     21  HN  UNK N   1      33.954  17.962   9.608  1.00  0.00     0.165 HD
ENDBRANCH  10  14
ENDBRANCH   1   8
BRANCH   5  22
HETATM   22  C   UNK N   1      36.707   9.538  15.662  0.00  0.00     0.314 C 
BRANCH  22  23
HETATM   23  N   UNK N   1      36.090   9.189  14.386  0.00  0.00     0.095 N 
HETATM   24  C   UNK N   1      36.109   7.780  14.054  0.00  0.00     0.292 C 
HETATM   25  C   UNK N   1      35.841   7.670  12.545  0.00  0.00     0.158 C 
HETATM   26  N   UNK N   1      34.724   8.512  12.101  0.00  0.00    -0.325 N 
HETATM   27  C   UNK N   1      34.474   9.784  12.765  0.00  0.00     0.158 C 
HETATM   28  C   UNK N   1      33.968   8.197  10.998  0.00  0.00     0.362 C 
HETATM   29  C   UNK N   1      34.720   9.660  14.256  0.00  0.00     0.292 C 
HETATM   30  O   UNK N   1      33.126   8.996  10.610  0.00  0.00    -0.238 OA
BRANCH  28  31
HETATM   31  O   UNK N   1      34.108   7.038  10.293  0.00  0.00    -0.309 OA
HETATM   32  C   UNK N   1      34.765   6.872   9.097  0.00  0.00     0.215 C 
ENDBRANCH  28  31
ENDBRANCH  22  23
ENDBRANCH   5  22
TORSDOF 5
ENDMDL
MODEL 8
REMARK VINA RESULT:      -7.3      4.836      8.864
REMARK  5 active torsions:
REMARK  status: ('A' for Active; 'I' for Inactive)
REMARK    1  A    between atoms: C_5  and  N_9 
REMARK       I    between atoms: N_9  and  C_10 
REMARK       I    between atoms: C_10  and  N_12 
REMARK    2  A    between atoms: N_12  and  C_13 
REMARK    3  A    between atoms: C_17  and  C_20 
REMARK    4  A    between atoms: C_20  and  N_21 
REMARK       I    between atoms: N_24  and  C_27 
REMARK    5  A    between atoms: C_27  and  O_29 
ROOT
HETATM    1  C   UNK N   1      25.694  18.640   3.925  0.00  0.00     0.075 A 
HETATM    2  C   UNK N   1      25.939  19.724   3.067  0.00  0.00     0.033 A 
HETATM    3  C   UNK N   1      24.897  20.565   2.672  0.00  0.00     0.003 A 
HETATM    4  C   UNK N   1      23.590  20.301   3.087  0.00  0.00     0.012 A 
HETATM    5  C   UNK N   1      23.329  19.228   3.944  0.00  0.00     0.011 A 
HETATM    6  C   UNK N   1      24.401  18.414   4.386  0.00  0.00     0.151 A 
HETATM    7  F   UNK N   1      24.187  17.359   5.215  0.00  0.00    -0.203 F 
ENDROOT
BRANCH   1   8
HETATM    8  N   UNK N   1      26.701  17.688   4.263  0.00  0.00    -0.306 N 
HETATM    9  C   UNK N   1      27.884  17.968   4.863  0.00  0.00     0.325 C 
HETATM   10  N   UNK N   1      28.808  16.978   4.992  0.00  0.00    -0.307 N 
HETATM   11  O   UNK N   1      28.117  19.097   5.269  0.00  0.00    -0.247 OA
HETATM   12  H   UNK N   1      28.561  16.078   4.680  0.00  0.00     0.170 HD
HETATM   13  H   UNK N   1      26.522  16.745   4.041  0.00  0.00     0.171 HD
BRANCH  10  14
HETATM   14  C   UNK N   1      30.109  17.148   5.548  0.00  0.00     0.051 A 
HETATM   15  C   UNK N   1      30.345  17.047   6.926  0.00  0.00     0.033 A 
HETATM   16  C   UNK N   1      31.635  17.170   7.429  0.00  0.00     0.027 A 
HETATM   17  C   UNK N   1      32.689  17.397   6.546  0.00  0.00     0.005 A 
HETATM   18  C   UNK N   1      34.076  17.492   7.066  0.00  0.00     0.068 C 
HETATM   19  N   UNK N   1      32.448  17.516   5.211  0.00  0.00    -0.367 N 
HETATM   20  C   UNK N   1      31.191  17.402   4.701  0.00  0.00     0.117 A 
ATOM     21  HN  UNK N   1      33.228  17.696   4.579  1.00  0.00     0.165 HD
ENDBRANCH  10  14
ENDBRANCH   1   8
BRANCH   5  22
HETATM   22  C   UNK N   1      21.897  18.886   4.278  0.00  0.00     0.314 C 
BRANCH  22  23
HETATM   23  N   UNK N   1      21.374  17.963   3.277  0.00  0.00     0.095 N 
HETATM   24  C   UNK N   1      21.250  16.587   3.708  0.00  0.00     0.292 C 
HETATM   25  C   UNK N   1      21.125  15.727   2.440  0.00  0.00     0.158 C 
HETATM   26  N   UNK N   1      20.173  16.278   1.470  0.00  0.00    -0.325 N 
HETATM   27  C   UNK N   1      20.018  17.722   1.354  0.00  0.00     0.158 C 
HETATM   28  C   UNK N   1      19.499  15.481   0.576  0.00  0.00     0.362 C 
HETATM   29  C   UNK N   1      20.094  18.374   2.721  0.00  0.00     0.292 C 
HETATM   30  O   UNK N   1      18.807  16.009  -0.284  0.00  0.00    -0.238 OA
BRANCH  28  31
HETATM   31  O   UNK N   1      19.564  14.118   0.584  0.00  0.00    -0.309 OA
HETATM   32  C   UNK N   1      18.546  13.242   0.291  0.00  0.00     0.215 C 
ENDBRANCH  28  31
ENDBRANCH  22  23
ENDBRANCH   5  22
TORSDOF 5
ENDMDL
MODEL 9
REMARK VINA RESULT:      -7.3      2.167      2.989
REMARK  5 active torsions:
REMARK  status: ('A' for Active; 'I' for Inactive)
REMARK    1  A    between atoms: C_5  and  N_9 
REMARK       I    between atoms: N_9  and  C_10 
REMARK       I    between atoms: C_10  and  N_12 
REMARK    2  A    between atoms: N_12  and  C_13 
REMARK    3  A    between atoms: C_17  and  C_20 
REMARK    4  A    between atoms: C_20  and  N_21 
REMARK       I    between atoms: N_24  and  C_27 
REMARK    5  A    between atoms: C_27  and  O_29 
ROOT
HETATM    1  C   UNK N   1      34.933  16.102   9.186  0.00  0.00     0.075 A 
HETATM    2  C   UNK N   1      34.922  17.506   9.213  0.00  0.00     0.033 A 
HETATM    3  C   UNK N   1      34.178  18.227   8.278  0.00  0.00     0.003 A 
HETATM    4  C   UNK N   1      33.479  17.555   7.272  0.00  0.00     0.012 A 
HETATM    5  C   UNK N   1      33.477  16.158   7.233  0.00  0.00     0.011 A 
HETATM    6  C   UNK N   1      34.188  15.433   8.220  0.00  0.00     0.151 A 
HETATM    7  F   UNK N   1      34.214  14.075   8.212  0.00  0.00    -0.203 F 
ENDROOT
BRANCH   1   8
HETATM    8  N   UNK N   1      35.766  15.326  10.046  0.00  0.00    -0.306 N 
HETATM    9  C   UNK N   1      35.413  14.838  11.259  0.00  0.00     0.325 C 
HETATM   10  N   UNK N   1      36.360  14.238  12.030  0.00  0.00    -0.307 N 
HETATM   11  O   UNK N   1      34.263  14.949  11.658  0.00  0.00    -0.247 OA
HETATM   12  H   UNK N   1      37.264  14.143  11.652  0.00  0.00     0.170 HD
HETATM   13  H   UNK N   1      36.678  15.127   9.729  0.00  0.00     0.171 HD
BRANCH  10  14
HETATM   14  C   UNK N   1      36.140  13.736  13.345  0.00  0.00     0.051 A 
HETATM   15  C   UNK N   1      36.650  14.382  14.481  0.00  0.00     0.033 A 
HETATM   16  C   UNK N   1      36.374  13.892  15.751  0.00  0.00     0.027 A 
HETATM   17  C   UNK N   1      35.586  12.750  15.882  0.00  0.00     0.005 A 
HETATM   18  C   UNK N   1      35.252  12.238  17.235  0.00  0.00     0.068 C 
HETATM   19  N   UNK N   1      35.113  12.116  14.773  0.00  0.00    -0.367 N 
HETATM   20  C   UNK N   1      35.375  12.580  13.521  0.00  0.00     0.117 A 
ATOM     21  HN  UNK N   1      34.549  11.273  14.885  1.00  0.00     0.165 HD
ENDBRANCH  10  14
ENDBRANCH   1   8
BRANCH   5  22
HETATM   22  C   UNK N   1      32.822  15.458   6.067  0.00  0.00     0.314 C 
BRANCH  22  23
HETATM   23  N   UNK N   1      31.549  16.106   5.765  0.00  0.00     0.095 N 
HETATM   24  C   UNK N   1      31.430  16.643   4.426  0.00  0.00     0.292 C 
HETATM   25  C   UNK N   1      30.260  17.639   4.443  0.00  0.00     0.158 C 
HETATM   26  N   UNK N   1      29.075  17.116   5.130  0.00  0.00    -0.325 N 
HETATM   27  C   UNK N   1      29.239  16.211   6.260  0.00  0.00     0.158 C 
HETATM   28  C   UNK N   1      27.806  17.540   4.820  0.00  0.00     0.362 C 
HETATM   29  C   UNK N   1      30.393  15.259   6.012  0.00  0.00     0.292 C 
HETATM   30  O   UNK N   1      26.868  17.154   5.504  0.00  0.00    -0.238 OA
BRANCH  28  31
HETATM   31  O   UNK N   1      27.525  18.385   3.787  0.00  0.00    -0.309 OA
HETATM   32  C   UNK N   1      27.154  19.706   3.877  0.00  0.00     0.215 C 
ENDBRANCH  28  31
ENDBRANCH  22  23
ENDBRANCH   5  22
TORSDOF 5
ENDMDL
