MODEL 1
REMARK VINA RESULT:      -8.6      0.000      0.000
REMARK  6 active torsions:
REMARK  status: ('A' for Active; 'I' for Inactive)
REMARK    1  A    between atoms: C_2  and  C_6 
REMARK    2  A    between atoms: C_6  and  O_7 
REMARK    3  A    between atoms: O_7  and  C_8 
REMARK    4  A    between atoms: N_17  and  C_18 
REMARK    5  A    between atoms: C_25  and  N_29 
REMARK    6  A    between atoms: C_32  and  N_35 
ROOT
HETATM    1  C   UNK N   1      27.144  19.129   5.795  0.00  0.00     0.113 A 
HETATM    2  C   UNK N   1      27.670  20.077   4.908  0.00  0.00     0.050 A 
HETATM    3  C   UNK N   1      26.888  20.558   3.862  0.00  0.00     0.017 A 
HETATM    4  C   UNK N   1      25.575  20.114   3.724  0.00  0.00    -0.007 A 
HETATM    5  C   UNK N   1      24.756  20.656   2.737  0.00  0.00     0.014 A 
HETATM    6  C   UNK N   1      23.423  20.258   2.644  0.00  0.00     0.003 A 
HETATM    7  C   UNK N   1      22.911  19.301   3.524  0.00  0.00     0.032 A 
HETATM    8  C   UNK N   1      23.726  18.708   4.508  0.00  0.00     0.058 A 
HETATM    9  C   UNK N   1      25.074  19.137   4.615  0.00  0.00     0.070 A 
HETATM   10  N   UNK N   1      25.878  18.673   5.610  0.00  0.00    -0.340 N 
ATOM     11  HN  UNK N   1      25.517  17.955   6.239  1.00  0.00     0.167 HD
ENDROOT
BRANCH   1  12
HETATM   12  N   UNK N   1      27.883  18.715   6.956  0.00  0.00    -0.292 N 
HETATM   13  C   UNK N   1      27.707  19.155   8.229  0.00  0.00     0.191 A 
HETATM   14  N   UNK N   1      28.613  18.594   9.077  0.00  0.00    -0.350 N 
HETATM   15  C   UNK N   1      29.368  17.804   8.293  0.00  0.00     0.063 A 
ATOM     16  HN  UNK N   1      28.700  18.741  10.083  1.00  0.00     0.166 HD
HETATM   17  C   UNK N   1      28.931  17.879   7.010  0.00  0.00     0.068 A 
HETATM   18  C   UNK N   1      30.456  17.016   8.655  0.00  0.00     0.068 A 
HETATM   19  C   UNK N   1      29.564  17.201   5.971  0.00  0.00     0.035 A 
HETATM   20  C   UNK N   1      30.681  16.415   6.290  0.00  0.00     0.039 A 
HETATM   21  C   UNK N   1      31.125  16.304   7.626  0.00  0.00     0.071 A 
BRANCH  21  22
HETATM   22  O   UNK N   1      32.176  15.498   7.892  0.00  0.00    -0.350 OA
BRANCH  22  23
HETATM   23  C   UNK N   1      32.970  15.676   9.003  0.00  0.00     0.189 C 
BRANCH  23  24
HETATM   24  C   UNK N   1      34.366  16.154   8.654  0.00  0.00     0.021 A 
HETATM   25  C   UNK N   1      35.056  15.453   7.500  0.00  0.00     0.022 C 
HETATM   26  C   UNK N   1      34.510  17.646   8.644  0.00  0.00     0.181 A 
HETATM   27  O   UNK N   1      35.277  17.640   9.823  0.00  0.00    -0.389 OA
HETATM   28  C   UNK N   1      35.221  16.236   9.880  0.00  0.00     0.181 A 
ENDBRANCH  23  24
ENDBRANCH  22  23
ENDBRANCH  21  22
ENDBRANCH   1  12
BRANCH   8  29
HETATM   29  N   UNK N   1      23.169  17.714   5.382  0.00  0.00    -0.379 N 
HETATM   30  C   UNK N   1      23.819  16.419   5.523  0.00  0.00     0.125 C 
HETATM   31  C   UNK N   1      23.020  15.484   6.441  0.00  0.00     0.044 C 
HETATM   32  C   UNK N   1      21.524  15.496   6.088  0.00  0.00     0.077 C 
HETATM   33  C   UNK N   1      20.940  16.905   5.915  0.00  0.00     0.044 C 
HETATM   34  C   UNK N   1      21.978  17.986   6.164  0.00  0.00     0.125 C 
BRANCH  32  35
HETATM   35  N   UNK N   1      20.780  14.795   7.117  0.00  0.00    -0.426 N 
HETATM   36  H   UNK N   1      20.394  13.867   6.944  0.00  0.00     0.150 HD
HETATM   37  H   UNK N   1      20.642  15.236   8.025  0.00  0.00     0.150 HD
ENDBRANCH  32  35
ENDBRANCH   8  29
TORSDOF 6
ENDMDL
MODEL 2
REMARK VINA RESULT:      -8.4      2.003      3.015
REMARK  6 active torsions:
REMARK  status: ('A' for Active; 'I' for Inactive)
REMARK    1  A    between atoms: C_2  and  C_6 
REMARK    2  A    between atoms: C_6  and  O_7 
REMARK    3  A    between atoms: O_7  and  C_8 
REMARK    4  A    between atoms: N_17  and  C_18 
REMARK    5  A    between atoms: C_25  and  N_29 
REMARK    6  A    between atoms: C_32  and  N_35 
ROOT
HETATM    1  C   UNK N   1      24.940  19.491   4.325  0.00  0.00     0.113 A 
HETATM    2  C   UNK N   1      24.929  20.532   3.386  0.00  0.00     0.050 A 
HETATM    3  C   UNK N   1      23.769  20.802   2.665  0.00  0.00     0.017 A 
HETATM    4  C   UNK N   1      22.619  20.054   2.904  0.00  0.00    -0.007 A 
HETATM    5  C   UNK N   1      21.430  20.376   2.255  0.00  0.00     0.014 A 
HETATM    6  C   UNK N   1      20.265  19.668   2.545  0.00  0.00     0.003 A 
HETATM    7  C   UNK N   1      20.290  18.623   3.473  0.00  0.00     0.032 A 
HETATM    8  C   UNK N   1      21.485  18.251   4.118  0.00  0.00     0.058 A 
HETATM    9  C   UNK N   1      22.662  18.992   3.837  0.00  0.00     0.070 A 
HETATM   10  N   UNK N   1      23.821  18.743   4.504  0.00  0.00    -0.340 N 
ATOM     11  HN  UNK N   1      23.851  17.963   5.162  1.00  0.00     0.167 HD
ENDROOT
BRANCH   1  12
HETATM   12  N   UNK N   1      26.080  19.275   5.172  0.00  0.00    -0.292 N 
HETATM   13  C   UNK N   1      26.377  19.944   6.316  0.00  0.00     0.191 A 
HETATM   14  N   UNK N   1      27.561  19.524   6.844  0.00  0.00    -0.350 N 
HETATM   15  C   UNK N   1      27.999  18.585   5.986  0.00  0.00     0.063 A 
ATOM     16  HN  UNK N   1      28.013  19.848   7.699  1.00  0.00     0.166 HD
HETATM   17  C   UNK N   1      27.108  18.436   4.973  0.00  0.00     0.068 A 
HETATM   18  C   UNK N   1      29.178  17.847   6.044  0.00  0.00     0.068 A 
HETATM   19  C   UNK N   1      27.332  17.565   3.911  0.00  0.00     0.035 A 
HETATM   20  C   UNK N   1      28.521  16.820   3.917  0.00  0.00     0.039 A 
HETATM   21  C   UNK N   1      29.441  16.942   4.982  0.00  0.00     0.071 A 
BRANCH  21  22
HETATM   22  O   UNK N   1      30.550  16.171   4.969  0.00  0.00    -0.350 OA
BRANCH  22  23
HETATM   23  C   UNK N   1      31.558  16.328   5.893  0.00  0.00     0.189 C 
BRANCH  23  24
HETATM   24  C   UNK N   1      32.822  16.906   5.288  0.00  0.00     0.021 A 
HETATM   25  C   UNK N   1      32.664  17.670   3.987  0.00  0.00     0.022 C 
HETATM   26  C   UNK N   1      33.725  17.565   6.286  0.00  0.00     0.181 A 
HETATM   27  O   UNK N   1      34.675  16.533   6.199  0.00  0.00    -0.389 OA
HETATM   28  C   UNK N   1      33.904  15.873   5.227  0.00  0.00     0.181 A 
ENDBRANCH  23  24
ENDBRANCH  22  23
ENDBRANCH  21  22
ENDBRANCH   1  12
BRANCH   8  29
HETATM   29  N   UNK N   1      21.476  17.159   5.049  0.00  0.00    -0.379 N 
HETATM   30  C   UNK N   1      21.199  17.401   6.458  0.00  0.00     0.125 C 
HETATM   31  C   UNK N   1      21.315  16.115   7.286  0.00  0.00     0.044 C 
HETATM   32  C   UNK N   1      22.593  15.336   6.935  0.00  0.00     0.077 C 
HETATM   33  C   UNK N   1      22.823  15.170   5.427  0.00  0.00     0.044 C 
HETATM   34  C   UNK N   1      21.705  15.795   4.608  0.00  0.00     0.125 C 
BRANCH  32  35
HETATM   35  N   UNK N   1      22.546  14.026   7.557  0.00  0.00    -0.426 N 
HETATM   36  H   UNK N   1      22.997  13.855   8.455  0.00  0.00     0.150 HD
HETATM   37  H   UNK N   1      22.054  13.265   7.088  0.00  0.00     0.150 HD
ENDBRANCH  32  35
ENDBRANCH   8  29
TORSDOF 6
ENDMDL
MODEL 3
REMARK VINA RESULT:      -8.3      4.151      6.908
REMARK  6 active torsions:
REMARK  status: ('A' for Active; 'I' for Inactive)
REMARK    1  A    between atoms: C_2  and  C_6 
REMARK    2  A    between atoms: C_6  and  O_7 
REMARK    3  A    between atoms: O_7  and  C_8 
REMARK    4  A    between atoms: N_17  and  C_18 
REMARK    5  A    between atoms: C_25  and  N_29 
REMARK    6  A    between atoms: C_32  and  N_35 
ROOT
HETATM    1  C   UNK N   1      31.280  17.487   7.744  0.00  0.00     0.113 A 
HETATM    2  C   UNK N   1      30.237  17.982   8.538  0.00  0.00     0.050 A 
HETATM    3  C   UNK N   1      28.930  17.957   8.060  0.00  0.00     0.017 A 
HETATM    4  C   UNK N   1      28.666  17.411   6.806  0.00  0.00    -0.007 A 
HETATM    5  C   UNK N   1      27.352  17.297   6.358  0.00  0.00     0.014 A 
HETATM    6  C   UNK N   1      27.086  16.690   5.132  0.00  0.00     0.003 A 
HETATM    7  C   UNK N   1      28.134  16.212   4.341  0.00  0.00     0.032 A 
HETATM    8  C   UNK N   1      29.475  16.346   4.751  0.00  0.00     0.058 A 
HETATM    9  C   UNK N   1      29.737  16.942   6.012  0.00  0.00     0.070 A 
HETATM   10  N   UNK N   1      31.004  17.006   6.504  0.00  0.00    -0.340 N 
ATOM     11  HN  UNK N   1      31.775  16.683   5.919  1.00  0.00     0.167 HD
ENDROOT
BRANCH   1  12
HETATM   12  N   UNK N   1      32.616  17.383   8.263  0.00  0.00    -0.292 N 
HETATM   13  C   UNK N   1      33.561  18.359   8.268  0.00  0.00     0.191 A 
HETATM   14  N   UNK N   1      34.737  17.908   8.788  0.00  0.00    -0.350 N 
HETATM   15  C   UNK N   1      34.500  16.619   9.091  0.00  0.00     0.063 A 
ATOM     16  HN  UNK N   1      35.603  18.431   8.918  1.00  0.00     0.166 HD
HETATM   17  C   UNK N   1      33.221  16.299   8.771  0.00  0.00     0.068 A 
HETATM   18  C   UNK N   1      35.379  15.685   9.633  0.00  0.00     0.068 A 
HETATM   19  C   UNK N   1      32.718  15.011   8.930  0.00  0.00     0.035 A 
HETATM   20  C   UNK N   1      33.579  14.032   9.449  0.00  0.00     0.039 A 
HETATM   21  C   UNK N   1      34.902  14.362   9.817  0.00  0.00     0.071 A 
BRANCH  21  22
HETATM   22  O   UNK N   1      35.680  13.398  10.357  0.00  0.00    -0.350 OA
BRANCH  22  23
HETATM   23  C   UNK N   1      36.678  13.688  11.260  0.00  0.00     0.189 C 
BRANCH  23  24
HETATM   24  C   UNK N   1      36.471  13.008  12.600  0.00  0.00     0.021 A 
HETATM   25  C   UNK N   1      37.470  11.931  12.976  0.00  0.00     0.022 C 
HETATM   26  C   UNK N   1      36.133  13.953  13.713  0.00  0.00     0.181 A 
HETATM   27  O   UNK N   1      34.802  13.505  13.770  0.00  0.00    -0.389 OA
HETATM   28  C   UNK N   1      35.051  12.563  12.756  0.00  0.00     0.181 A 
ENDBRANCH  23  24
ENDBRANCH  22  23
ENDBRANCH  21  22
ENDBRANCH   1  12
BRANCH   8  29
HETATM   29  N   UNK N   1      30.526  15.861   3.902  0.00  0.00    -0.379 N 
HETATM   30  C   UNK N   1      30.972  14.479   4.007  0.00  0.00     0.125 C 
HETATM   31  C   UNK N   1      32.151  14.194   3.068  0.00  0.00     0.044 C 
HETATM   32  C   UNK N   1      33.219  15.295   3.160  0.00  0.00     0.077 C 
HETATM   33  C   UNK N   1      32.650  16.718   3.085  0.00  0.00     0.044 C 
HETATM   34  C   UNK N   1      31.141  16.719   2.906  0.00  0.00     0.125 C 
BRANCH  32  35
HETATM   35  N   UNK N   1      34.190  15.114   2.097  0.00  0.00    -0.426 N 
HETATM   36  H   UNK N   1      34.209  14.258   1.543  0.00  0.00     0.150 HD
HETATM   37  H   UNK N   1      34.864  15.854   1.901  0.00  0.00     0.150 HD
ENDBRANCH  32  35
ENDBRANCH   8  29
TORSDOF 6
ENDMDL
MODEL 4
REMARK VINA RESULT:      -8.0      3.024      4.936
REMARK  6 active torsions:
REMARK  status: ('A' for Active; 'I' for Inactive)
REMARK    1  A    between atoms: C_2  and  C_6 
REMARK    2  A    between atoms: C_6  and  O_7 
REMARK    3  A    between atoms: O_7  and  C_8 
REMARK    4  A    between atoms: N_17  and  C_18 
REMARK    5  A    between atoms: C_25  and  N_29 
REMARK    6  A    between atoms: C_32  and  N_35 
ROOT
HETATM    1  C   UNK N   1      30.283  16.040   3.895  0.00  0.00     0.113 A 
HETATM    2  C   UNK N   1      30.373  14.833   3.189  0.00  0.00     0.050 A 
HETATM    3  C   UNK N   1      29.244  14.305   2.570  0.00  0.00     0.017 A 
HETATM    4  C   UNK N   1      28.037  14.997   2.634  0.00  0.00    -0.007 A 
HETATM    5  C   UNK N   1      26.925  14.525   1.942  0.00  0.00     0.014 A 
HETATM    6  C   UNK N   1      25.737  15.254   1.953  0.00  0.00     0.003 A 
HETATM    7  C   UNK N   1      25.653  16.450   2.672  0.00  0.00     0.032 A 
HETATM    8  C   UNK N   1      26.749  16.933   3.410  0.00  0.00     0.058 A 
HETATM    9  C   UNK N   1      27.963  16.200   3.374  0.00  0.00     0.070 A 
HETATM   10  N   UNK N   1      29.083  16.672   3.986  0.00  0.00    -0.340 N 
ATOM     11  HN  UNK N   1      29.019  17.530   4.534  1.00  0.00     0.167 HD
ENDROOT
BRANCH   1  12
HETATM   12  N   UNK N   1      31.457  16.671   4.432  0.00  0.00    -0.292 N 
HETATM   13  C   UNK N   1      32.440  17.287   3.725  0.00  0.00     0.191 A 
HETATM   14  N   UNK N   1      33.435  17.732   4.543  0.00  0.00    -0.350 N 
HETATM   15  C   UNK N   1      33.049  17.360   5.777  0.00  0.00     0.063 A 
ATOM     16  HN  UNK N   1      34.283  18.234   4.278  1.00  0.00     0.166 HD
HETATM   17  C   UNK N   1      31.857  16.716   5.712  0.00  0.00     0.068 A 
HETATM   18  C   UNK N   1      33.718  17.551   6.983  0.00  0.00     0.068 A 
HETATM   19  C   UNK N   1      31.244  16.175   6.838  0.00  0.00     0.035 A 
HETATM   20  C   UNK N   1      31.898  16.322   8.071  0.00  0.00     0.039 A 
HETATM   21  C   UNK N   1      33.123  17.019   8.157  0.00  0.00     0.071 A 
BRANCH  21  22
HETATM   22  O   UNK N   1      33.692  17.177   9.372  0.00  0.00    -0.350 OA
BRANCH  22  23
HETATM   23  C   UNK N   1      35.015  16.875   9.602  0.00  0.00     0.189 C 
BRANCH  23  24
HETATM   24  C   UNK N   1      35.222  15.432  10.019  0.00  0.00     0.021 A 
HETATM   25  C   UNK N   1      35.696  14.475   8.942  0.00  0.00     0.022 C 
HETATM   26  C   UNK N   1      35.923  15.276  11.334  0.00  0.00     0.181 A 
HETATM   27  O   UNK N   1      34.751  14.839  11.975  0.00  0.00    -0.389 OA
HETATM   28  C   UNK N   1      34.033  14.919  10.769  0.00  0.00     0.181 A 
ENDBRANCH  23  24
ENDBRANCH  22  23
ENDBRANCH  21  22
ENDBRANCH   1  12
BRANCH   8  29
HETATM   29  N   UNK N   1      26.618  18.155   4.153  0.00  0.00    -0.379 N 
HETATM   30  C   UNK N   1      26.358  19.409   3.460  0.00  0.00     0.125 C 
HETATM   31  C   UNK N   1      26.332  20.596   4.431  0.00  0.00     0.044 C 
HETATM   32  C   UNK N   1      27.523  20.553   5.401  0.00  0.00     0.077 C 
HETATM   33  C   UNK N   1      27.745  19.179   6.048  0.00  0.00     0.044 C 
HETATM   34  C   UNK N   1      26.706  18.165   5.602  0.00  0.00     0.125 C 
BRANCH  32  35
HETATM   35  N   UNK N   1      27.333  21.545   6.442  0.00  0.00    -0.426 N 
HETATM   36  H   UNK N   1      28.079  21.760   7.104  0.00  0.00     0.150 HD
HETATM   37  H   UNK N   1      26.442  22.035   6.512  0.00  0.00     0.150 HD
ENDBRANCH  32  35
ENDBRANCH   8  29
TORSDOF 6
ENDMDL
MODEL 5
REMARK VINA RESULT:      -7.7      4.576      8.418
REMARK  6 active torsions:
REMARK  status: ('A' for Active; 'I' for Inactive)
REMARK    1  A    between atoms: C_2  and  C_6 
REMARK    2  A    between atoms: C_6  and  O_7 
REMARK    3  A    between atoms: O_7  and  C_8 
REMARK    4  A    between atoms: N_17  and  C_18 
REMARK    5  A    between atoms: C_25  and  N_29 
REMARK    6  A    between atoms: C_32  and  N_35 
ROOT
HETATM    1  C   UNK N   1      22.110  17.896   3.850  0.00  0.00     0.113 A 
HETATM    2  C   UNK N   1      21.606  19.132   3.423  0.00  0.00     0.050 A 
HETATM    3  C   UNK N   1      22.482  20.174   3.132  0.00  0.00     0.017 A 
HETATM    4  C   UNK N   1      23.855  19.971   3.240  0.00  0.00    -0.007 A 
HETATM    5  C   UNK N   1      24.741  20.977   2.863  0.00  0.00     0.014 A 
HETATM    6  C   UNK N   1      26.115  20.747   2.909  0.00  0.00     0.003 A 
HETATM    7  C   UNK N   1      26.608  19.515   3.350  0.00  0.00     0.032 A 
HETATM    8  C   UNK N   1      25.737  18.492   3.772  0.00  0.00     0.058 A 
HETATM    9  C   UNK N   1      24.339  18.724   3.698  0.00  0.00     0.070 A 
HETATM   10  N   UNK N   1      23.451  17.737   3.996  0.00  0.00    -0.340 N 
ATOM     11  HN  UNK N   1      23.806  16.846   4.344  1.00  0.00     0.167 HD
ENDROOT
BRANCH   1  12
HETATM   12  N   UNK N   1      21.239  16.768   4.032  0.00  0.00    -0.292 N 
HETATM   13  C   UNK N   1      20.152  16.454   3.279  0.00  0.00     0.191 A 
HETATM   14  N   UNK N   1      19.521  15.346   3.758  0.00  0.00    -0.350 N 
HETATM   15  C   UNK N   1      20.237  14.990   4.840  0.00  0.00     0.063 A 
ATOM     16  HN  UNK N   1      18.690  14.889   3.381  1.00  0.00     0.166 HD
HETATM   17  C   UNK N   1      21.273  15.849   5.009  0.00  0.00     0.068 A 
HETATM   18  C   UNK N   1      20.009  13.930   5.715  0.00  0.00     0.068 A 
HETATM   19  C   UNK N   1      22.151  15.749   6.085  0.00  0.00     0.035 A 
HETATM   20  C   UNK N   1      21.941  14.711   7.004  0.00  0.00     0.039 A 
HETATM   21  C   UNK N   1      20.886  13.790   6.821  0.00  0.00     0.071 A 
BRANCH  21  22
HETATM   22  O   UNK N   1      20.752  12.778   7.706  0.00  0.00    -0.350 OA
BRANCH  22  23
HETATM   23  C   UNK N   1      21.842  12.127   8.239  0.00  0.00     0.189 C 
BRANCH  23  24
HETATM   24  C   UNK N   1      22.025  12.409   9.718  0.00  0.00     0.021 A 
HETATM   25  C   UNK N   1      20.813  12.928  10.467  0.00  0.00     0.022 C 
HETATM   26  C   UNK N   1      22.792  11.346  10.446  0.00  0.00     0.181 A 
HETATM   27  O   UNK N   1      23.918  12.174  10.593  0.00  0.00    -0.389 OA
HETATM   28  C   UNK N   1      23.251  13.235   9.954  0.00  0.00     0.181 A 
ENDBRANCH  23  24
ENDBRANCH  22  23
ENDBRANCH  21  22
ENDBRANCH   1  12
BRANCH   8  29
HETATM   29  N   UNK N   1      26.281  17.248   4.238  0.00  0.00    -0.379 N 
HETATM   30  C   UNK N   1      26.569  17.059   5.652  0.00  0.00     0.125 C 
HETATM   31  C   UNK N   1      27.214  15.693   5.920  0.00  0.00     0.044 C 
HETATM   32  C   UNK N   1      28.343  15.401   4.918  0.00  0.00     0.077 C 
HETATM   33  C   UNK N   1      27.960  15.672   3.457  0.00  0.00     0.044 C 
HETATM   34  C   UNK N   1      26.522  16.146   3.324  0.00  0.00     0.125 C 
BRANCH  32  35
HETATM   35  N   UNK N   1      28.760  14.018   5.053  0.00  0.00    -0.426 N 
HETATM   36  H   UNK N   1      29.459  13.746   5.744  0.00  0.00     0.150 HD
HETATM   37  H   UNK N   1      28.349  13.308   4.448  0.00  0.00     0.150 HD
ENDBRANCH  32  35
ENDBRANCH   8  29
TORSDOF 6
ENDMDL
MODEL 6
REMARK VINA RESULT:      -7.6      8.862     14.928
REMARK  6 active torsions:
REMARK  status: ('A' for Active; 'I' for Inactive)
REMARK    1  A    between atoms: C_2  and  C_6 
REMARK    2  A    between atoms: C_6  and  O_7 
REMARK    3  A    between atoms: O_7  and  C_8 
REMARK    4  A    between atoms: N_17  and  C_18 
REMARK    5  A    between atoms: C_25  and  N_29 
REMARK    6  A    between atoms: C_32  and  N_35 
ROOT
HETATM    1  C   UNK N   1      36.220  12.295  15.004  0.00  0.00     0.113 A 
HETATM    2  C   UNK N   1      35.740  13.405  15.712  0.00  0.00     0.050 A 
HETATM    3  C   UNK N   1      35.374  13.271  17.048  0.00  0.00     0.017 A 
HETATM    4  C   UNK N   1      35.517  12.038  17.680  0.00  0.00    -0.007 A 
HETATM    5  C   UNK N   1      35.240  11.916  19.039  0.00  0.00     0.014 A 
HETATM    6  C   UNK N   1      35.447  10.697  19.684  0.00  0.00     0.003 A 
HETATM    7  C   UNK N   1      35.913   9.592  18.967  0.00  0.00     0.032 A 
HETATM    8  C   UNK N   1      36.166   9.676  17.584  0.00  0.00     0.058 A 
HETATM    9  C   UNK N   1      35.978  10.926  16.939  0.00  0.00     0.070 A 
HETATM   10  N   UNK N   1      36.302  11.091  15.628  0.00  0.00    -0.340 N 
ATOM     11  HN  UNK N   1      36.617  10.281  15.094  1.00  0.00     0.167 HD
ENDROOT
BRANCH   1  12
HETATM   12  N   UNK N   1      36.725  12.435  13.666  0.00  0.00    -0.292 N 
HETATM   13  C   UNK N   1      37.777  11.769  13.123  0.00  0.00     0.191 A 
HETATM   14  N   UNK N   1      38.019  12.180  11.847  0.00  0.00    -0.350 N 
HETATM   15  C   UNK N   1      37.098  13.133  11.618  0.00  0.00     0.063 A 
ATOM     16  HN  UNK N   1      38.739  11.841  11.208  1.00  0.00     0.166 HD
HETATM   17  C   UNK N   1      36.317  13.291  12.717  0.00  0.00     0.068 A 
HETATM   18  C   UNK N   1      36.916  13.898  10.469  0.00  0.00     0.068 A 
HETATM   19  C   UNK N   1      35.310  14.250  12.778  0.00  0.00     0.035 A 
HETATM   20  C   UNK N   1      35.111  15.061  11.651  0.00  0.00     0.039 A 
HETATM   21  C   UNK N   1      35.895  14.883  10.490  0.00  0.00     0.071 A 
BRANCH  21  22
HETATM   22  O   UNK N   1      35.635  15.655   9.411  0.00  0.00    -0.350 OA
BRANCH  22  23
HETATM   23  C   UNK N   1      34.903  16.817   9.506  0.00  0.00     0.189 C 
BRANCH  23  24
HETATM   24  C   UNK N   1      33.850  16.935   8.422  0.00  0.00     0.021 A 
HETATM   25  C   UNK N   1      32.541  16.208   8.664  0.00  0.00     0.022 C 
HETATM   26  C   UNK N   1      33.693  18.323   7.879  0.00  0.00     0.181 A 
HETATM   27  O   UNK N   1      34.291  17.977   6.655  0.00  0.00    -0.389 OA
HETATM   28  C   UNK N   1      34.436  16.643   7.076  0.00  0.00     0.181 A 
ENDBRANCH  23  24
ENDBRANCH  22  23
ENDBRANCH  21  22
ENDBRANCH   1  12
BRANCH   8  29
HETATM   29  N   UNK N   1      36.624   8.513  16.877  0.00  0.00    -0.379 N 
HETATM   30  C   UNK N   1      38.038   8.166  16.879  0.00  0.00     0.125 C 
HETATM   31  C   UNK N   1      38.319   6.938  16.002  0.00  0.00     0.044 C 
HETATM   32  C   UNK N   1      37.615   7.050  14.641  0.00  0.00     0.077 C 
HETATM   33  C   UNK N   1      36.141   7.465  14.737  0.00  0.00     0.044 C 
HETATM   34  C   UNK N   1      35.694   7.646  16.178  0.00  0.00     0.125 C 
BRANCH  32  35
HETATM   35  N   UNK N   1      37.709   5.781  13.945  0.00  0.00    -0.426 N 
HETATM   36  H   UNK N   1      38.217   5.701  13.064  0.00  0.00     0.150 HD
HETATM   37  H   UNK N   1      37.260   4.956  14.342  0.00  0.00     0.150 HD
ENDBRANCH  32  35
ENDBRANCH   8  29
TORSDOF 6
ENDMDL
MODEL 7
REMARK VINA RESULT:      -7.6      9.277     15.030
REMARK  6 active torsions:
REMARK  status: ('A' for Active; 'I' for Inactive)
REMARK    1  A    between atoms: C_2  and  C_6 
REMARK    2  A    between atoms: C_6  and  O_7 
REMARK    3  A    between atoms: O_7  and  C_8 
REMARK    4  A    between atoms: N_17  and  C_18 
REMARK    5  A    between atoms: C_25  and  N_29 
REMARK    6  A    between atoms: C_32  and  N_35 
ROOT
HETATM    1  C   UNK N   1      35.816  12.819  16.581  0.00  0.00     0.113 A 
HETATM    2  C   UNK N   1      35.332  13.424  17.749  0.00  0.00     0.050 A 
HETATM    3  C   UNK N   1      35.111  12.655  18.888  0.00  0.00     0.017 A 
HETATM    4  C   UNK N   1      35.401  11.294  18.866  0.00  0.00    -0.007 A 
HETATM    5  C   UNK N   1      35.270  10.534  20.026  0.00  0.00     0.014 A 
HETATM    6  C   UNK N   1      35.624   9.186  20.018  0.00  0.00     0.003 A 
HETATM    7  C   UNK N   1      36.093   8.588  18.845  0.00  0.00     0.032 A 
HETATM    8  C   UNK N   1      36.200   9.322  17.648  0.00  0.00     0.058 A 
HETATM    9  C   UNK N   1      35.863  10.700  17.669  0.00  0.00     0.070 A 
HETATM   10  N   UNK N   1      36.043  11.480  16.569  0.00  0.00    -0.340 N 
ATOM     11  HN  UNK N   1      36.359  11.043  15.703  1.00  0.00     0.167 HD
ENDROOT
BRANCH   1  12
HETATM   12  N   UNK N   1      36.174  13.609  15.436  0.00  0.00    -0.292 N 
HETATM   13  C   UNK N   1      36.911  14.750  15.436  0.00  0.00     0.191 A 
HETATM   14  N   UNK N   1      37.018  15.273  14.183  0.00  0.00    -0.350 N 
HETATM   15  C   UNK N   1      36.313  14.432  13.405  0.00  0.00     0.063 A 
ATOM     16  HN  UNK N   1      37.520  16.114  13.898  1.00  0.00     0.166 HD
HETATM   17  C   UNK N   1      35.799  13.428  14.160  0.00  0.00     0.068 A 
HETATM   18  C   UNK N   1      36.081  14.514  12.035  0.00  0.00     0.068 A 
HETATM   19  C   UNK N   1      34.980  12.440  13.621  0.00  0.00     0.035 A 
HETATM   20  C   UNK N   1      34.700  12.501  12.248  0.00  0.00     0.039 A 
HETATM   21  C   UNK N   1      35.256  13.522  11.445  0.00  0.00     0.071 A 
BRANCH  21  22
HETATM   22  O   UNK N   1      34.997  13.513  10.119  0.00  0.00    -0.350 OA
BRANCH  22  23
HETATM   23  C   UNK N   1      35.397  14.538   9.292  0.00  0.00     0.189 C 
BRANCH  23  24
HETATM   24  C   UNK N   1      34.262  15.479   8.936  0.00  0.00     0.021 A 
HETATM   25  C   UNK N   1      32.855  14.929   9.072  0.00  0.00     0.022 C 
HETATM   26  C   UNK N   1      34.437  16.868   9.472  0.00  0.00     0.181 A 
HETATM   27  O   UNK N   1      34.695  17.394   8.195  0.00  0.00    -0.389 OA
HETATM   28  C   UNK N   1      34.506  16.129   7.610  0.00  0.00     0.181 A 
ENDBRANCH  23  24
ENDBRANCH  22  23
ENDBRANCH  21  22
ENDBRANCH   1  12
BRANCH   8  29
HETATM   29  N   UNK N   1      36.666   8.668  16.457  0.00  0.00    -0.379 N 
HETATM   30  C   UNK N   1      38.094   8.526  16.212  0.00  0.00     0.125 C 
HETATM   31  C   UNK N   1      38.371   7.871  14.853  0.00  0.00     0.044 C 
HETATM   32  C   UNK N   1      37.517   8.504  13.742  0.00  0.00     0.077 C 
HETATM   33  C   UNK N   1      36.035   8.654  14.110  0.00  0.00     0.044 C 
HETATM   34  C   UNK N   1      35.734   8.109  15.496  0.00  0.00     0.125 C 
BRANCH  32  35
HETATM   35  N   UNK N   1      37.630   7.708  12.535  0.00  0.00    -0.426 N 
HETATM   36  H   UNK N   1      36.852   7.633  11.880  0.00  0.00     0.150 HD
HETATM   37  H   UNK N   1      38.501   7.215  12.338  0.00  0.00     0.150 HD
ENDBRANCH  32  35
ENDBRANCH   8  29
TORSDOF 6
ENDMDL
MODEL 8
REMARK VINA RESULT:      -7.3      4.143      9.962
REMARK  6 active torsions:
REMARK  status: ('A' for Active; 'I' for Inactive)
REMARK    1  A    between atoms: C_2  and  C_6 
REMARK    2  A    between atoms: C_6  and  O_7 
REMARK    3  A    between atoms: O_7  and  C_8 
REMARK    4  A    between atoms: N_17  and  C_18 
REMARK    5  A    between atoms: C_25  and  N_29 
REMARK    6  A    between atoms: C_32  and  N_35 
ROOT
HETATM    1  C   UNK N   1      28.173  17.644   6.190  0.00  0.00     0.113 A 
HETATM    2  C   UNK N   1      28.068  18.365   7.387  0.00  0.00     0.050 A 
HETATM    3  C   UNK N   1      29.164  18.457   8.240  0.00  0.00     0.017 A 
HETATM    4  C   UNK N   1      30.368  17.855   7.881  0.00  0.00    -0.007 A 
HETATM    5  C   UNK N   1      31.495  18.019   8.682  0.00  0.00     0.014 A 
HETATM    6  C   UNK N   1      32.714  17.471   8.287  0.00  0.00     0.003 A 
HETATM    7  C   UNK N   1      32.806  16.742   7.099  0.00  0.00     0.032 A 
HETATM    8  C   UNK N   1      31.675  16.528   6.288  0.00  0.00     0.058 A 
HETATM    9  C   UNK N   1      30.442  17.111   6.682  0.00  0.00     0.070 A 
HETATM   10  N   UNK N   1      29.342  17.022   5.887  0.00  0.00    -0.340 N 
ATOM     11  HN  UNK N   1      29.397  16.468   5.032  1.00  0.00     0.167 HD
ENDROOT
BRANCH   1  12
HETATM   12  N   UNK N   1      27.100  17.641   5.234  0.00  0.00    -0.292 N 
HETATM   13  C   UNK N   1      26.970  18.462   4.160  0.00  0.00     0.191 A 
HETATM   14  N   UNK N   1      25.807  18.225   3.492  0.00  0.00    -0.350 N 
HETATM   15  C   UNK N   1      25.209  17.243   4.191  0.00  0.00     0.063 A 
ATOM     16  HN  UNK N   1      25.465  18.688   2.650  1.00  0.00     0.166 HD
HETATM   17  C   UNK N   1      25.987  16.891   5.247  0.00  0.00     0.068 A 
HETATM   18  C   UNK N   1      23.979  16.638   3.950  0.00  0.00     0.068 A 
HETATM   19  C   UNK N   1      25.589  15.932   6.173  0.00  0.00     0.035 A 
HETATM   20  C   UNK N   1      24.343  15.316   5.982  0.00  0.00     0.039 A 
HETATM   21  C   UNK N   1      23.540  15.650   4.869  0.00  0.00     0.071 A 
BRANCH  21  22
HETATM   22  O   UNK N   1      22.369  14.997   4.699  0.00  0.00    -0.350 OA
BRANCH  22  23
HETATM   23  C   UNK N   1      21.223  15.369   5.367  0.00  0.00     0.189 C 
BRANCH  23  24
HETATM   24  C   UNK N   1      20.020  15.471   4.450  0.00  0.00     0.021 A 
HETATM   25  C   UNK N   1      20.157  16.384   3.246  0.00  0.00     0.022 C 
HETATM   26  C   UNK N   1      19.371  14.153   4.154  0.00  0.00     0.181 A 
HETATM   27  O   UNK N   1      18.249  14.459   4.944  0.00  0.00    -0.389 OA
HETATM   28  C   UNK N   1      18.773  15.731   5.236  0.00  0.00     0.181 A 
ENDBRANCH  23  24
ENDBRANCH  22  23
ENDBRANCH  21  22
ENDBRANCH   1  12
BRANCH   8  29
HETATM   29  N   UNK N   1      31.803  15.756   5.084  0.00  0.00    -0.379 N 
HETATM   30  C   UNK N   1      31.500  14.332   5.093  0.00  0.00     0.125 C 
HETATM   31  C   UNK N   1      31.777  13.687   3.728  0.00  0.00     0.044 C 
HETATM   32  C   UNK N   1      33.142  14.121   3.171  0.00  0.00     0.077 C 
HETATM   33  C   UNK N   1      33.390  15.633   3.246  0.00  0.00     0.044 C 
HETATM   34  C   UNK N   1      32.202  16.376   3.834  0.00  0.00     0.125 C 
BRANCH  32  35
HETATM   35  N   UNK N   1      33.260  13.685   1.792  0.00  0.00    -0.426 N 
HETATM   36  H   UNK N   1      32.500  13.835   1.128  0.00  0.00     0.150 HD
HETATM   37  H   UNK N   1      34.114  13.223   1.483  0.00  0.00     0.150 HD
ENDBRANCH  32  35
ENDBRANCH   8  29
TORSDOF 6
ENDMDL
MODEL 9
REMARK VINA RESULT:      -7.2      7.565      9.976
REMARK  6 active torsions:
REMARK  status: ('A' for Active; 'I' for Inactive)
REMARK    1  A    between atoms: C_2  and  C_6 
REMARK    2  A    between atoms: C_6  and  O_7 
REMARK    3  A    between atoms: O_7  and  C_8 
REMARK    4  A    between atoms: N_17  and  C_18 
REMARK    5  A    between atoms: C_25  and  N_29 
REMARK    6  A    between atoms: C_32  and  N_35 
ROOT
HETATM    1  C   UNK N   1      35.043  15.458   7.090  0.00  0.00     0.113 A 
HETATM    2  C   UNK N   1      34.586  16.733   7.448  0.00  0.00     0.050 A 
HETATM    3  C   UNK N   1      33.845  17.485   6.541  0.00  0.00     0.017 A 
HETATM    4  C   UNK N   1      33.537  16.949   5.293  0.00  0.00    -0.007 A 
HETATM    5  C   UNK N   1      32.720  17.655   4.414  0.00  0.00     0.014 A 
HETATM    6  C   UNK N   1      32.359  17.088   3.193  0.00  0.00     0.003 A 
HETATM    7  C   UNK N   1      32.831  15.821   2.838  0.00  0.00     0.032 A 
HETATM    8  C   UNK N   1      33.689  15.100   3.691  0.00  0.00     0.058 A 
HETATM    9  C   UNK N   1      34.031  15.671   4.944  0.00  0.00     0.070 A 
HETATM   10  N   UNK N   1      34.773  14.977   5.848  0.00  0.00    -0.340 N 
ATOM     11  HN  UNK N   1      35.142  14.064   5.584  1.00  0.00     0.167 HD
ENDROOT
BRANCH   1  12
HETATM   12  N   UNK N   1      35.697  14.612   8.050  0.00  0.00    -0.292 N 
HETATM   13  C   UNK N   1      36.672  13.701   7.796  0.00  0.00     0.191 A 
HETATM   14  N   UNK N   1      37.034  13.033   8.926  0.00  0.00    -0.350 N 
HETATM   15  C   UNK N   1      36.244  13.542   9.888  0.00  0.00     0.063 A 
ATOM     16  HN  UNK N   1      37.745  12.307   9.022  1.00  0.00     0.166 HD
HETATM   17  C   UNK N   1      35.432  14.494   9.360  0.00  0.00     0.068 A 
HETATM   18  C   UNK N   1      36.189  13.193  11.234  0.00  0.00     0.068 A 
HETATM   19  C   UNK N   1      34.472  15.154  10.121  0.00  0.00     0.035 A 
HETATM   20  C   UNK N   1      34.366  14.813  11.478  0.00  0.00     0.039 A 
HETATM   21  C   UNK N   1      35.227  13.848  12.046  0.00  0.00     0.071 A 
BRANCH  21  22
HETATM   22  O   UNK N   1      35.120  13.586  13.367  0.00  0.00    -0.350 OA
BRANCH  22  23
HETATM   23  C   UNK N   1      35.748  12.508  13.950  0.00  0.00     0.189 C 
BRANCH  23  24
HETATM   24  C   UNK N   1      34.937  11.897  15.076  0.00  0.00     0.021 A 
HETATM   25  C   UNK N   1      33.789  10.992  14.672  0.00  0.00     0.022 C 
HETATM   26  C   UNK N   1      35.770  11.371  16.205  0.00  0.00     0.181 A 
HETATM   27  O   UNK N   1      35.370  12.409  17.064  0.00  0.00    -0.389 OA
HETATM   28  C   UNK N   1      34.532  12.942  16.068  0.00  0.00     0.181 A 
ENDBRANCH  23  24
ENDBRANCH  22  23
ENDBRANCH  21  22
ENDBRANCH   1  12
BRANCH   8  29
HETATM   29  N   UNK N   1      34.169  13.810   3.283  0.00  0.00    -0.379 N 
HETATM   30  C   UNK N   1      33.406  12.611   3.600  0.00  0.00     0.125 C 
HETATM   31  C   UNK N   1      34.134  11.341   3.143  0.00  0.00     0.044 C 
HETATM   32  C   UNK N   1      35.616  11.368   3.550  0.00  0.00     0.077 C 
HETATM   33  C   UNK N   1      36.325  12.688   3.217  0.00  0.00     0.044 C 
HETATM   34  C   UNK N   1      35.399  13.673   2.524  0.00  0.00     0.125 C 
BRANCH  32  35
HETATM   35  N   UNK N   1      36.314  10.275   2.901  0.00  0.00    -0.426 N 
HETATM   36  H   UNK N   1      36.953  10.447   2.125  0.00  0.00     0.150 HD
HETATM   37  H   UNK N   1      36.164   9.320   3.225  0.00  0.00     0.150 HD
ENDBRANCH  32  35
ENDBRANCH   8  29
TORSDOF 6
ENDMDL
