REMARK  14 active torsions:
REMARK  status: ('A' for Active; 'I' for Inactive)
REMARK    1  A    between atoms: C_2  and  C_4 
REMARK    2  A    between atoms: C_4  and  C_5 
REMARK    3  A    between atoms: C_4  and  N_67 
REMARK       I    between atoms: C_5  and  N_7 
REMARK    4  A    between atoms: C_11  and  C_12 
REMARK    5  A    between atoms: C_14  and  C_18 
REMARK    6  A    between atoms: C_27  and  C_58 
REMARK    7  A    between atoms: C_33  and  C_35 
REMARK    8  A    between atoms: C_41  and  C_39 
REMARK       I    between atoms: N_45  and  C_46 
REMARK    9  A    between atoms: C_46  and  C_48 
REMARK   10  A    between atoms: C_48  and  C_49 
REMARK   11  A    between atoms: C_48  and  N_52 
REMARK       I    between atoms: N_52  and  C_53 
REMARK   12  A    between atoms: C_53  and  O_55 
REMARK   13  A    between atoms: C_62  and  C_64 
REMARK       I    between atoms: N_67  and  C_68 
REMARK   14  A    between atoms: C_68  and  O_70 
ROOT
HETATM    1  C   UNK N   1       6.538   0.704  -0.699  0.00  0.00    -0.007 C 
HETATM    2  C   UNK N   1       6.266   1.924  -0.050  0.00  0.00     0.016 C 
HETATM    3  C   UNK N   1       4.950   2.236   0.280  0.00  0.00     0.031 C 
HETATM    4  C   UNK N   1       3.971   1.271   0.036  0.00  0.00     0.048 A 
HETATM    5  C   UNK N   1       4.252   0.131  -0.641  0.00  0.00    -0.006 A 
HETATM    6  C   UNK N   1       5.493  -0.157  -1.071  0.00  0.00     0.027 C 
HETATM    7  C   UNK N   1       3.148  -0.669  -0.649  0.00  0.00     0.044 A 
HETATM    8  C   UNK N   1       2.209   0.068   0.042  0.00  0.00     0.054 A 
HETATM    9  N   UNK N   1       2.703   1.260   0.416  0.00  0.00    -0.313 N 
HETATM   10  C   UNK N   1       1.934   2.286   1.126  0.00  0.00     0.278 C 
HETATM   11  O   UNK N   1       0.579   1.955   1.187  0.00  0.00    -0.320 OA
HETATM   12  C   UNK N   1       0.081   0.698   0.922  0.00  0.00     0.088 A 
HETATM   13  C   UNK N   1       0.881  -0.308   0.369  0.00  0.00     0.063 A 
HETATM   14  C   UNK N   1       0.377  -1.605   0.132  0.00  0.00     0.132 A 
HETATM   15  C   UNK N   1      -0.971  -1.862   0.341  0.00  0.00     0.057 A 
HETATM   16  C   UNK N   1      -1.786  -0.843   0.827  0.00  0.00    -0.002 A 
HETATM   17  C   UNK N   1      -1.244   0.419   1.145  0.00  0.00     0.051 A 
HETATM   18  F   UNK N   1       1.168  -2.591  -0.362  0.00  0.00    -0.205 F 
ENDROOT
BRANCH   1  19
HETATM   19  C   UNK N   1       7.684  -0.056  -0.281  0.00  0.00     0.059 A 
HETATM   20  N   UNK N   1       7.704  -1.351  -0.579  0.00  0.00    -0.342 N 
HETATM   21  C   UNK N   1       8.304  -1.940   0.442  0.00  0.00     0.105 A 
HETATM   22  H   UNK N   1       7.347  -1.781  -1.390  0.00  0.00     0.167 HD
HETATM   23  N   UNK N   1       8.734  -1.067   1.375  0.00  0.00    -0.352 N 
HETATM   24  C   UNK N   1       8.315   0.139   0.937  0.00  0.00     0.119 A 
ATOM     25  HN  UNK N   1       9.260  -1.273   2.225  1.00  0.00     0.166 HD
BRANCH  21  26
HETATM   26  C   UNK N   1       8.514  -3.404   0.424  0.00  0.00     0.155 C 
HETATM   27  C   UNK N   1       7.163  -4.109   0.345  0.00  0.00     0.035 C 
HETATM   28  C   UNK N   1       7.138  -4.874  -0.979  0.00  0.00     0.022 C 
HETATM   29  C   UNK N   1       8.378  -4.458  -1.758  0.00  0.00     0.127 C 
HETATM   30  N   UNK N   1       9.143  -3.661  -0.843  0.00  0.00    -0.339 N 
HETATM   31  C   UNK N   1      10.346  -3.094  -1.158  0.00  0.00     0.243 C 
HETATM   32  O   UNK N   1      10.835  -3.243  -2.267  0.00  0.00    -0.271 OA
BRANCH  31  33
HETATM   33  C   UNK N   1      11.112  -2.363  -0.074  0.00  0.00     0.182 C 
BRANCH  33  34
HETATM   34  C   UNK N   1      11.831  -1.025  -0.192  0.00  0.00     0.009 C 
HETATM   35  C   UNK N   1      13.198  -1.211  -0.805  0.00  0.00     0.012 C 
HETATM   36  C   UNK N   1      11.027  -0.023  -1.001  0.00  0.00     0.012 C 
ENDBRANCH  33  34
BRANCH  33  37
HETATM   37  N   UNK N   1      11.461  -3.236   1.021  0.00  0.00    -0.323 N 
HETATM   38  C   UNK N   1      12.085  -4.413   0.778  0.00  0.00     0.360 C 
HETATM   39  O   UNK N   1      12.572  -4.636  -0.322  0.00  0.00    -0.239 OA
HETATM   40  H   UNK N   1      11.245  -2.975   1.945  0.00  0.00     0.165 HD
BRANCH  38  41
HETATM   41  O   UNK N   1      12.047  -5.385   1.715  0.00  0.00    -0.309 OA
HETATM   42  C   UNK N   1      12.326  -6.694   1.392  0.00  0.00     0.215 C 
ENDBRANCH  38  41
ENDBRANCH  33  37
ENDBRANCH  31  33
ENDBRANCH  21  26
ENDBRANCH   1  19
BRANCH  10  43
HETATM   43  C   UNK N   1       2.277   3.615   0.505  0.00  0.00     0.049 A 
HETATM   44  C   UNK N   1       2.338   3.859  -0.882  0.00  0.00     0.107 A 
HETATM   45  N   UNK N   1       3.257   4.825  -1.254  0.00  0.00    -0.362 N 
HETATM   46  C   UNK N   1       3.956   5.319  -0.197  0.00  0.00     0.055 A 
ATOM     47  HN  UNK N   1       3.394   5.133  -2.216  1.00  0.00     0.165 HD
HETATM   48  S   UNK N   1       3.394   4.622   1.198  0.00  0.00    -0.075 SA
BRANCH  46  49
HETATM   49  C   UNK N   1       5.177   6.184  -0.355  0.00  0.00     0.043 A 
HETATM   50  C   UNK N   1       5.942   6.355   0.951  0.00  0.00     0.012 A 
HETATM   51  C   UNK N   1       6.420   5.349  -0.069  0.00  0.00     0.012 A 
ENDBRANCH  46  49
ENDBRANCH  10  43
BRANCH  16  52
HETATM   52  C   UNK N   1      -3.198  -0.839   0.520  0.00  0.00     0.059 A 
HETATM   53  C   UNK N   1      -3.889  -1.735  -0.279  0.00  0.00     0.119 A 
HETATM   54  N   UNK N   1      -4.925  -1.062  -0.836  0.00  0.00    -0.352 N 
HETATM   55  C   UNK N   1      -4.803   0.202  -0.373  0.00  0.00     0.105 A 
ATOM     56  HN  UNK N   1      -5.639  -1.429  -1.465  1.00  0.00     0.166 HD
HETATM   57  N   UNK N   1      -3.794   0.340   0.470  0.00  0.00    -0.342 N 
HETATM   58  H   UNK N   1      -3.538   1.155   0.960  0.00  0.00     0.167 HD
BRANCH  55  59
HETATM   59  C   UNK N   1      -5.482   1.419  -0.909  0.00  0.00     0.155 C 
HETATM   60  C   UNK N   1      -6.923   1.431  -0.455  0.00  0.00     0.035 C 
HETATM   61  C   UNK N   1      -6.941   2.280   0.809  0.00  0.00     0.022 C 
HETATM   62  C   UNK N   1      -5.706   3.162   0.743  0.00  0.00     0.127 C 
HETATM   63  N   UNK N   1      -4.886   2.590  -0.280  0.00  0.00    -0.339 N 
HETATM   64  C   UNK N   1      -3.624   3.068  -0.589  0.00  0.00     0.243 C 
HETATM   65  O   UNK N   1      -2.970   2.519  -1.465  0.00  0.00    -0.271 OA
BRANCH  64  66
HETATM   66  C   UNK N   1      -3.003   4.277   0.145  0.00  0.00     0.182 C 
BRANCH  66  67
HETATM   67  C   UNK N   1      -3.881   5.539   0.143  0.00  0.00     0.009 C 
HETATM   68  C   UNK N   1      -4.772   5.715  -1.075  0.00  0.00     0.012 C 
HETATM   69  C   UNK N   1      -4.601   5.762   1.458  0.00  0.00     0.012 C 
ENDBRANCH  66  67
BRANCH  66  70
HETATM   70  N   UNK N   1      -1.697   4.637  -0.400  0.00  0.00    -0.323 N 
HETATM   71  C   UNK N   1      -0.925   5.622   0.149  0.00  0.00     0.360 C 
HETATM   72  O   UNK N   1      -1.283   6.192   1.171  0.00  0.00    -0.239 OA
HETATM   73  H   UNK N   1      -1.362   4.154  -1.189  0.00  0.00     0.165 HD
BRANCH  71  74
HETATM   74  O   UNK N   1       0.220   5.999  -0.472  0.00  0.00    -0.309 OA
HETATM   75  C   UNK N   1       0.978   7.061  -0.028  0.00  0.00     0.215 C 
ENDBRANCH  71  74
ENDBRANCH  66  70
ENDBRANCH  64  66
ENDBRANCH  55  59
ENDBRANCH  16  52
TORSDOF 14
