MODEL 1
REMARK VINA RESULT:      -7.0      0.000      0.000
REMARK  12 active torsions:
REMARK  status: ('A' for Active; 'I' for Inactive)
REMARK    1  A    between atoms: C_2  and  C_3 
REMARK    2  A    between atoms: C_2  and  O_36 
REMARK    3  A    between atoms: C_3  and  C_4 
REMARK    4  A    between atoms: C_3  and  N_35 
REMARK       I    between atoms: C_4  and  N_6 
REMARK    5  A    between atoms: C_10  and  C_11 
REMARK       I    between atoms: C_11  and  N_13 
REMARK    6  A    between atoms: C_17  and  C_18 
REMARK    7  A    between atoms: C_17  and  C_25 
REMARK    8  A    between atoms: C_18  and  C_19 
REMARK       I    between atoms: C_25  and  N_27 
REMARK    9  A    between atoms: C_28  and  N_27 
REMARK   10  A    between atoms: C_28  and  C_29 
REMARK   11  A    between atoms: C_28  and  C_32 
REMARK   12  A    between atoms: C_29  and  O_31 
REMARK       I    between atoms: C_32  and  N_34 
ROOT
HETATM    1  C   UNK N   1      30.332  16.931   6.857  0.00  0.00     0.243 C 
HETATM    2  O   UNK N   1      29.654  17.775   7.418  0.00  0.00    -0.271 OA
HETATM    3  N   UNK N   1      29.726  15.921   6.165  0.00  0.00    -0.332 N 
HETATM    4  C   UNK N   1      30.503  14.767   5.781  0.00  0.00     0.127 C 
HETATM    5  C   UNK N   1      30.164  14.496   4.341  0.00  0.00     0.023 C 
HETATM    6  C   UNK N   1      29.416  15.742   3.920  0.00  0.00     0.043 C 
HETATM    7  C   UNK N   1      28.686  16.222   5.181  0.00  0.00     0.120 C 
ENDROOT
BRANCH   7   8
HETATM    8  C   UNK N   1      27.414  15.359   5.379  0.00  0.00     0.080 C 
BRANCH   8   9
HETATM    9  C   UNK N   1      26.767  14.968   4.068  0.00  0.00    -0.055 A 
HETATM   10  C   UNK N   1      26.152  15.940   3.262  0.00  0.00     0.007 A 
HETATM   11  C   UNK N   1      25.512  15.583   2.076  0.00  0.00     0.001 A 
HETATM   12  C   UNK N   1      25.494  14.246   1.674  0.00  0.00     0.000 A 
HETATM   13  C   UNK N   1      26.121  13.272   2.459  0.00  0.00     0.001 A 
HETATM   14  C   UNK N   1      26.754  13.631   3.656  0.00  0.00     0.007 A 
ENDBRANCH   8   9
ENDBRANCH   7   8
BRANCH   7  15
HETATM   15  C   UNK N   1      28.291  17.699   4.994  0.00  0.00     0.247 C 
HETATM   16  O   UNK N   1      28.785  18.340   4.078  0.00  0.00    -0.271 OA
HETATM   17  N   UNK N   1      27.296  18.247   5.753  0.00  0.00    -0.343 N 
HETATM   18  H   UNK N   1      26.986  17.733   6.534  0.00  0.00     0.163 HD
BRANCH  17  19
HETATM   19  C   UNK N   1      26.654  19.539   5.499  0.00  0.00     0.204 C 
BRANCH  19  20
HETATM   20  C   UNK N   1      25.251  19.493   4.878  0.00  0.00     0.146 C 
HETATM   21  C   UNK N   1      25.308  19.574   3.368  0.00  0.00     0.042 C 
BRANCH  20  22
HETATM   22  O   UNK N   1      24.506  18.388   5.287  0.00  0.00    -0.393 OA
HETATM   23  H   UNK N   1      23.653  17.926   5.303  0.00  0.00     0.210 HD
ENDBRANCH  20  22
ENDBRANCH  19  20
BRANCH  19  24
HETATM   24  C   UNK N   1      26.748  20.474   6.677  0.00  0.00     0.240 C 
HETATM   25  O   UNK N   1      26.467  21.657   6.567  0.00  0.00    -0.271 OA
HETATM   26  N   UNK N   1      27.165  19.999   7.866  0.00  0.00    -0.368 N 
HETATM   27  H   UNK N   1      27.970  19.457   8.027  0.00  0.00     0.159 HD
HETATM   28  H   UNK N   1      26.610  20.215   8.650  0.00  0.00     0.159 HD
ENDBRANCH  19  24
ENDBRANCH  17  19
ENDBRANCH   7  15
BRANCH   1  29
HETATM   29  C   UNK N   1      31.852  17.130   6.711  0.00  0.00     0.179 C 
HETATM   30  C   UNK N   1      32.331  17.333   5.284  0.00  0.00     0.037 C 
HETATM   31  C   UNK N   1      33.752  16.800   5.270  0.00  0.00     0.022 C 
HETATM   32  C   UNK N   1      33.781  15.738   6.355  0.00  0.00     0.127 C 
HETATM   33  N   UNK N   1      32.694  16.081   7.234  0.00  0.00    -0.337 N 
HETATM   34  C   UNK N   1      32.536  15.497   8.464  0.00  0.00     0.245 C 
HETATM   35  O   UNK N   1      31.672  15.918   9.228  0.00  0.00    -0.271 OA
BRANCH  34  36
HETATM   36  C   UNK N   1      33.383  14.312   8.897  0.00  0.00     0.196 C 
BRANCH  36  37
HETATM   37  C   UNK N   1      34.200  14.613  10.167  0.00  0.00     0.145 C 
HETATM   38  C   UNK N   1      35.124  15.799   9.959  0.00  0.00     0.042 C 
BRANCH  37  39
HETATM   39  O   UNK N   1      33.374  14.868  11.264  0.00  0.00    -0.393 OA
HETATM   40  H   UNK N   1      32.456  15.025  11.535  0.00  0.00     0.210 HD
ENDBRANCH  37  39
ENDBRANCH  36  37
BRANCH  36  41
HETATM   41  N   UNK N   1      32.514  13.180   9.194  0.00  0.00    -0.416 N 
HETATM   42  H   UNK N   1      31.894  12.465   8.816  0.00  0.00     0.150 HD
HETATM   43  H   UNK N   1      32.536  13.049  10.204  0.00  0.00     0.150 HD
ENDBRANCH  36  41
ENDBRANCH  34  36
ENDBRANCH   1  29
TORSDOF 12
ENDMDL
MODEL 2
REMARK VINA RESULT:      -6.7      7.559     10.290
REMARK  12 active torsions:
REMARK  status: ('A' for Active; 'I' for Inactive)
REMARK    1  A    between atoms: C_2  and  C_3 
REMARK    2  A    between atoms: C_2  and  O_36 
REMARK    3  A    between atoms: C_3  and  C_4 
REMARK    4  A    between atoms: C_3  and  N_35 
REMARK       I    between atoms: C_4  and  N_6 
REMARK    5  A    between atoms: C_10  and  C_11 
REMARK       I    between atoms: C_11  and  N_13 
REMARK    6  A    between atoms: C_17  and  C_18 
REMARK    7  A    between atoms: C_17  and  C_25 
REMARK    8  A    between atoms: C_18  and  C_19 
REMARK       I    between atoms: C_25  and  N_27 
REMARK    9  A    between atoms: C_28  and  N_27 
REMARK   10  A    between atoms: C_28  and  C_29 
REMARK   11  A    between atoms: C_28  and  C_32 
REMARK   12  A    between atoms: C_29  and  O_31 
REMARK       I    between atoms: C_32  and  N_34 
ROOT
HETATM    1  C   UNK N   1      23.560  13.618   4.211  0.00  0.00     0.243 C 
HETATM    2  O   UNK N   1      23.228  14.787   4.112  0.00  0.00    -0.271 OA
HETATM    3  N   UNK N   1      23.767  13.073   5.447  0.00  0.00    -0.332 N 
HETATM    4  C   UNK N   1      24.458  11.810   5.551  0.00  0.00     0.127 C 
HETATM    5  C   UNK N   1      23.657  10.973   6.510  0.00  0.00     0.023 C 
HETATM    6  C   UNK N   1      22.366  11.750   6.653  0.00  0.00     0.043 C 
HETATM    7  C   UNK N   1      22.761  13.225   6.498  0.00  0.00     0.120 C 
ENDROOT
BRANCH   7   8
HETATM    8  C   UNK N   1      23.368  13.722   7.834  0.00  0.00     0.080 C 
BRANCH   8   9
HETATM    9  C   UNK N   1      22.669  13.139   9.043  0.00  0.00    -0.055 A 
HETATM   10  C   UNK N   1      21.349  13.513   9.348  0.00  0.00     0.007 A 
HETATM   11  C   UNK N   1      20.712  13.017  10.485  0.00  0.00     0.001 A 
HETATM   12  C   UNK N   1      21.386  12.127  11.324  0.00  0.00     0.000 A 
HETATM   13  C   UNK N   1      22.693  11.733  11.019  0.00  0.00     0.001 A 
HETATM   14  C   UNK N   1      23.336  12.239   9.881  0.00  0.00     0.007 A 
ENDBRANCH   8   9
ENDBRANCH   7   8
BRANCH   7  15
HETATM   15  C   UNK N   1      21.500  14.043   6.160  0.00  0.00     0.247 C 
HETATM   16  O   UNK N   1      20.448  13.461   5.942  0.00  0.00    -0.271 OA
HETATM   17  N   UNK N   1      21.522  15.407   6.244  0.00  0.00    -0.343 N 
HETATM   18  H   UNK N   1      22.401  15.842   6.333  0.00  0.00     0.163 HD
BRANCH  17  19
HETATM   19  C   UNK N   1      20.342  16.274   6.208  0.00  0.00     0.204 C 
BRANCH  19  20
HETATM   20  C   UNK N   1      20.319  17.435   7.212  0.00  0.00     0.146 C 
HETATM   21  C   UNK N   1      20.377  16.937   8.640  0.00  0.00     0.042 C 
BRANCH  20  22
HETATM   22  O   UNK N   1      21.314  18.384   6.977  0.00  0.00    -0.393 OA
HETATM   23  H   UNK N   1      21.548  19.290   6.727  0.00  0.00     0.210 HD
ENDBRANCH  20  22
ENDBRANCH  19  20
BRANCH  19  24
HETATM   24  C   UNK N   1      19.975  16.696   4.809  0.00  0.00     0.240 C 
HETATM   25  O   UNK N   1      20.423  17.721   4.321  0.00  0.00    -0.271 OA
HETATM   26  N   UNK N   1      19.126  15.936   4.092  0.00  0.00    -0.368 N 
HETATM   27  H   UNK N   1      18.252  15.598   4.392  0.00  0.00     0.159 HD
HETATM   28  H   UNK N   1      19.406  15.696   3.179  0.00  0.00     0.159 HD
ENDBRANCH  19  24
ENDBRANCH  17  19
ENDBRANCH   7  15
BRANCH   1  29
HETATM   29  C   UNK N   1      23.508  12.690   2.984  0.00  0.00     0.179 C 
HETATM   30  C   UNK N   1      24.862  12.355   2.382  0.00  0.00     0.037 C 
HETATM   31  C   UNK N   1      24.583  12.101   0.913  0.00  0.00     0.022 C 
HETATM   32  C   UNK N   1      23.358  12.940   0.597  0.00  0.00     0.127 C 
HETATM   33  N   UNK N   1      22.712  13.140   1.867  0.00  0.00    -0.337 N 
HETATM   34  C   UNK N   1      21.445  13.654   1.970  0.00  0.00     0.245 C 
HETATM   35  O   UNK N   1      20.891  13.682   3.065  0.00  0.00    -0.271 OA
BRANCH  34  36
HETATM   36  C   UNK N   1      20.717  14.224   0.764  0.00  0.00     0.196 C 
BRANCH  36  37
HETATM   37  C   UNK N   1      19.286  13.669   0.632  0.00  0.00     0.145 C 
HETATM   38  C   UNK N   1      19.297  12.166   0.422  0.00  0.00     0.042 C 
BRANCH  37  39
HETATM   39  O   UNK N   1      18.512  13.966   1.755  0.00  0.00    -0.393 OA
HETATM   40  H   UNK N   1      18.360  14.623   2.452  0.00  0.00     0.210 HD
ENDBRANCH  37  39
ENDBRANCH  36  37
BRANCH  36  41
HETATM   41  N   UNK N   1      20.614  15.671   0.903  0.00  0.00    -0.416 N 
HETATM   42  H   UNK N   1      21.108  16.543   1.096  0.00  0.00     0.150 HD
HETATM   43  H   UNK N   1      19.638  15.915   0.737  0.00  0.00     0.150 HD
ENDBRANCH  36  41
ENDBRANCH  34  36
ENDBRANCH   1  29
TORSDOF 12
ENDMDL
MODEL 3
REMARK VINA RESULT:      -6.7      4.540      7.291
REMARK  12 active torsions:
REMARK  status: ('A' for Active; 'I' for Inactive)
REMARK    1  A    between atoms: C_2  and  C_3 
REMARK    2  A    between atoms: C_2  and  O_36 
REMARK    3  A    between atoms: C_3  and  C_4 
REMARK    4  A    between atoms: C_3  and  N_35 
REMARK       I    between atoms: C_4  and  N_6 
REMARK    5  A    between atoms: C_10  and  C_11 
REMARK       I    between atoms: C_11  and  N_13 
REMARK    6  A    between atoms: C_17  and  C_18 
REMARK    7  A    between atoms: C_17  and  C_25 
REMARK    8  A    between atoms: C_18  and  C_19 
REMARK       I    between atoms: C_25  and  N_27 
REMARK    9  A    between atoms: C_28  and  N_27 
REMARK   10  A    between atoms: C_28  and  C_29 
REMARK   11  A    between atoms: C_28  and  C_32 
REMARK   12  A    between atoms: C_29  and  O_31 
REMARK       I    between atoms: C_32  and  N_34 
ROOT
HETATM    1  C   UNK N   1      24.845  14.867   6.570  0.00  0.00     0.243 C 
HETATM    2  O   UNK N   1      25.877  15.506   6.686  0.00  0.00    -0.271 OA
HETATM    3  N   UNK N   1      23.671  15.513   6.305  0.00  0.00    -0.332 N 
HETATM    4  C   UNK N   1      22.424  14.809   6.485  0.00  0.00     0.127 C 
HETATM    5  C   UNK N   1      21.601  15.095   5.259  0.00  0.00     0.023 C 
HETATM    6  C   UNK N   1      22.600  15.724   4.312  0.00  0.00     0.043 C 
HETATM    7  C   UNK N   1      23.591  16.478   5.208  0.00  0.00     0.120 C 
ENDROOT
BRANCH   7   8
HETATM    8  C   UNK N   1      22.951  17.820   5.642  0.00  0.00     0.080 C 
BRANCH   8   9
HETATM    9  C   UNK N   1      22.353  18.582   4.479  0.00  0.00    -0.055 A 
HETATM   10  C   UNK N   1      23.157  19.425   3.695  0.00  0.00     0.007 A 
HETATM   11  C   UNK N   1      22.607  20.167   2.650  0.00  0.00     0.001 A 
HETATM   12  C   UNK N   1      21.244  20.061   2.368  0.00  0.00     0.000 A 
HETATM   13  C   UNK N   1      20.437  19.209   3.131  0.00  0.00     0.001 A 
HETATM   14  C   UNK N   1      20.989  18.472   4.186  0.00  0.00     0.007 A 
ENDBRANCH   8   9
ENDBRANCH   7   8
BRANCH   7  15
HETATM   15  C   UNK N   1      24.878  16.748   4.406  0.00  0.00     0.247 C 
HETATM   16  O   UNK N   1      25.012  16.248   3.298  0.00  0.00    -0.271 OA
HETATM   17  N   UNK N   1      25.798  17.649   4.864  0.00  0.00    -0.343 N 
HETATM   18  H   UNK N   1      25.703  17.962   5.793  0.00  0.00     0.163 HD
BRANCH  17  19
HETATM   19  C   UNK N   1      26.916  18.186   4.084  0.00  0.00     0.204 C 
BRANCH  19  20
HETATM   20  C   UNK N   1      27.124  19.705   4.147  0.00  0.00     0.146 C 
HETATM   21  C   UNK N   1      26.399  20.318   5.326  0.00  0.00     0.042 C 
BRANCH  20  22
HETATM   22  O   UNK N   1      28.468  20.076   4.146  0.00  0.00    -0.393 OA
HETATM   23  H   UNK N   1      29.159  20.677   4.462  0.00  0.00     0.210 HD
ENDBRANCH  20  22
ENDBRANCH  19  20
BRANCH  19  24
HETATM   24  C   UNK N   1      28.189  17.407   4.285  0.00  0.00     0.240 C 
HETATM   25  O   UNK N   1      28.565  17.089   5.402  0.00  0.00    -0.271 OA
HETATM   26  N   UNK N   1      28.933  17.070   3.214  0.00  0.00    -0.368 N 
HETATM   27  H   UNK N   1      29.227  17.675   2.495  0.00  0.00     0.159 HD
HETATM   28  H   UNK N   1      29.210  16.128   3.144  0.00  0.00     0.159 HD
ENDBRANCH  19  24
ENDBRANCH  17  19
ENDBRANCH   7  15
BRANCH   1  29
HETATM   29  C   UNK N   1      24.891  13.331   6.473  0.00  0.00     0.179 C 
HETATM   30  C   UNK N   1      24.342  12.760   5.176  0.00  0.00     0.037 C 
HETATM   31  C   UNK N   1      23.822  11.383   5.545  0.00  0.00     0.022 C 
HETATM   32  C   UNK N   1      23.437  11.491   7.009  0.00  0.00     0.127 C 
HETATM   33  N   UNK N   1      24.210  12.597   7.512  0.00  0.00    -0.337 N 
HETATM   34  C   UNK N   1      24.317  12.864   8.852  0.00  0.00     0.245 C 
HETATM   35  O   UNK N   1      25.092  13.736   9.235  0.00  0.00    -0.271 OA
BRANCH  34  36
HETATM   36  C   UNK N   1      23.473  12.129   9.881  0.00  0.00     0.196 C 
BRANCH  36  37
HETATM   37  C   UNK N   1      23.977  12.359  11.318  0.00  0.00     0.145 C 
HETATM   38  C   UNK N   1      23.010  11.785  12.338  0.00  0.00     0.042 C 
BRANCH  37  39
HETATM   39  O   UNK N   1      25.237  11.794  11.520  0.00  0.00    -0.393 OA
HETATM   40  H   UNK N   1      26.100  11.634  11.106  0.00  0.00     0.210 HD
ENDBRANCH  37  39
ENDBRANCH  36  37
BRANCH  36  41
HETATM   41  N   UNK N   1      22.101  12.616   9.815  0.00  0.00    -0.416 N 
HETATM   42  H   UNK N   1      21.467  13.319   9.436  0.00  0.00     0.150 HD
HETATM   43  H   UNK N   1      21.539  11.990  10.390  0.00  0.00     0.150 HD
ENDBRANCH  36  41
ENDBRANCH  34  36
ENDBRANCH   1  29
TORSDOF 12
ENDMDL
MODEL 4
REMARK VINA RESULT:      -6.7      6.936     12.988
REMARK  12 active torsions:
REMARK  status: ('A' for Active; 'I' for Inactive)
REMARK    1  A    between atoms: C_2  and  C_3 
REMARK    2  A    between atoms: C_2  and  O_36 
REMARK    3  A    between atoms: C_3  and  C_4 
REMARK    4  A    between atoms: C_3  and  N_35 
REMARK       I    between atoms: C_4  and  N_6 
REMARK    5  A    between atoms: C_10  and  C_11 
REMARK       I    between atoms: C_11  and  N_13 
REMARK    6  A    between atoms: C_17  and  C_18 
REMARK    7  A    between atoms: C_17  and  C_25 
REMARK    8  A    between atoms: C_18  and  C_19 
REMARK       I    between atoms: C_25  and  N_27 
REMARK    9  A    between atoms: C_28  and  N_27 
REMARK   10  A    between atoms: C_28  and  C_29 
REMARK   11  A    between atoms: C_28  and  C_32 
REMARK   12  A    between atoms: C_29  and  O_31 
REMARK       I    between atoms: C_32  and  N_34 
ROOT
HETATM    1  C   UNK N   1      35.240  12.212  11.709  0.00  0.00     0.243 C 
HETATM    2  O   UNK N   1      34.547  11.223  11.534  0.00  0.00    -0.271 OA
HETATM    3  N   UNK N   1      35.212  12.858  12.913  0.00  0.00    -0.332 N 
HETATM    4  C   UNK N   1      35.772  14.184  13.012  0.00  0.00     0.127 C 
HETATM    5  C   UNK N   1      36.619  14.189  14.255  0.00  0.00     0.023 C 
HETATM    6  C   UNK N   1      36.710  12.722  14.616  0.00  0.00     0.043 C 
HETATM    7  C   UNK N   1      35.382  12.107  14.156  0.00  0.00     0.120 C 
ENDROOT
BRANCH   7   8
HETATM    8  C   UNK N   1      34.290  12.438  15.204  0.00  0.00     0.080 C 
BRANCH   8   9
HETATM    9  C   UNK N   1      34.790  12.308  16.627  0.00  0.00    -0.055 A 
HETATM   10  C   UNK N   1      35.161  11.052  17.136  0.00  0.00     0.007 A 
HETATM   11  C   UNK N   1      35.579  10.914  18.459  0.00  0.00     0.001 A 
HETATM   12  C   UNK N   1      35.645  12.038  19.285  0.00  0.00     0.000 A 
HETATM   13  C   UNK N   1      35.297  13.296  18.782  0.00  0.00     0.001 A 
HETATM   14  C   UNK N   1      34.868  13.432  17.456  0.00  0.00     0.007 A 
ENDBRANCH   8   9
ENDBRANCH   7   8
BRANCH   7  15
HETATM   15  C   UNK N   1      35.555  10.580  14.046  0.00  0.00     0.247 C 
HETATM   16  O   UNK N   1      34.573   9.857  14.136  0.00  0.00    -0.271 OA
HETATM   17  N   UNK N   1      36.767  10.047  13.708  0.00  0.00    -0.343 N 
HETATM   18  H   UNK N   1      37.548  10.646  13.731  0.00  0.00     0.163 HD
BRANCH  17  19
HETATM   19  C   UNK N   1      36.998   8.655  13.316  0.00  0.00     0.204 C 
BRANCH  19  20
HETATM   20  C   UNK N   1      36.987   7.617  14.448  0.00  0.00     0.146 C 
HETATM   21  C   UNK N   1      37.870   8.042  15.601  0.00  0.00     0.042 C 
BRANCH  20  22
HETATM   22  O   UNK N   1      35.704   7.307  14.895  0.00  0.00    -0.393 OA
HETATM   23  H   UNK N   1      35.039   6.629  15.091  0.00  0.00     0.210 HD
ENDBRANCH  20  22
ENDBRANCH  19  20
BRANCH  19  24
HETATM   24  C   UNK N   1      36.168   8.242  12.129  0.00  0.00     0.240 C 
HETATM   25  O   UNK N   1      35.341   7.348  12.217  0.00  0.00    -0.271 OA
HETATM   26  N   UNK N   1      36.354   8.858  10.946  0.00  0.00    -0.368 N 
HETATM   27  H   UNK N   1      37.217   9.006  10.496  0.00  0.00     0.159 HD
HETATM   28  H   UNK N   1      35.550   9.194  10.488  0.00  0.00     0.159 HD
ENDBRANCH  19  24
ENDBRANCH  17  19
ENDBRANCH   7  15
BRANCH   1  29
HETATM   29  C   UNK N   1      36.322  12.591  10.682  0.00  0.00     0.179 C 
HETATM   30  C   UNK N   1      37.749  12.375  11.155  0.00  0.00     0.037 C 
HETATM   31  C   UNK N   1      38.571  13.404  10.399  0.00  0.00     0.022 C 
HETATM   32  C   UNK N   1      37.609  14.545  10.124  0.00  0.00     0.127 C 
HETATM   33  N   UNK N   1      36.300  13.948  10.191  0.00  0.00    -0.337 N 
HETATM   34  C   UNK N   1      35.175  14.606   9.768  0.00  0.00     0.245 C 
HETATM   35  O   UNK N   1      34.104  14.006   9.724  0.00  0.00    -0.271 OA
BRANCH  34  36
HETATM   36  C   UNK N   1      35.208  16.075   9.383  0.00  0.00     0.196 C 
BRANCH  36  37
HETATM   37  C   UNK N   1      34.311  16.379   8.168  0.00  0.00     0.145 C 
HETATM   38  C   UNK N   1      33.810  17.812   8.199  0.00  0.00     0.042 C 
BRANCH  37  39
HETATM   39  O   UNK N   1      34.981  16.158   6.964  0.00  0.00    -0.393 OA
HETATM   40  H   UNK N   1      35.856  16.036   6.564  0.00  0.00     0.210 HD
ENDBRANCH  37  39
ENDBRANCH  36  37
BRANCH  36  41
HETATM   41  N   UNK N   1      34.721  16.878  10.498  0.00  0.00    -0.416 N 
HETATM   42  H   UNK N   1      34.118  16.912  11.320  0.00  0.00     0.150 HD
HETATM   43  H   UNK N   1      35.174  17.788  10.426  0.00  0.00     0.150 HD
ENDBRANCH  36  41
ENDBRANCH  34  36
ENDBRANCH   1  29
TORSDOF 12
ENDMDL
MODEL 5
REMARK VINA RESULT:      -6.6      6.660      9.511
REMARK  12 active torsions:
REMARK  status: ('A' for Active; 'I' for Inactive)
REMARK    1  A    between atoms: C_2  and  C_3 
REMARK    2  A    between atoms: C_2  and  O_36 
REMARK    3  A    between atoms: C_3  and  C_4 
REMARK    4  A    between atoms: C_3  and  N_35 
REMARK       I    between atoms: C_4  and  N_6 
REMARK    5  A    between atoms: C_10  and  C_11 
REMARK       I    between atoms: C_11  and  N_13 
REMARK    6  A    between atoms: C_17  and  C_18 
REMARK    7  A    between atoms: C_17  and  C_25 
REMARK    8  A    between atoms: C_18  and  C_19 
REMARK       I    between atoms: C_25  and  N_27 
REMARK    9  A    between atoms: C_28  and  N_27 
REMARK   10  A    between atoms: C_28  and  C_29 
REMARK   11  A    between atoms: C_28  and  C_32 
REMARK   12  A    between atoms: C_29  and  O_31 
REMARK       I    between atoms: C_32  and  N_34 
ROOT
HETATM    1  C   UNK N   1      21.079  14.711   5.424  0.00  0.00     0.243 C 
HETATM    2  O   UNK N   1      20.835  13.859   4.587  0.00  0.00    -0.271 OA
HETATM    3  N   UNK N   1      22.017  15.671   5.164  0.00  0.00    -0.332 N 
HETATM    4  C   UNK N   1      22.527  16.469   6.253  0.00  0.00     0.127 C 
HETATM    5  C   UNK N   1      22.510  17.893   5.772  0.00  0.00     0.023 C 
HETATM    6  C   UNK N   1      21.684  17.821   4.506  0.00  0.00     0.043 C 
HETATM    7  C   UNK N   1      21.966  16.433   3.916  0.00  0.00     0.120 C 
ENDROOT
BRANCH   7   8
HETATM    8  C   UNK N   1      23.332  16.469   3.187  0.00  0.00     0.080 C 
BRANCH   8   9
HETATM    9  C   UNK N   1      24.229  15.313   3.575  0.00  0.00    -0.055 A 
HETATM   10  C   UNK N   1      23.961  14.017   3.104  0.00  0.00     0.007 A 
HETATM   11  C   UNK N   1      24.754  12.938   3.492  0.00  0.00     0.001 A 
HETATM   12  C   UNK N   1      25.837  13.148   4.349  0.00  0.00     0.000 A 
HETATM   13  C   UNK N   1      26.124  14.437   4.809  0.00  0.00     0.001 A 
HETATM   14  C   UNK N   1      25.321  15.519   4.425  0.00  0.00     0.007 A 
ENDBRANCH   8   9
ENDBRANCH   7   8
BRANCH   7  15
HETATM   15  C   UNK N   1      20.849  16.082   2.916  0.00  0.00     0.247 C 
HETATM   16  O   UNK N   1      19.743  16.586   3.051  0.00  0.00    -0.271 OA
HETATM   17  N   UNK N   1      21.126  15.330   1.809  0.00  0.00    -0.343 N 
HETATM   18  H   UNK N   1      21.997  14.870   1.781  0.00  0.00     0.163 HD
BRANCH  17  19
HETATM   19  C   UNK N   1      20.232  15.151   0.664  0.00  0.00     0.204 C 
BRANCH  19  20
HETATM   20  C   UNK N   1      19.163  14.057   0.797  0.00  0.00     0.146 C 
HETATM   21  C   UNK N   1      19.729  12.686   0.500  0.00  0.00     0.042 C 
BRANCH  20  22
HETATM   22  O   UNK N   1      18.518  14.069   2.033  0.00  0.00    -0.393 OA
HETATM   23  H   UNK N   1      17.921  13.629   2.658  0.00  0.00     0.210 HD
ENDBRANCH  20  22
ENDBRANCH  19  20
BRANCH  19  24
HETATM   24  C   UNK N   1      19.681  16.455   0.149  0.00  0.00     0.240 C 
HETATM   25  O   UNK N   1      20.423  17.368  -0.176  0.00  0.00    -0.271 OA
HETATM   26  N   UNK N   1      18.348  16.621   0.061  0.00  0.00    -0.368 N 
HETATM   27  H   UNK N   1      17.690  16.438   0.771  0.00  0.00     0.159 HD
HETATM   28  H   UNK N   1      17.996  16.957  -0.795  0.00  0.00     0.159 HD
ENDBRANCH  19  24
ENDBRANCH  17  19
ENDBRANCH   7  15
BRANCH   1  29
HETATM   29  C   UNK N   1      20.174  14.866   6.660  0.00  0.00     0.179 C 
HETATM   30  C   UNK N   1      19.497  16.221   6.785  0.00  0.00     0.037 C 
HETATM   31  C   UNK N   1      19.296  16.420   8.276  0.00  0.00     0.022 C 
HETATM   32  C   UNK N   1      20.412  15.625   8.930  0.00  0.00     0.127 C 
HETATM   33  N   UNK N   1      20.791  14.645   7.945  0.00  0.00    -0.337 N 
HETATM   34  C   UNK N   1      21.610  13.588   8.245  0.00  0.00     0.245 C 
HETATM   35  O   UNK N   1      21.796  12.711   7.406  0.00  0.00    -0.271 OA
BRANCH  34  36
HETATM   36  C   UNK N   1      22.325  13.487   9.582  0.00  0.00     0.196 C 
BRANCH  36  37
HETATM   37  C   UNK N   1      21.771  12.346  10.454  0.00  0.00     0.145 C 
HETATM   38  C   UNK N   1      22.690  12.054  11.626  0.00  0.00     0.042 C 
BRANCH  37  39
HETATM   39  O   UNK N   1      20.495  12.639  10.939  0.00  0.00    -0.393 OA
HETATM   40  H   UNK N   1      19.739  12.277  11.428  0.00  0.00     0.210 HD
ENDBRANCH  37  39
ENDBRANCH  36  37
BRANCH  36  41
HETATM   41  N   UNK N   1      23.739  13.217   9.354  0.00  0.00    -0.416 N 
HETATM   42  H   UNK N   1      24.482  12.519   9.365  0.00  0.00     0.150 HD
HETATM   43  H   UNK N   1      24.163  14.096   9.060  0.00  0.00     0.150 HD
ENDBRANCH  36  41
ENDBRANCH  34  36
ENDBRANCH   1  29
TORSDOF 12
ENDMDL
MODEL 6
REMARK VINA RESULT:      -6.5      6.048      9.989
REMARK  12 active torsions:
REMARK  status: ('A' for Active; 'I' for Inactive)
REMARK    1  A    between atoms: C_2  and  C_3 
REMARK    2  A    between atoms: C_2  and  O_36 
REMARK    3  A    between atoms: C_3  and  C_4 
REMARK    4  A    between atoms: C_3  and  N_35 
REMARK       I    between atoms: C_4  and  N_6 
REMARK    5  A    between atoms: C_10  and  C_11 
REMARK       I    between atoms: C_11  and  N_13 
REMARK    6  A    between atoms: C_17  and  C_18 
REMARK    7  A    between atoms: C_17  and  C_25 
REMARK    8  A    between atoms: C_18  and  C_19 
REMARK       I    between atoms: C_25  and  N_27 
REMARK    9  A    between atoms: C_28  and  N_27 
REMARK   10  A    between atoms: C_28  and  C_29 
REMARK   11  A    between atoms: C_28  and  C_32 
REMARK   12  A    between atoms: C_29  and  O_31 
REMARK       I    between atoms: C_32  and  N_34 
ROOT
HETATM    1  C   UNK N   1      21.303  16.792   6.767  0.00  0.00     0.243 C 
HETATM    2  O   UNK N   1      22.085  17.705   6.563  0.00  0.00    -0.271 OA
HETATM    3  N   UNK N   1      20.667  16.192   5.717  0.00  0.00    -0.332 N 
HETATM    4  C   UNK N   1      19.525  15.349   5.975  0.00  0.00     0.127 C 
HETATM    5  C   UNK N   1      19.731  14.105   5.155  0.00  0.00     0.023 C 
HETATM    6  C   UNK N   1      21.171  14.219   4.708  0.00  0.00     0.043 C 
HETATM    7  C   UNK N   1      21.433  15.724   4.562  0.00  0.00     0.120 C 
ENDROOT
BRANCH   7   8
HETATM    8  C   UNK N   1      20.834  16.206   3.217  0.00  0.00     0.080 C 
BRANCH   8   9
HETATM    9  C   UNK N   1      20.731  15.094   2.194  0.00  0.00    -0.055 A 
HETATM   10  C   UNK N   1      19.474  14.618   1.788  0.00  0.00     0.007 A 
HETATM   11  C   UNK N   1      19.369  13.563   0.882  0.00  0.00     0.001 A 
HETATM   12  C   UNK N   1      20.526  12.982   0.359  0.00  0.00     0.000 A 
HETATM   13  C   UNK N   1      21.783  13.463   0.741  0.00  0.00     0.001 A 
HETATM   14  C   UNK N   1      21.887  14.516   1.659  0.00  0.00     0.007 A 
ENDBRANCH   8   9
ENDBRANCH   7   8
BRANCH   7  15
HETATM   15  C   UNK N   1      22.954  15.966   4.573  0.00  0.00     0.247 C 
HETATM   16  O   UNK N   1      23.686  15.162   5.131  0.00  0.00    -0.271 OA
HETATM   17  N   UNK N   1      23.493  16.991   3.847  0.00  0.00    -0.343 N 
HETATM   18  H   UNK N   1      22.874  17.666   3.487  0.00  0.00     0.163 HD
BRANCH  17  19
HETATM   19  C   UNK N   1      24.919  17.167   3.564  0.00  0.00     0.204 C 
BRANCH  19  20
HETATM   20  C   UNK N   1      25.747  17.878   4.643  0.00  0.00     0.146 C 
HETATM   21  C   UNK N   1      25.267  19.296   4.868  0.00  0.00     0.042 C 
BRANCH  20  22
HETATM   22  O   UNK N   1      25.798  17.176   5.847  0.00  0.00    -0.393 OA
HETATM   23  H   UNK N   1      25.380  16.958   6.695  0.00  0.00     0.210 HD
ENDBRANCH  20  22
ENDBRANCH  19  20
BRANCH  19  24
HETATM   24  C   UNK N   1      25.569  15.905   3.057  0.00  0.00     0.240 C 
HETATM   25  O   UNK N   1      25.220  15.395   2.005  0.00  0.00    -0.271 OA
HETATM   26  N   UNK N   1      26.541  15.324   3.786  0.00  0.00    -0.368 N 
HETATM   27  H   UNK N   1      26.499  15.109   4.746  0.00  0.00     0.159 HD
HETATM   28  H   UNK N   1      27.373  15.092   3.314  0.00  0.00     0.159 HD
ENDBRANCH  19  24
ENDBRANCH  17  19
ENDBRANCH   7  15
BRANCH   1  29
HETATM   29  C   UNK N   1      21.213  16.146   8.162  0.00  0.00     0.179 C 
HETATM   30  C   UNK N   1      21.387  14.637   8.176  0.00  0.00     0.037 C 
HETATM   31  C   UNK N   1      20.592  14.163   9.379  0.00  0.00     0.022 C 
HETATM   32  C   UNK N   1      19.495  15.197   9.552  0.00  0.00     0.127 C 
HETATM   33  N   UNK N   1      19.998  16.381   8.905  0.00  0.00    -0.337 N 
HETATM   34  C   UNK N   1      19.397  17.604   9.049  0.00  0.00     0.245 C 
HETATM   35  O   UNK N   1      19.939  18.603   8.585  0.00  0.00    -0.271 OA
BRANCH  34  36
HETATM   36  C   UNK N   1      18.052  17.754   9.740  0.00  0.00     0.196 C 
BRANCH  36  37
HETATM   37  C   UNK N   1      17.933  19.088  10.500  0.00  0.00     0.145 C 
HETATM   38  C   UNK N   1      16.938  18.984  11.641  0.00  0.00     0.042 C 
BRANCH  37  39
HETATM   39  O   UNK N   1      19.165  19.504  11.009  0.00  0.00    -0.393 OA
HETATM   40  H   UNK N   1      20.118  19.320  11.005  0.00  0.00     0.210 HD
ENDBRANCH  37  39
ENDBRANCH  36  37
BRANCH  36  41
HETATM   41  N   UNK N   1      16.990  17.723   8.742  0.00  0.00    -0.416 N 
HETATM   42  H   UNK N   1      16.653  18.085   7.850  0.00  0.00     0.150 HD
HETATM   43  H   UNK N   1      16.290  17.062   9.077  0.00  0.00     0.150 HD
ENDBRANCH  36  41
ENDBRANCH  34  36
ENDBRANCH   1  29
TORSDOF 12
ENDMDL
MODEL 7
REMARK VINA RESULT:      -6.5      2.740      7.342
REMARK  12 active torsions:
REMARK  status: ('A' for Active; 'I' for Inactive)
REMARK    1  A    between atoms: C_2  and  C_3 
REMARK    2  A    between atoms: C_2  and  O_36 
REMARK    3  A    between atoms: C_3  and  C_4 
REMARK    4  A    between atoms: C_3  and  N_35 
REMARK       I    between atoms: C_4  and  N_6 
REMARK    5  A    between atoms: C_10  and  C_11 
REMARK       I    between atoms: C_11  and  N_13 
REMARK    6  A    between atoms: C_17  and  C_18 
REMARK    7  A    between atoms: C_17  and  C_25 
REMARK    8  A    between atoms: C_18  and  C_19 
REMARK       I    between atoms: C_25  and  N_27 
REMARK    9  A    between atoms: C_28  and  N_27 
REMARK   10  A    between atoms: C_28  and  C_29 
REMARK   11  A    between atoms: C_28  and  C_32 
REMARK   12  A    between atoms: C_29  and  O_31 
REMARK       I    between atoms: C_32  and  N_34 
ROOT
HETATM    1  C   UNK N   1      31.292  16.284   7.499  0.00  0.00     0.243 C 
HETATM    2  O   UNK N   1      30.804  15.450   6.755  0.00  0.00    -0.271 OA
HETATM    3  N   UNK N   1      32.650  16.411   7.580  0.00  0.00    -0.332 N 
HETATM    4  C   UNK N   1      33.222  17.159   8.674  0.00  0.00     0.127 C 
HETATM    5  C   UNK N   1      34.261  18.061   8.066  0.00  0.00     0.023 C 
HETATM    6  C   UNK N   1      33.980  17.961   6.583  0.00  0.00     0.043 C 
HETATM    7  C   UNK N   1      33.453  16.538   6.363  0.00  0.00     0.120 C 
ENDROOT
BRANCH   7   8
HETATM    8  C   UNK N   1      34.654  15.559   6.341  0.00  0.00     0.080 C 
BRANCH   8   9
HETATM    9  C   UNK N   1      34.455  14.373   7.260  0.00  0.00    -0.055 A 
HETATM   10  C   UNK N   1      35.142  14.300   8.483  0.00  0.00     0.007 A 
HETATM   11  C   UNK N   1      35.001  13.190   9.315  0.00  0.00     0.001 A 
HETATM   12  C   UNK N   1      34.157  12.144   8.938  0.00  0.00     0.000 A 
HETATM   13  C   UNK N   1      33.452  12.216   7.731  0.00  0.00     0.001 A 
HETATM   14  C   UNK N   1      33.602  13.327   6.891  0.00  0.00     0.007 A 
ENDBRANCH   8   9
ENDBRANCH   7   8
BRANCH   7  15
HETATM   15  C   UNK N   1      32.711  16.485   5.015  0.00  0.00     0.247 C 
HETATM   16  O   UNK N   1      32.716  17.469   4.289  0.00  0.00    -0.271 OA
HETATM   17  N   UNK N   1      32.174  15.310   4.569  0.00  0.00    -0.343 N 
HETATM   18  H   UNK N   1      32.111  14.568   5.213  0.00  0.00     0.163 HD
BRANCH  17  19
HETATM   19  C   UNK N   1      31.684  15.066   3.211  0.00  0.00     0.204 C 
BRANCH  19  20
HETATM   20  C   UNK N   1      31.917  13.659   2.644  0.00  0.00     0.146 C 
HETATM   21  C   UNK N   1      33.391  13.328   2.564  0.00  0.00     0.042 C 
BRANCH  20  22
HETATM   22  O   UNK N   1      31.223  12.667   3.337  0.00  0.00    -0.393 OA
HETATM   23  H   UNK N   1      31.253  11.863   3.877  0.00  0.00     0.210 HD
ENDBRANCH  20  22
ENDBRANCH  19  20
BRANCH  19  24
HETATM   24  C   UNK N   1      30.276  15.561   3.005  0.00  0.00     0.240 C 
HETATM   25  O   UNK N   1      29.318  14.824   3.177  0.00  0.00    -0.271 OA
HETATM   26  N   UNK N   1      30.073  16.832   2.610  0.00  0.00    -0.368 N 
HETATM   27  H   UNK N   1      30.513  17.284   1.855  0.00  0.00     0.159 HD
HETATM   28  H   UNK N   1      29.421  17.359   3.126  0.00  0.00     0.159 HD
ENDBRANCH  19  24
ENDBRANCH  17  19
ENDBRANCH   7  15
BRANCH   1  29
HETATM   29  C   UNK N   1      30.401  17.355   8.154  0.00  0.00     0.179 C 
HETATM   30  C   UNK N   1      30.086  17.109   9.619  0.00  0.00     0.037 C 
HETATM   31  C   UNK N   1      28.738  17.768   9.845  0.00  0.00     0.022 C 
HETATM   32  C   UNK N   1      28.047  17.716   8.494  0.00  0.00     0.127 C 
HETATM   33  N   UNK N   1      29.117  17.592   7.539  0.00  0.00    -0.337 N 
HETATM   34  C   UNK N   1      28.915  17.749   6.192  0.00  0.00     0.245 C 
HETATM   35  O   UNK N   1      29.881  17.764   5.434  0.00  0.00    -0.271 OA
BRANCH  34  36
HETATM   36  C   UNK N   1      27.519  17.870   5.604  0.00  0.00     0.196 C 
BRANCH  36  37
HETATM   37  C   UNK N   1      27.341  19.164   4.789  0.00  0.00     0.145 C 
HETATM   38  C   UNK N   1      27.561  20.393   5.653  0.00  0.00     0.042 C 
BRANCH  37  39
HETATM   39  O   UNK N   1      28.212  19.213   3.700  0.00  0.00    -0.393 OA
HETATM   40  H   UNK N   1      28.514  19.764   2.960  0.00  0.00     0.210 HD
ENDBRANCH  37  39
ENDBRANCH  36  37
BRANCH  36  41
HETATM   41  N   UNK N   1      27.276  16.749   4.705  0.00  0.00    -0.416 N 
HETATM   42  H   UNK N   1      27.234  15.735   4.604  0.00  0.00     0.150 HD
HETATM   43  H   UNK N   1      27.054  17.146   3.792  0.00  0.00     0.150 HD
ENDBRANCH  36  41
ENDBRANCH  34  36
ENDBRANCH   1  29
TORSDOF 12
ENDMDL
MODEL 8
REMARK VINA RESULT:      -6.5     13.674     16.397
REMARK  12 active torsions:
REMARK  status: ('A' for Active; 'I' for Inactive)
REMARK    1  A    between atoms: C_2  and  C_3 
REMARK    2  A    between atoms: C_2  and  O_36 
REMARK    3  A    between atoms: C_3  and  C_4 
REMARK    4  A    between atoms: C_3  and  N_35 
REMARK       I    between atoms: C_4  and  N_6 
REMARK    5  A    between atoms: C_10  and  C_11 
REMARK       I    between atoms: C_11  and  N_13 
REMARK    6  A    between atoms: C_17  and  C_18 
REMARK    7  A    between atoms: C_17  and  C_25 
REMARK    8  A    between atoms: C_18  and  C_19 
REMARK       I    between atoms: C_25  and  N_27 
REMARK    9  A    between atoms: C_28  and  N_27 
REMARK   10  A    between atoms: C_28  and  C_29 
REMARK   11  A    between atoms: C_28  and  C_32 
REMARK   12  A    between atoms: C_29  and  O_31 
REMARK       I    between atoms: C_32  and  N_34 
ROOT
HETATM    1  C   UNK N   1      28.704  24.679  -6.181  0.00  0.00     0.243 C 
HETATM    2  O   UNK N   1      28.680  24.775  -7.396  0.00  0.00    -0.271 OA
HETATM    3  N   UNK N   1      27.779  25.346  -5.428  0.00  0.00    -0.332 N 
HETATM    4  C   UNK N   1      27.999  25.490  -4.009  0.00  0.00     0.127 C 
HETATM    5  C   UNK N   1      26.694  25.144  -3.346  0.00  0.00     0.023 C 
HETATM    6  C   UNK N   1      25.891  24.522  -4.467  0.00  0.00     0.043 C 
HETATM    7  C   UNK N   1      26.354  25.236  -5.744  0.00  0.00     0.120 C 
ENDROOT
BRANCH   7   8
HETATM    8  C   UNK N   1      25.656  26.617  -5.825  0.00  0.00     0.080 C 
BRANCH   8   9
HETATM    9  C   UNK N   1      26.638  27.755  -6.001  0.00  0.00    -0.055 A 
HETATM   10  C   UNK N   1      27.418  27.845  -7.165  0.00  0.00     0.007 A 
HETATM   11  C   UNK N   1      28.358  28.863  -7.317  0.00  0.00     0.001 A 
HETATM   12  C   UNK N   1      28.518  29.815  -6.309  0.00  0.00     0.000 A 
HETATM   13  C   UNK N   1      27.732  29.746  -5.153  0.00  0.00     0.001 A 
HETATM   14  C   UNK N   1      26.794  28.717  -4.997  0.00  0.00     0.007 A 
ENDBRANCH   8   9
ENDBRANCH   7   8
BRANCH   7  15
HETATM   15  C   UNK N   1      25.961  24.379  -6.962  0.00  0.00     0.247 C 
HETATM   16  O   UNK N   1      25.486  23.267  -6.785  0.00  0.00    -0.271 OA
HETATM   17  N   UNK N   1      26.010  24.909  -8.221  0.00  0.00    -0.343 N 
HETATM   18  H   UNK N   1      26.479  25.768  -8.333  0.00  0.00     0.163 HD
BRANCH  17  19
HETATM   19  C   UNK N   1      25.422  24.301  -9.417  0.00  0.00     0.204 C 
BRANCH  19  20
HETATM   20  C   UNK N   1      24.860  25.269 -10.467  0.00  0.00     0.146 C 
HETATM   21  C   UNK N   1      25.801  26.428 -10.717  0.00  0.00     0.042 C 
BRANCH  20  22
HETATM   22  O   UNK N   1      24.519  24.641 -11.664  0.00  0.00    -0.393 OA
HETATM   23  H   UNK N   1      23.870  24.509 -12.373  0.00  0.00     0.210 HD
ENDBRANCH  20  22
ENDBRANCH  19  20
BRANCH  19  24
HETATM   24  C   UNK N   1      26.297  23.228 -10.010  0.00  0.00     0.240 C 
HETATM   25  O   UNK N   1      25.818  22.193 -10.445  0.00  0.00    -0.271 OA
HETATM   26  N   UNK N   1      27.631  23.408 -10.046  0.00  0.00    -0.368 N 
HETATM   27  H   UNK N   1      28.202  23.682  -9.293  0.00  0.00     0.159 HD
HETATM   28  H   UNK N   1      28.078  23.250 -10.909  0.00  0.00     0.159 HD
ENDBRANCH  19  24
ENDBRANCH  17  19
ENDBRANCH   7  15
BRANCH   1  29
HETATM   29  C   UNK N   1      29.602  23.629  -5.503  0.00  0.00     0.179 C 
HETATM   30  C   UNK N   1      30.729  24.204  -4.662  0.00  0.00     0.037 C 
HETATM   31  C   UNK N   1      31.825  23.155  -4.708  0.00  0.00     0.022 C 
HETATM   32  C   UNK N   1      31.625  22.440  -6.032  0.00  0.00     0.127 C 
HETATM   33  N   UNK N   1      30.245  22.672  -6.371  0.00  0.00    -0.337 N 
HETATM   34  C   UNK N   1      29.617  21.992  -7.382  0.00  0.00     0.245 C 
HETATM   35  O   UNK N   1      28.408  22.131  -7.544  0.00  0.00    -0.271 OA
BRANCH  34  36
HETATM   36  C   UNK N   1      30.387  21.094  -8.336  0.00  0.00     0.196 C 
BRANCH  36  37
HETATM   37  C   UNK N   1      29.518  19.948  -8.885  0.00  0.00     0.145 C 
HETATM   38  C   UNK N   1      29.041  19.036  -7.770  0.00  0.00     0.042 C 
BRANCH  37  39
HETATM   39  O   UNK N   1      28.409  20.429  -9.584  0.00  0.00    -0.393 OA
HETATM   40  H   UNK N   1      27.718  21.109  -9.586  0.00  0.00     0.210 HD
ENDBRANCH  37  39
ENDBRANCH  36  37
BRANCH  36  41
HETATM   41  N   UNK N   1      30.846  21.879  -9.475  0.00  0.00    -0.416 N 
HETATM   42  H   UNK N   1      31.629  22.367  -9.909  0.00  0.00     0.150 HD
HETATM   43  H   UNK N   1      30.048  21.987 -10.100  0.00  0.00     0.150 HD
ENDBRANCH  36  41
ENDBRANCH  34  36
ENDBRANCH   1  29
TORSDOF 12
ENDMDL
MODEL 9
REMARK VINA RESULT:      -6.4      2.658      3.776
REMARK  12 active torsions:
REMARK  status: ('A' for Active; 'I' for Inactive)
REMARK    1  A    between atoms: C_2  and  C_3 
REMARK    2  A    between atoms: C_2  and  O_36 
REMARK    3  A    between atoms: C_3  and  C_4 
REMARK    4  A    between atoms: C_3  and  N_35 
REMARK       I    between atoms: C_4  and  N_6 
REMARK    5  A    between atoms: C_10  and  C_11 
REMARK       I    between atoms: C_11  and  N_13 
REMARK    6  A    between atoms: C_17  and  C_18 
REMARK    7  A    between atoms: C_17  and  C_25 
REMARK    8  A    between atoms: C_18  and  C_19 
REMARK       I    between atoms: C_25  and  N_27 
REMARK    9  A    between atoms: C_28  and  N_27 
REMARK   10  A    between atoms: C_28  and  C_29 
REMARK   11  A    between atoms: C_28  and  C_32 
REMARK   12  A    between atoms: C_29  and  O_31 
REMARK       I    between atoms: C_32  and  N_34 
ROOT
HETATM    1  C   UNK N   1      31.767  15.769   6.926  0.00  0.00     0.243 C 
HETATM    2  O   UNK N   1      30.745  15.184   7.244  0.00  0.00    -0.271 OA
HETATM    3  N   UNK N   1      32.078  15.925   5.604  0.00  0.00    -0.332 N 
HETATM    4  C   UNK N   1      33.416  16.324   5.240  0.00  0.00     0.127 C 
HETATM    5  C   UNK N   1      33.263  17.415   4.216  0.00  0.00     0.023 C 
HETATM    6  C   UNK N   1      31.794  17.765   4.301  0.00  0.00     0.043 C 
HETATM    7  C   UNK N   1      31.084  16.456   4.671  0.00  0.00     0.120 C 
ENDROOT
BRANCH   7   8
HETATM    8  C   UNK N   1      30.944  15.588   3.396  0.00  0.00     0.080 C 
BRANCH   8   9
HETATM    9  C   UNK N   1      31.368  14.152   3.621  0.00  0.00    -0.055 A 
HETATM   10  C   UNK N   1      32.578  13.678   3.087  0.00  0.00     0.007 A 
HETATM   11  C   UNK N   1      32.955  12.345   3.249  0.00  0.00     0.001 A 
HETATM   12  C   UNK N   1      32.131  11.474   3.963  0.00  0.00     0.000 A 
HETATM   13  C   UNK N   1      30.933  11.941   4.515  0.00  0.00     0.001 A 
HETATM   14  C   UNK N   1      30.550  13.277   4.344  0.00  0.00     0.007 A 
ENDBRANCH   8   9
ENDBRANCH   7   8
BRANCH   7  15
HETATM   15  C   UNK N   1      29.689  16.789   5.233  0.00  0.00     0.247 C 
HETATM   16  O   UNK N   1      28.723  16.139   4.863  0.00  0.00    -0.271 OA
HETATM   17  N   UNK N   1      29.552  17.705   6.238  0.00  0.00    -0.343 N 
HETATM   18  H   UNK N   1      30.332  18.269   6.447  0.00  0.00     0.163 HD
BRANCH  17  19
HETATM   19  C   UNK N   1      28.338  17.915   7.029  0.00  0.00     0.204 C 
BRANCH  19  20
HETATM   20  C   UNK N   1      28.506  17.895   8.555  0.00  0.00     0.146 C 
HETATM   21  C   UNK N   1      29.773  18.603   8.985  0.00  0.00     0.042 C 
BRANCH  20  22
HETATM   22  O   UNK N   1      27.400  18.403   9.235  0.00  0.00    -0.393 OA
HETATM   23  H   UNK N   1      26.932  18.527  10.075  0.00  0.00     0.210 HD
ENDBRANCH  20  22
ENDBRANCH  19  20
BRANCH  19  24
HETATM   24  C   UNK N   1      27.524  19.085   6.540  0.00  0.00     0.240 C 
HETATM   25  O   UNK N   1      27.824  20.230   6.836  0.00  0.00    -0.271 OA
HETATM   26  N   UNK N   1      26.437  18.860   5.777  0.00  0.00    -0.368 N 
HETATM   27  H   UNK N   1      25.709  18.227   5.973  0.00  0.00     0.159 HD
HETATM   28  H   UNK N   1      26.364  19.377   4.943  0.00  0.00     0.159 HD
ENDBRANCH  19  24
ENDBRANCH  17  19
ENDBRANCH   7  15
BRANCH   1  29
HETATM   29  C   UNK N   1      32.576  16.544   7.981  0.00  0.00     0.179 C 
HETATM   30  C   UNK N   1      33.083  17.901   7.522  0.00  0.00     0.037 C 
HETATM   31  C   UNK N   1      34.349  18.137   8.325  0.00  0.00     0.022 C 
HETATM   32  C   UNK N   1      34.885  16.749   8.625  0.00  0.00     0.127 C 
HETATM   33  N   UNK N   1      33.741  15.882   8.518  0.00  0.00    -0.337 N 
HETATM   34  C   UNK N   1      33.767  14.580   8.946  0.00  0.00     0.245 C 
HETATM   35  O   UNK N   1      32.729  13.924   8.954  0.00  0.00    -0.271 OA
BRANCH  34  36
HETATM   36  C   UNK N   1      35.061  13.911   9.383  0.00  0.00     0.196 C 
BRANCH  36  37
HETATM   37  C   UNK N   1      35.064  13.576  10.886  0.00  0.00     0.145 C 
HETATM   38  C   UNK N   1      36.413  13.880  11.513  0.00  0.00     0.042 C 
BRANCH  37  39
HETATM   39  O   UNK N   1      34.074  14.279  11.574  0.00  0.00    -0.393 OA
HETATM   40  H   UNK N   1      33.164  14.228  11.907  0.00  0.00     0.210 HD
ENDBRANCH  37  39
ENDBRANCH  36  37
BRANCH  36  41
HETATM   41  N   UNK N   1      35.226  12.660   8.655  0.00  0.00    -0.416 N 
HETATM   42  H   UNK N   1      35.881  12.018   8.207  0.00  0.00     0.150 HD
HETATM   43  H   UNK N   1      34.296  12.257   8.547  0.00  0.00     0.150 HD
ENDBRANCH  36  41
ENDBRANCH  34  36
ENDBRANCH   1  29
TORSDOF 12
ENDMDL
