MODEL 1
REMARK VINA RESULT:      -8.6      0.000      0.000
REMARK  24 active torsions:
REMARK  status: ('A' for Active; 'I' for Inactive)
REMARK    1  A    between atoms: C_3  and  N_39 
REMARK    2  A    between atoms: C_6  and  C_7 
REMARK       I    between atoms: C_7  and  N_9 
REMARK    3  A    between atoms: C_10  and  N_9 
REMARK    4  A    between atoms: C_10  and  C_11 
REMARK    5  A    between atoms: C_10  and  C_36 
REMARK    6  A    between atoms: C_11  and  C_12 
REMARK    7  A    between atoms: C_12  and  C_13 
REMARK       I    between atoms: C_13  and  N_15 
REMARK    8  A    between atoms: N_15  and  C_16 
REMARK    9  A    between atoms: C_16  and  C_17 
REMARK   10  A    between atoms: C_17  and  C_18 
REMARK   11  A    between atoms: C_17  and  N_35 
REMARK       I    between atoms: C_18  and  N_20 
REMARK   12  A    between atoms: C_21  and  N_20 
REMARK   13  A    between atoms: C_21  and  C_22 
REMARK   14  A    between atoms: C_21  and  C_26 
REMARK   15  A    between atoms: C_22  and  C_23 
REMARK   16  A    between atoms: C_23  and  O_25 
REMARK       I    between atoms: C_26  and  N_28 
REMARK   17  A    between atoms: C_29  and  N_28 
REMARK   18  A    between atoms: C_29  and  C_30 
REMARK   19  A    between atoms: C_29  and  C_32 
REMARK   20  A    between atoms: C_30  and  S_31 
REMARK   21  A    between atoms: C_32  and  O_34 
REMARK   22  A    between atoms: C_36  and  O_38 
REMARK   23  A    between atoms: N_39  and  C_40 
REMARK   24  A    between atoms: C_40  and  C_41 
ROOT
HETATM    1  C   UNK N   1      26.919  19.442   5.748  0.00  0.00     0.183 C 
ENDROOT
BRANCH   1   2
HETATM    2  N   UNK N   1      28.215  18.805   5.641  0.00  0.00    -0.343 N 
HETATM    3  C   UNK N   1      28.454  17.711   6.391  0.00  0.00     0.252 C 
HETATM    4  O   UNK N   1      27.526  17.119   6.932  0.00  0.00    -0.268 OA
HETATM    5  H   UNK N   1      28.905  19.161   5.036  0.00  0.00     0.163 HD
BRANCH   3   6
HETATM    6  C   UNK N   1      29.774  17.436   6.870  0.00  0.00     0.032 C 
HETATM    7  C   UNK N   1      30.155  18.161   7.999  0.00  0.00     0.019 C 
HETATM    8  C   UNK N   1      31.192  17.737   8.779  0.00  0.00     0.030 C 
HETATM    9  C   UNK N   1      31.815  16.552   8.460  0.00  0.00     0.028 C 
HETATM   10  C   UNK N   1      31.526  15.875   7.255  0.00  0.00     0.030 C 
HETATM   11  C   UNK N   1      30.507  16.341   6.430  0.00  0.00     0.019 C 
BRANCH   9  12
HETATM   12  N   UNK N   1      32.394  15.866   9.521  0.00  0.00    -0.384 N 
HETATM   13  H   UNK N   1      32.055  15.982  10.439  0.00  0.00     0.160 HD
BRANCH  12  14
HETATM   14  C   UNK N   1      33.496  14.985   9.251  0.00  0.00     0.178 C 
BRANCH  14  15
HETATM   15  C   UNK N   1      34.294  14.881  10.467  0.00  0.00     0.043 A 
HETATM   16  C   UNK N   1      35.118  15.926  10.875  0.00  0.00     0.116 A 
HETATM   17  N   UNK N   1      35.925  15.746  11.955  0.00  0.00    -0.348 N 
HETATM   18  C   UNK N   1      35.934  14.559  12.620  0.00  0.00     0.139 A 
HETATM   19  H   UNK N   1      36.508  16.479  12.257  0.00  0.00     0.167 HD
HETATM   20  N   UNK N   1      36.773  14.355  13.665  0.00  0.00    -0.337 N 
HETATM   21  C   UNK N   1      35.081  13.528  12.213  0.00  0.00     0.146 A 
HETATM   22  C   UNK N   1      36.790  13.158  14.316  0.00  0.00     0.185 A 
ATOM     23  HN  UNK N   1      37.396  15.104  13.967  1.00  0.00     0.168 HD
HETATM   24  N   UNK N   1      35.957  12.151  13.935  0.00  0.00    -0.318 N 
HETATM   25  C   UNK N   1      35.091  12.316  12.888  0.00  0.00     0.277 A 
ATOM     26  HN  UNK N   1      35.977  11.263  14.437  1.00  0.00     0.169 HD
HETATM   27  O   UNK N   1      34.353  11.408  12.552  0.00  0.00    -0.266 OA
HETATM   28  N   UNK N   1      34.280  13.715  11.153  0.00  0.00    -0.350 N 
ATOM     29  HN  UNK N   1      33.652  12.967  10.859  1.00  0.00     0.166 HD
ENDBRANCH  14  15
ENDBRANCH  12  14
ENDBRANCH   9  12
ENDBRANCH   3   6
ENDBRANCH   1   2
BRANCH   1  30
HETATM   30  C   UNK N   1      26.479  19.885   4.327  0.00  0.00     0.045 C 
BRANCH  30  31
HETATM   31  C   UNK N   1      24.959  19.898   4.086  0.00  0.00     0.105 C 
BRANCH  31  32
HETATM   32  C   UNK N   1      24.384  20.457   2.804  0.00  0.00     0.217 C 
HETATM   33  O   UNK N   1      25.172  20.894   1.981  0.00  0.00    -0.274 OA
HETATM   34  N   UNK N   1      23.056  20.517   2.519  0.00  0.00    -0.359 N 
HETATM   35  H   UNK N   1      22.794  20.988   1.694  0.00  0.00     0.162 HD
BRANCH  34  36
HETATM   36  C   UNK N   1      21.997  19.952   3.319  0.00  0.00     0.156 C 
BRANCH  36  37
HETATM   37  C   UNK N   1      20.670  19.775   2.578  0.00  0.00     0.185 C 
BRANCH  37  38
HETATM   38  C   UNK N   1      19.726  18.711   3.039  0.00  0.00     0.242 C 
HETATM   39  O   UNK N   1      18.572  18.737   2.648  0.00  0.00    -0.271 OA
HETATM   40  N   UNK N   1      20.210  17.646   3.730  0.00  0.00    -0.345 N 
HETATM   41  H   UNK N   1      21.064  17.754   4.207  0.00  0.00     0.163 HD
BRANCH  40  42
HETATM   42  C   UNK N   1      19.547  16.364   3.811  0.00  0.00     0.186 C 
BRANCH  42  43
HETATM   43  C   UNK N   1      19.932  15.265   2.803  0.00  0.00     0.144 C 
BRANCH  43  44
HETATM   44  C   UNK N   1      20.925  15.643   1.746  0.00  0.00     0.141 C 
HETATM   45  O   UNK N   1      22.058  15.194   1.797  0.00  0.00    -0.650 OA
BRANCH  44  46
HETATM   46  O   UNK N   1      20.595  16.505   0.767  0.00  0.00    -0.776 OA
HETATM   47  H   UNK N   1      20.297  17.392   0.817  0.00  0.00     0.167 HD
ENDBRANCH  44  46
ENDBRANCH  43  44
ENDBRANCH  42  43
BRANCH  42  48
HETATM   48  C   UNK N   1      19.240  16.026   5.242  0.00  0.00     0.241 C 
HETATM   49  O   UNK N   1      18.080  15.788   5.545  0.00  0.00    -0.271 OA
HETATM   50  N   UNK N   1      20.209  16.099   6.193  0.00  0.00    -0.344 N 
HETATM   51  H   UNK N   1      21.126  16.283   5.881  0.00  0.00     0.163 HD
BRANCH  50  52
HETATM   52  C   UNK N   1      20.024  15.933   7.630  0.00  0.00     0.191 C 
BRANCH  52  53
HETATM   53  C   UNK N   1      19.786  17.274   8.308  0.00  0.00     0.106 C 
BRANCH  53  54
HETATM   54  S   UNK N   1      18.161  17.274   9.121  0.00  0.00    -0.180 SA
HETATM   55  H   UNK N   1      16.963  17.359   8.481  0.00  0.00     0.101 HD
ENDBRANCH  53  54
ENDBRANCH  52  53
BRANCH  52  56
HETATM   56  C   UNK N   1      21.073  15.082   8.305  0.00  0.00     0.164 C 
HETATM   57  O   UNK N   1      22.109  14.790   7.728  0.00  0.00    -0.648 OA
BRANCH  56  58
HETATM   58  O   UNK N   1      20.868  14.646   9.563  0.00  0.00    -0.775 OA
HETATM   59  H   UNK N   1      21.476  14.653  10.276  0.00  0.00     0.167 HD
ENDBRANCH  56  58
ENDBRANCH  52  56
ENDBRANCH  50  52
ENDBRANCH  42  48
ENDBRANCH  40  42
ENDBRANCH  37  38
BRANCH  37  60
HETATM   60  N   UNK N   1      20.836  19.763   1.133  0.00  0.00    -0.417 N 
HETATM   61  H   UNK N   1      20.263  19.517   0.326  0.00  0.00     0.150 HD
HETATM   62  H   UNK N   1      21.764  20.082   0.856  0.00  0.00     0.150 HD
ENDBRANCH  37  60
ENDBRANCH  36  37
ENDBRANCH  34  36
ENDBRANCH  31  32
ENDBRANCH  30  31
ENDBRANCH   1  30
BRANCH   1  63
HETATM   63  C   UNK N   1      26.929  20.640   6.674  0.00  0.00     0.163 C 
HETATM   64  O   UNK N   1      27.460  21.689   6.338  0.00  0.00    -0.648 OA
BRANCH  63  65
HETATM   65  O   UNK N   1      26.331  20.562   7.876  0.00  0.00    -0.775 OA
HETATM   66  H   UNK N   1      25.986  19.762   8.221  0.00  0.00     0.167 HD
ENDBRANCH  63  65
ENDBRANCH   1  63
TORSDOF 24
ENDMDL
MODEL 2
REMARK VINA RESULT:      -8.4      4.169     13.112
REMARK  24 active torsions:
REMARK  status: ('A' for Active; 'I' for Inactive)
REMARK    1  A    between atoms: C_3  and  N_39 
REMARK    2  A    between atoms: C_6  and  C_7 
REMARK       I    between atoms: C_7  and  N_9 
REMARK    3  A    between atoms: C_10  and  N_9 
REMARK    4  A    between atoms: C_10  and  C_11 
REMARK    5  A    between atoms: C_10  and  C_36 
REMARK    6  A    between atoms: C_11  and  C_12 
REMARK    7  A    between atoms: C_12  and  C_13 
REMARK       I    between atoms: C_13  and  N_15 
REMARK    8  A    between atoms: N_15  and  C_16 
REMARK    9  A    between atoms: C_16  and  C_17 
REMARK   10  A    between atoms: C_17  and  C_18 
REMARK   11  A    between atoms: C_17  and  N_35 
REMARK       I    between atoms: C_18  and  N_20 
REMARK   12  A    between atoms: C_21  and  N_20 
REMARK   13  A    between atoms: C_21  and  C_22 
REMARK   14  A    between atoms: C_21  and  C_26 
REMARK   15  A    between atoms: C_22  and  C_23 
REMARK   16  A    between atoms: C_23  and  O_25 
REMARK       I    between atoms: C_26  and  N_28 
REMARK   17  A    between atoms: C_29  and  N_28 
REMARK   18  A    between atoms: C_29  and  C_30 
REMARK   19  A    between atoms: C_29  and  C_32 
REMARK   20  A    between atoms: C_30  and  S_31 
REMARK   21  A    between atoms: C_32  and  O_34 
REMARK   22  A    between atoms: C_36  and  O_38 
REMARK   23  A    between atoms: N_39  and  C_40 
REMARK   24  A    between atoms: C_40  and  C_41 
ROOT
HETATM    1  C   UNK N   1      25.776  19.642   3.656  0.00  0.00     0.183 C 
ENDROOT
BRANCH   1   2
HETATM    2  N   UNK N   1      25.128  18.449   4.158  0.00  0.00    -0.343 N 
HETATM    3  C   UNK N   1      25.659  17.251   3.844  0.00  0.00     0.252 C 
HETATM    4  O   UNK N   1      26.794  17.181   3.386  0.00  0.00    -0.268 OA
HETATM    5  H   UNK N   1      24.318  18.511   4.716  0.00  0.00     0.163 HD
BRANCH   3   6
HETATM    6  C   UNK N   1      24.817  16.106   3.686  0.00  0.00     0.032 C 
HETATM    7  C   UNK N   1      23.862  15.932   4.686  0.00  0.00     0.019 C 
HETATM    8  C   UNK N   1      22.768  15.143   4.473  0.00  0.00     0.030 C 
HETATM    9  C   UNK N   1      22.603  14.568   3.233  0.00  0.00     0.028 C 
HETATM   10  C   UNK N   1      23.620  14.630   2.257  0.00  0.00     0.030 C 
HETATM   11  C   UNK N   1      24.761  15.388   2.497  0.00  0.00     0.019 C 
BRANCH   9  12
HETATM   12  N   UNK N   1      21.290  14.309   2.856  0.00  0.00    -0.384 N 
HETATM   13  H   UNK N   1      21.083  13.583   2.223  0.00  0.00     0.160 HD
BRANCH  12  14
HETATM   14  C   UNK N   1      20.242  15.122   3.410  0.00  0.00     0.178 C 
BRANCH  14  15
HETATM   15  C   UNK N   1      20.207  16.374   2.664  0.00  0.00     0.043 A 
HETATM   16  C   UNK N   1      20.078  16.380   1.278  0.00  0.00     0.116 A 
HETATM   17  N   UNK N   1      20.158  17.564   0.614  0.00  0.00    -0.348 N 
HETATM   18  C   UNK N   1      20.371  18.724   1.293  0.00  0.00     0.139 A 
HETATM   19  H   UNK N   1      20.062  17.583  -0.366  0.00  0.00     0.167 HD
HETATM   20  N   UNK N   1      20.503  19.901   0.633  0.00  0.00    -0.337 N 
HETATM   21  C   UNK N   1      20.473  18.704   2.688  0.00  0.00     0.146 A 
HETATM   22  C   UNK N   1      20.734  21.056   1.316  0.00  0.00     0.185 A 
ATOM     23  HN  UNK N   1      20.428  19.922  -0.385  1.00  0.00     0.168 HD
HETATM   24  N   UNK N   1      20.825  21.051   2.675  0.00  0.00    -0.318 N 
HETATM   25  C   UNK N   1      20.694  19.886   3.380  0.00  0.00     0.277 A 
ATOM     26  HN  UNK N   1      20.992  21.926   3.173  1.00  0.00     0.169 HD
HETATM   27  O   UNK N   1      20.782  19.890   4.595  0.00  0.00    -0.266 OA
HETATM   28  N   UNK N   1      20.384  17.534   3.337  0.00  0.00    -0.350 N 
ATOM     29  HN  UNK N   1      20.451  17.518   4.356  1.00  0.00     0.166 HD
ENDBRANCH  14  15
ENDBRANCH  12  14
ENDBRANCH   9  12
ENDBRANCH   3   6
ENDBRANCH   1   2
BRANCH   1  30
HETATM   30  C   UNK N   1      26.214  20.504   4.871  0.00  0.00     0.045 C 
BRANCH  30  31
HETATM   31  C   UNK N   1      27.228  19.835   5.816  0.00  0.00     0.105 C 
BRANCH  31  32
HETATM   32  C   UNK N   1      27.134  20.030   7.314  0.00  0.00     0.217 C 
HETATM   33  O   UNK N   1      26.449  20.957   7.715  0.00  0.00    -0.274 OA
HETATM   34  N   UNK N   1      27.771  19.256   8.231  0.00  0.00    -0.359 N 
HETATM   35  H   UNK N   1      27.711  19.535   9.174  0.00  0.00     0.162 HD
BRANCH  34  36
HETATM   36  C   UNK N   1      28.526  18.060   7.945  0.00  0.00     0.156 C 
BRANCH  36  37
HETATM   37  C   UNK N   1      29.872  17.973   8.668  0.00  0.00     0.185 C 
BRANCH  37  38
HETATM   38  C   UNK N   1      31.067  17.498   7.906  0.00  0.00     0.242 C 
HETATM   39  O   UNK N   1      32.160  17.969   8.170  0.00  0.00    -0.271 OA
HETATM   40  N   UNK N   1      30.944  16.434   7.070  0.00  0.00    -0.345 N 
HETATM   41  H   UNK N   1      30.049  16.224   6.718  0.00  0.00     0.163 HD
BRANCH  40  42
HETATM   42  C   UNK N   1      32.046  15.591   6.664  0.00  0.00     0.186 C 
BRANCH  42  43
HETATM   43  C   UNK N   1      32.745  15.879   5.322  0.00  0.00     0.144 C 
BRANCH  43  44
HETATM   44  C   UNK N   1      33.246  17.276   5.112  0.00  0.00     0.141 C 
HETATM   45  O   UNK N   1      32.882  17.905   4.133  0.00  0.00    -0.650 OA
BRANCH  44  46
HETATM   46  O   UNK N   1      34.127  17.828   5.967  0.00  0.00    -0.776 OA
HETATM   47  H   UNK N   1      34.246  18.723   6.219  0.00  0.00     0.167 HD
ENDBRANCH  44  46
ENDBRANCH  43  44
ENDBRANCH  42  43
BRANCH  42  48
HETATM   48  C   UNK N   1      32.833  15.149   7.865  0.00  0.00     0.241 C 
HETATM   49  O   UNK N   1      32.232  14.620   8.788  0.00  0.00    -0.271 OA
HETATM   50  N   UNK N   1      34.158  15.437   7.968  0.00  0.00    -0.344 N 
HETATM   51  H   UNK N   1      34.585  15.853   7.184  0.00  0.00     0.163 HD
BRANCH  50  52
HETATM   52  C   UNK N   1      35.007  15.191   9.127  0.00  0.00     0.191 C 
BRANCH  52  53
HETATM   53  C   UNK N   1      35.229  13.700   9.335  0.00  0.00     0.106 C 
BRANCH  53  54
HETATM   54  S   UNK N   1      36.887  13.412  10.019  0.00  0.00    -0.180 SA
HETATM   55  H   UNK N   1      37.923  12.838   9.349  0.00  0.00     0.101 HD
ENDBRANCH  53  54
ENDBRANCH  52  53
BRANCH  52  56
HETATM   56  C   UNK N   1      34.594  15.930  10.378  0.00  0.00     0.164 C 
HETATM   57  O   UNK N   1      35.012  17.054  10.607  0.00  0.00    -0.648 OA
BRANCH  56  58
HETATM   58  O   UNK N   1      33.748  15.345  11.248  0.00  0.00    -0.775 OA
HETATM   59  H   UNK N   1      32.874  15.049  11.083  0.00  0.00     0.167 HD
ENDBRANCH  56  58
ENDBRANCH  52  56
ENDBRANCH  50  52
ENDBRANCH  42  48
ENDBRANCH  40  42
ENDBRANCH  37  38
BRANCH  37  60
HETATM   60  N   UNK N   1      29.766  17.327   9.967  0.00  0.00    -0.417 N 
HETATM   61  H   UNK N   1      29.485  16.411  10.315  0.00  0.00     0.150 HD
HETATM   62  H   UNK N   1      30.044  17.951  10.724  0.00  0.00     0.150 HD
ENDBRANCH  37  60
ENDBRANCH  36  37
ENDBRANCH  34  36
ENDBRANCH  31  32
ENDBRANCH  30  31
ENDBRANCH   1  30
BRANCH   1  63
HETATM   63  C   UNK N   1      24.880  20.461   2.750  0.00  0.00     0.163 C 
HETATM   64  O   UNK N   1      25.102  20.541   1.551  0.00  0.00    -0.648 OA
BRANCH  63  65
HETATM   65  O   UNK N   1      23.810  21.096   3.264  0.00  0.00    -0.775 OA
HETATM   66  H   UNK N   1      22.957  21.046   2.882  0.00  0.00     0.167 HD
ENDBRANCH  63  65
ENDBRANCH   1  63
TORSDOF 24
ENDMDL
MODEL 3
REMARK VINA RESULT:      -8.3      2.935      4.542
REMARK  24 active torsions:
REMARK  status: ('A' for Active; 'I' for Inactive)
REMARK    1  A    between atoms: C_3  and  N_39 
REMARK    2  A    between atoms: C_6  and  C_7 
REMARK       I    between atoms: C_7  and  N_9 
REMARK    3  A    between atoms: C_10  and  N_9 
REMARK    4  A    between atoms: C_10  and  C_11 
REMARK    5  A    between atoms: C_10  and  C_36 
REMARK    6  A    between atoms: C_11  and  C_12 
REMARK    7  A    between atoms: C_12  and  C_13 
REMARK       I    between atoms: C_13  and  N_15 
REMARK    8  A    between atoms: N_15  and  C_16 
REMARK    9  A    between atoms: C_16  and  C_17 
REMARK   10  A    between atoms: C_17  and  C_18 
REMARK   11  A    between atoms: C_17  and  N_35 
REMARK       I    between atoms: C_18  and  N_20 
REMARK   12  A    between atoms: C_21  and  N_20 
REMARK   13  A    between atoms: C_21  and  C_22 
REMARK   14  A    between atoms: C_21  and  C_26 
REMARK   15  A    between atoms: C_22  and  C_23 
REMARK   16  A    between atoms: C_23  and  O_25 
REMARK       I    between atoms: C_26  and  N_28 
REMARK   17  A    between atoms: C_29  and  N_28 
REMARK   18  A    between atoms: C_29  and  C_30 
REMARK   19  A    between atoms: C_29  and  C_32 
REMARK   20  A    between atoms: C_30  and  S_31 
REMARK   21  A    between atoms: C_32  and  O_34 
REMARK   22  A    between atoms: C_36  and  O_38 
REMARK   23  A    between atoms: N_39  and  C_40 
REMARK   24  A    between atoms: C_40  and  C_41 
ROOT
HETATM    1  C   UNK N   1      29.227  17.430   7.843  0.00  0.00     0.183 C 
ENDROOT
BRANCH   1   2
HETATM    2  N   UNK N   1      30.641  17.616   7.591  0.00  0.00    -0.343 N 
HETATM    3  C   UNK N   1      31.359  16.558   7.163  0.00  0.00     0.252 C 
HETATM    4  O   UNK N   1      30.790  15.557   6.741  0.00  0.00    -0.268 OA
HETATM    5  H   UNK N   1      31.068  18.492   7.729  0.00  0.00     0.163 HD
BRANCH   3   6
HETATM    6  C   UNK N   1      32.737  16.427   7.522  0.00  0.00     0.032 C 
HETATM    7  C   UNK N   1      33.197  17.359   8.451  0.00  0.00     0.019 C 
HETATM    8  C   UNK N   1      34.337  17.124   9.165  0.00  0.00     0.030 C 
HETATM    9  C   UNK N   1      34.989  15.925   8.988  0.00  0.00     0.028 C 
HETATM   10  C   UNK N   1      34.610  15.030   7.964  0.00  0.00     0.030 C 
HETATM   11  C   UNK N   1      33.481  15.298   7.198  0.00  0.00     0.019 C 
BRANCH   9  12
HETATM   12  N   UNK N   1      35.722  15.467  10.077  0.00  0.00    -0.384 N 
HETATM   13  H   UNK N   1      36.681  15.262   9.987  0.00  0.00     0.160 HD
BRANCH  12  14
HETATM   14  C   UNK N   1      35.050  15.300  11.336  0.00  0.00     0.178 C 
BRANCH  14  15
HETATM   15  C   UNK N   1      35.787  14.307  12.108  0.00  0.00     0.043 A 
HETATM   16  C   UNK N   1      36.922  13.692  11.586  0.00  0.00     0.116 A 
HETATM   17  N   UNK N   1      37.516  12.695  12.295  0.00  0.00    -0.348 N 
HETATM   18  C   UNK N   1      37.003  12.298  13.492  0.00  0.00     0.139 A 
HETATM   19  H   UNK N   1      38.323  12.256  11.941  0.00  0.00     0.167 HD
HETATM   20  N   UNK N   1      37.560  11.271  14.179  0.00  0.00    -0.337 N 
HETATM   21  C   UNK N   1      35.878  12.944  14.014  0.00  0.00     0.146 A 
HETATM   22  C   UNK N   1      37.031  10.867  15.368  0.00  0.00     0.185 A 
ATOM     23  HN  UNK N   1      38.382  10.798  13.804  1.00  0.00     0.168 HD
HETATM   24  N   UNK N   1      35.942  11.495  15.891  0.00  0.00    -0.318 N 
HETATM   25  C   UNK N   1      35.352  12.538  15.231  0.00  0.00     0.277 A 
ATOM     26  HN  UNK N   1      35.562  11.184  16.786  1.00  0.00     0.169 HD
HETATM   27  O   UNK N   1      34.375  13.091  15.705  0.00  0.00    -0.266 OA
HETATM   28  N   UNK N   1      35.302  13.933  13.314  0.00  0.00    -0.350 N 
ATOM     29  HN  UNK N   1      34.485  14.410  13.696  1.00  0.00     0.166 HD
ENDBRANCH  14  15
ENDBRANCH  12  14
ENDBRANCH   9  12
ENDBRANCH   3   6
ENDBRANCH   1   2
BRANCH   1  30
HETATM   30  C   UNK N   1      28.440  18.013   6.639  0.00  0.00     0.045 C 
BRANCH  30  31
HETATM   31  C   UNK N   1      27.724  16.973   5.759  0.00  0.00     0.105 C 
BRANCH  31  32
HETATM   32  C   UNK N   1      26.270  16.629   5.993  0.00  0.00     0.217 C 
HETATM   33  O   UNK N   1      26.022  15.808   6.862  0.00  0.00    -0.274 OA
HETATM   34  N   UNK N   1      25.232  17.161   5.296  0.00  0.00    -0.359 N 
HETATM   35  H   UNK N   1      24.336  16.792   5.472  0.00  0.00     0.162 HD
BRANCH  34  36
HETATM   36  C   UNK N   1      25.328  18.219   4.318  0.00  0.00     0.156 C 
BRANCH  36  37
HETATM   37  C   UNK N   1      24.130  19.169   4.295  0.00  0.00     0.185 C 
BRANCH  37  38
HETATM   38  C   UNK N   1      22.753  18.589   4.289  0.00  0.00     0.242 C 
HETATM   39  O   UNK N   1      22.181  18.415   5.351  0.00  0.00    -0.271 OA
HETATM   40  N   UNK N   1      22.100  18.436   3.107  0.00  0.00    -0.345 N 
HETATM   41  H   UNK N   1      22.639  18.374   2.286  0.00  0.00     0.163 HD
BRANCH  40  42
HETATM   42  C   UNK N   1      20.662  18.359   2.980  0.00  0.00     0.186 C 
BRANCH  42  43
HETATM   43  C   UNK N   1      19.918  19.496   2.256  0.00  0.00     0.144 C 
BRANCH  43  44
HETATM   44  C   UNK N   1      20.755  20.425   1.429  0.00  0.00     0.141 C 
HETATM   45  O   UNK N   1      21.593  21.125   1.971  0.00  0.00    -0.650 OA
BRANCH  44  46
HETATM   46  O   UNK N   1      20.562  20.528   0.101  0.00  0.00    -0.776 OA
HETATM   47  H   UNK N   1      20.024  20.020  -0.474  0.00  0.00     0.167 HD
ENDBRANCH  44  46
ENDBRANCH  43  44
ENDBRANCH  42  43
BRANCH  42  48
HETATM   48  C   UNK N   1      20.230  16.929   2.819  0.00  0.00     0.241 C 
HETATM   49  O   UNK N   1      20.090  16.249   3.825  0.00  0.00    -0.271 OA
HETATM   50  N   UNK N   1      20.113  16.377   1.582  0.00  0.00    -0.344 N 
HETATM   51  H   UNK N   1      20.226  16.982   0.813  0.00  0.00     0.163 HD
BRANCH  50  52
HETATM   52  C   UNK N   1      19.838  14.977   1.283  0.00  0.00     0.191 C 
BRANCH  52  53
HETATM   53  C   UNK N   1      21.119  14.229   0.944  0.00  0.00     0.106 C 
BRANCH  53  54
HETATM   54  S   UNK N   1      21.366  12.864   2.116  0.00  0.00    -0.180 SA
HETATM   55  H   UNK N   1      20.373  12.200   2.768  0.00  0.00     0.101 HD
ENDBRANCH  53  54
ENDBRANCH  52  53
BRANCH  52  56
HETATM   56  C   UNK N   1      18.717  14.752   0.296  0.00  0.00     0.164 C 
HETATM   57  O   UNK N   1      18.321  13.624   0.045  0.00  0.00    -0.648 OA
BRANCH  56  58
HETATM   58  O   UNK N   1      18.140  15.808  -0.307  0.00  0.00    -0.775 OA
HETATM   59  H   UNK N   1      17.225  15.954  -0.453  0.00  0.00     0.167 HD
ENDBRANCH  56  58
ENDBRANCH  52  56
ENDBRANCH  50  52
ENDBRANCH  42  48
ENDBRANCH  40  42
ENDBRANCH  37  38
BRANCH  37  60
HETATM   60  N   UNK N   1      24.277  20.226   3.306  0.00  0.00    -0.417 N 
HETATM   61  H   UNK N   1      24.744  21.131   3.256  0.00  0.00     0.150 HD
HETATM   62  H   UNK N   1      23.786  20.004   2.440  0.00  0.00     0.150 HD
ENDBRANCH  37  60
ENDBRANCH  36  37
ENDBRANCH  34  36
ENDBRANCH  31  32
ENDBRANCH  30  31
ENDBRANCH   1  30
BRANCH   1  63
HETATM   63  C   UNK N   1      28.766  18.097   9.122  0.00  0.00     0.163 C 
HETATM   64  O   UNK N   1      29.557  18.682   9.847  0.00  0.00    -0.648 OA
BRANCH  63  65
HETATM   65  O   UNK N   1      27.464  18.066   9.461  0.00  0.00    -0.775 OA
HETATM   66  H   UNK N   1      27.076  17.347   9.920  0.00  0.00     0.167 HD
ENDBRANCH  63  65
ENDBRANCH   1  63
TORSDOF 24
ENDMDL
MODEL 4
REMARK VINA RESULT:      -8.1      2.329      3.198
REMARK  24 active torsions:
REMARK  status: ('A' for Active; 'I' for Inactive)
REMARK    1  A    between atoms: C_3  and  N_39 
REMARK    2  A    between atoms: C_6  and  C_7 
REMARK       I    between atoms: C_7  and  N_9 
REMARK    3  A    between atoms: C_10  and  N_9 
REMARK    4  A    between atoms: C_10  and  C_11 
REMARK    5  A    between atoms: C_10  and  C_36 
REMARK    6  A    between atoms: C_11  and  C_12 
REMARK    7  A    between atoms: C_12  and  C_13 
REMARK       I    between atoms: C_13  and  N_15 
REMARK    8  A    between atoms: N_15  and  C_16 
REMARK    9  A    between atoms: C_16  and  C_17 
REMARK   10  A    between atoms: C_17  and  C_18 
REMARK   11  A    between atoms: C_17  and  N_35 
REMARK       I    between atoms: C_18  and  N_20 
REMARK   12  A    between atoms: C_21  and  N_20 
REMARK   13  A    between atoms: C_21  and  C_22 
REMARK   14  A    between atoms: C_21  and  C_26 
REMARK   15  A    between atoms: C_22  and  C_23 
REMARK   16  A    between atoms: C_23  and  O_25 
REMARK       I    between atoms: C_26  and  N_28 
REMARK   17  A    between atoms: C_29  and  N_28 
REMARK   18  A    between atoms: C_29  and  C_30 
REMARK   19  A    between atoms: C_29  and  C_32 
REMARK   20  A    between atoms: C_30  and  S_31 
REMARK   21  A    between atoms: C_32  and  O_34 
REMARK   22  A    between atoms: C_36  and  O_38 
REMARK   23  A    between atoms: N_39  and  C_40 
REMARK   24  A    between atoms: C_40  and  C_41 
ROOT
HETATM    1  C   UNK N   1      28.084  18.529   7.412  0.00  0.00     0.183 C 
ENDROOT
BRANCH   1   2
HETATM    2  N   UNK N   1      29.249  18.230   6.606  0.00  0.00    -0.343 N 
HETATM    3  C   UNK N   1      29.256  17.089   5.890  0.00  0.00     0.252 C 
HETATM    4  O   UNK N   1      28.214  16.467   5.710  0.00  0.00    -0.268 OA
HETATM    5  H   UNK N   1      30.018  18.845   6.582  0.00  0.00     0.163 HD
BRANCH   3   6
HETATM    6  C   UNK N   1      30.483  16.395   5.646  0.00  0.00     0.032 C 
HETATM    7  C   UNK N   1      31.568  17.209   5.324  0.00  0.00     0.019 C 
HETATM    8  C   UNK N   1      32.846  16.745   5.451  0.00  0.00     0.030 C 
HETATM    9  C   UNK N   1      33.040  15.479   5.955  0.00  0.00     0.028 C 
HETATM   10  C   UNK N   1      31.955  14.601   6.164  0.00  0.00     0.030 C 
HETATM   11  C   UNK N   1      30.654  15.056   5.979  0.00  0.00     0.019 C 
BRANCH   9  12
HETATM   12  N   UNK N   1      34.244  15.269   6.617  0.00  0.00    -0.384 N 
HETATM   13  H   UNK N   1      34.814  14.498   6.392  0.00  0.00     0.160 HD
BRANCH  12  14
HETATM   14  C   UNK N   1      34.640  16.201   7.637  0.00  0.00     0.178 C 
BRANCH  14  15
HETATM   15  C   UNK N   1      34.718  15.477   8.899  0.00  0.00     0.043 A 
HETATM   16  C   UNK N   1      33.624  15.413   9.757  0.00  0.00     0.116 A 
HETATM   17  N   UNK N   1      33.773  14.818  10.972  0.00  0.00    -0.348 N 
HETATM   18  C   UNK N   1      34.977  14.304  11.346  0.00  0.00     0.139 A 
HETATM   19  H   UNK N   1      33.006  14.761  11.586  0.00  0.00     0.167 HD
HETATM   20  N   UNK N   1      35.146  13.756  12.574  0.00  0.00    -0.337 N 
HETATM   21  C   UNK N   1      36.059  14.353  10.461  0.00  0.00     0.146 A 
HETATM   22  C   UNK N   1      36.357  13.259  12.950  0.00  0.00     0.185 A 
ATOM     23  HN  UNK N   1      34.360  13.716  13.223  1.00  0.00     0.168 HD
HETATM   24  N   UNK N   1      37.416  13.292  12.093  0.00  0.00    -0.318 N 
HETATM   25  C   UNK N   1      37.286  13.832  10.842  0.00  0.00     0.277 A 
ATOM     26  HN  UNK N   1      38.315  12.910  12.387  1.00  0.00     0.169 HD
HETATM   27  O   UNK N   1      38.240  13.862  10.085  0.00  0.00    -0.266 OA
HETATM   28  N   UNK N   1      35.902  14.932   9.261  0.00  0.00    -0.350 N 
ATOM     29  HN  UNK N   1      36.689  14.963   8.611  1.00  0.00     0.166 HD
ENDBRANCH  14  15
ENDBRANCH  12  14
ENDBRANCH   9  12
ENDBRANCH   3   6
ENDBRANCH   1   2
BRANCH   1  30
HETATM   30  C   UNK N   1      27.785  20.047   7.286  0.00  0.00     0.045 C 
BRANCH  30  31
HETATM   31  C   UNK N   1      26.846  20.436   6.130  0.00  0.00     0.105 C 
BRANCH  31  32
HETATM   32  C   UNK N   1      27.078  19.905   4.733  0.00  0.00     0.217 C 
HETATM   33  O   UNK N   1      28.189  20.062   4.252  0.00  0.00    -0.274 OA
HETATM   34  N   UNK N   1      26.133  19.282   3.980  0.00  0.00    -0.359 N 
HETATM   35  H   UNK N   1      26.372  19.063   3.050  0.00  0.00     0.162 HD
BRANCH  34  36
HETATM   36  C   UNK N   1      24.810  18.913   4.425  0.00  0.00     0.156 C 
BRANCH  36  37
HETATM   37  C   UNK N   1      24.603  17.410   4.616  0.00  0.00     0.185 C 
BRANCH  37  38
HETATM   38  C   UNK N   1      23.210  16.868   4.592  0.00  0.00     0.242 C 
HETATM   39  O   UNK N   1      23.025  15.702   4.893  0.00  0.00    -0.271 OA
HETATM   40  N   UNK N   1      22.168  17.721   4.414  0.00  0.00    -0.345 N 
HETATM   41  H   UNK N   1      22.344  18.581   3.969  0.00  0.00     0.163 HD
BRANCH  40  42
HETATM   42  C   UNK N   1      20.813  17.443   4.837  0.00  0.00     0.186 C 
BRANCH  42  43
HETATM   43  C   UNK N   1      19.993  16.397   4.059  0.00  0.00     0.144 C 
BRANCH  43  44
HETATM   44  C   UNK N   1      19.979  16.530   2.566  0.00  0.00     0.141 C 
HETATM   45  O   UNK N   1      20.317  17.582   2.053  0.00  0.00    -0.650 OA
BRANCH  44  46
HETATM   46  O   UNK N   1      19.554  15.517   1.788  0.00  0.00    -0.776 OA
HETATM   47  H   UNK N   1      18.732  15.391   1.355  0.00  0.00     0.167 HD
ENDBRANCH  44  46
ENDBRANCH  43  44
ENDBRANCH  42  43
BRANCH  42  48
HETATM   48  C   UNK N   1      20.700  17.560   6.330  0.00  0.00     0.241 C 
HETATM   49  O   UNK N   1      21.180  18.543   6.872  0.00  0.00    -0.271 OA
HETATM   50  N   UNK N   1      20.180  16.541   7.065  0.00  0.00    -0.344 N 
HETATM   51  H   UNK N   1      19.797  15.782   6.566  0.00  0.00     0.163 HD
BRANCH  50  52
HETATM   52  C   UNK N   1      20.134  16.462   8.520  0.00  0.00     0.191 C 
BRANCH  52  53
HETATM   53  C   UNK N   1      20.378  15.037   8.997  0.00  0.00     0.106 C 
BRANCH  53  54
HETATM   54  S   UNK N   1      21.106  14.053   7.655  0.00  0.00    -0.180 SA
HETATM   55  H   UNK N   1      21.960  14.528   6.709  0.00  0.00     0.101 HD
ENDBRANCH  53  54
ENDBRANCH  52  53
BRANCH  52  56
HETATM   56  C   UNK N   1      18.931  17.122   9.150  0.00  0.00     0.164 C 
HETATM   57  O   UNK N   1      19.002  18.257   9.594  0.00  0.00    -0.648 OA
BRANCH  56  58
HETATM   58  O   UNK N   1      17.762  16.455   9.212  0.00  0.00    -0.775 OA
HETATM   59  H   UNK N   1      17.634  15.540   9.366  0.00  0.00     0.167 HD
ENDBRANCH  56  58
ENDBRANCH  52  56
ENDBRANCH  50  52
ENDBRANCH  42  48
ENDBRANCH  40  42
ENDBRANCH  37  38
BRANCH  37  60
HETATM   60  N   UNK N   1      25.371  16.879   5.732  0.00  0.00    -0.417 N 
HETATM   61  H   UNK N   1      25.938  16.051   5.911  0.00  0.00     0.150 HD
HETATM   62  H   UNK N   1      25.333  17.495   6.545  0.00  0.00     0.150 HD
ENDBRANCH  37  60
ENDBRANCH  36  37
ENDBRANCH  34  36
ENDBRANCH  31  32
ENDBRANCH  30  31
ENDBRANCH   1  30
BRANCH   1  63
HETATM   63  C   UNK N   1      28.272  18.169   8.871  0.00  0.00     0.163 C 
HETATM   64  O   UNK N   1      29.149  18.693   9.541  0.00  0.00    -0.648 OA
BRANCH  63  65
HETATM   65  O   UNK N   1      27.451  17.272   9.449  0.00  0.00    -0.775 OA
HETATM   66  H   UNK N   1      27.440  17.115  10.373  0.00  0.00     0.167 HD
ENDBRANCH  63  65
ENDBRANCH   1  63
TORSDOF 24
ENDMDL
MODEL 5
REMARK VINA RESULT:      -8.0      4.025     12.482
REMARK  24 active torsions:
REMARK  status: ('A' for Active; 'I' for Inactive)
REMARK    1  A    between atoms: C_3  and  N_39 
REMARK    2  A    between atoms: C_6  and  C_7 
REMARK       I    between atoms: C_7  and  N_9 
REMARK    3  A    between atoms: C_10  and  N_9 
REMARK    4  A    between atoms: C_10  and  C_11 
REMARK    5  A    between atoms: C_10  and  C_36 
REMARK    6  A    between atoms: C_11  and  C_12 
REMARK    7  A    between atoms: C_12  and  C_13 
REMARK       I    between atoms: C_13  and  N_15 
REMARK    8  A    between atoms: N_15  and  C_16 
REMARK    9  A    between atoms: C_16  and  C_17 
REMARK   10  A    between atoms: C_17  and  C_18 
REMARK   11  A    between atoms: C_17  and  N_35 
REMARK       I    between atoms: C_18  and  N_20 
REMARK   12  A    between atoms: C_21  and  N_20 
REMARK   13  A    between atoms: C_21  and  C_22 
REMARK   14  A    between atoms: C_21  and  C_26 
REMARK   15  A    between atoms: C_22  and  C_23 
REMARK   16  A    between atoms: C_23  and  O_25 
REMARK       I    between atoms: C_26  and  N_28 
REMARK   17  A    between atoms: C_29  and  N_28 
REMARK   18  A    between atoms: C_29  and  C_30 
REMARK   19  A    between atoms: C_29  and  C_32 
REMARK   20  A    between atoms: C_30  and  S_31 
REMARK   21  A    between atoms: C_32  and  O_34 
REMARK   22  A    between atoms: C_36  and  O_38 
REMARK   23  A    between atoms: N_39  and  C_40 
REMARK   24  A    between atoms: C_40  and  C_41 
ROOT
HETATM    1  C   UNK N   1      26.337  19.555   3.611  0.00  0.00     0.183 C 
ENDROOT
BRANCH   1   2
HETATM    2  N   UNK N   1      25.952  18.436   4.446  0.00  0.00    -0.343 N 
HETATM    3  C   UNK N   1      26.476  17.225   4.175  0.00  0.00     0.252 C 
HETATM    4  O   UNK N   1      27.447  17.125   3.431  0.00  0.00    -0.268 OA
HETATM    5  H   UNK N   1      25.322  18.557   5.193  0.00  0.00     0.163 HD
BRANCH   3   6
HETATM    6  C   UNK N   1      25.723  16.037   4.430  0.00  0.00     0.032 C 
HETATM    7  C   UNK N   1      25.401  15.818   5.769  0.00  0.00     0.019 C 
HETATM    8  C   UNK N   1      24.385  14.972   6.110  0.00  0.00     0.030 C 
HETATM    9  C   UNK N   1      23.652  14.384   5.104  0.00  0.00     0.028 C 
HETATM   10  C   UNK N   1      24.044  14.495   3.753  0.00  0.00     0.030 C 
HETATM   11  C   UNK N   1      25.116  15.312   3.411  0.00  0.00     0.019 C 
BRANCH   9  12
HETATM   12  N   UNK N   1      22.339  14.056   5.424  0.00  0.00    -0.384 N 
HETATM   13  H   UNK N   1      21.939  13.215   5.103  0.00  0.00     0.160 HD
BRANCH  12  14
HETATM   14  C   UNK N   1      21.579  14.969   6.232  0.00  0.00     0.178 C 
BRANCH  14  15
HETATM   15  C   UNK N   1      21.472  16.228   5.504  0.00  0.00     0.043 A 
HETATM   16  C   UNK N   1      21.804  17.436   6.110  0.00  0.00     0.116 A 
HETATM   17  N   UNK N   1      21.588  18.595   5.431  0.00  0.00    -0.348 N 
HETATM   18  C   UNK N   1      21.045  18.573   4.183  0.00  0.00     0.139 A 
HETATM   19  H   UNK N   1      21.823  19.456   5.845  0.00  0.00     0.167 HD
HETATM   20  N   UNK N   1      20.779  19.726   3.521  0.00  0.00    -0.337 N 
HETATM   21  C   UNK N   1      20.742  17.349   3.578  0.00  0.00     0.146 A 
HETATM   22  C   UNK N   1      20.220  19.698   2.280  0.00  0.00     0.185 A 
ATOM     23  HN  UNK N   1      21.000  20.622   3.957  1.00  0.00     0.168 HD
HETATM   24  N   UNK N   1      19.930  18.512   1.676  0.00  0.00    -0.318 N 
HETATM   25  C   UNK N   1      20.186  17.326   2.308  0.00  0.00     0.277 A 
ATOM     26  HN  UNK N   1      19.517  18.508   0.743  1.00  0.00     0.169 HD
HETATM   27  O   UNK N   1      19.918  16.270   1.763  0.00  0.00    -0.266 OA
HETATM   28  N   UNK N   1      20.967  16.210   4.250  0.00  0.00    -0.350 N 
ATOM     29  HN  UNK N   1      20.752  15.315   3.808  1.00  0.00     0.166 HD
ENDBRANCH  14  15
ENDBRANCH  12  14
ENDBRANCH   9  12
ENDBRANCH   3   6
ENDBRANCH   1   2
BRANCH   1  30
HETATM   30  C   UNK N   1      27.145  20.554   4.483  0.00  0.00     0.045 C 
BRANCH  30  31
HETATM   31  C   UNK N   1      27.806  19.947   5.734  0.00  0.00     0.105 C 
BRANCH  31  32
HETATM   32  C   UNK N   1      27.180  20.120   7.100  0.00  0.00     0.217 C 
HETATM   33  O   UNK N   1      26.366  21.020   7.233  0.00  0.00    -0.274 OA
HETATM   34  N   UNK N   1      27.474  19.353   8.183  0.00  0.00    -0.359 N 
HETATM   35  H   UNK N   1      27.075  19.619   9.043  0.00  0.00     0.162 HD
BRANCH  34  36
HETATM   36  C   UNK N   1      28.321  18.185   8.183  0.00  0.00     0.156 C 
BRANCH  36  37
HETATM   37  C   UNK N   1      29.717  18.415   8.766  0.00  0.00     0.185 C 
BRANCH  37  38
HETATM   38  C   UNK N   1      30.798  17.433   8.449  0.00  0.00     0.242 C 
HETATM   39  O   UNK N   1      30.928  16.449   9.156  0.00  0.00    -0.271 OA
HETATM   40  N   UNK N   1      31.491  17.558   7.286  0.00  0.00    -0.345 N 
HETATM   41  H   UNK N   1      31.523  18.444   6.860  0.00  0.00     0.163 HD
BRANCH  40  42
HETATM   42  C   UNK N   1      32.186  16.469   6.637  0.00  0.00     0.186 C 
BRANCH  42  43
HETATM   43  C   UNK N   1      31.858  16.152   5.166  0.00  0.00     0.144 C 
BRANCH  43  44
HETATM   44  C   UNK N   1      31.541  17.321   4.282  0.00  0.00     0.141 C 
HETATM   45  O   UNK N   1      32.430  17.841   3.630  0.00  0.00    -0.650 OA
BRANCH  44  46
HETATM   46  O   UNK N   1      30.297  17.832   4.235  0.00  0.00    -0.776 OA
HETATM   47  H   UNK N   1      29.844  18.259   3.534  0.00  0.00     0.167 HD
ENDBRANCH  44  46
ENDBRANCH  43  44
ENDBRANCH  42  43
BRANCH  42  48
HETATM   48  C   UNK N   1      33.593  16.368   7.154  0.00  0.00     0.241 C 
HETATM   49  O   UNK N   1      34.512  16.557   6.371  0.00  0.00    -0.271 OA
HETATM   50  N   UNK N   1      33.833  15.964   8.429  0.00  0.00    -0.344 N 
HETATM   51  H   UNK N   1      33.049  15.842   9.013  0.00  0.00     0.163 HD
BRANCH  50  52
HETATM   52  C   UNK N   1      35.140  15.693   9.018  0.00  0.00     0.191 C 
BRANCH  52  53
HETATM   53  C   UNK N   1      35.487  14.215   8.918  0.00  0.00     0.106 C 
BRANCH  53  54
HETATM   54  S   UNK N   1      37.220  13.954   9.396  0.00  0.00    -0.180 SA
HETATM   55  H   UNK N   1      38.288  14.045   8.557  0.00  0.00     0.101 HD
ENDBRANCH  53  54
ENDBRANCH  52  53
BRANCH  52  56
HETATM   56  C   UNK N   1      35.344  16.279  10.394  0.00  0.00     0.164 C 
HETATM   57  O   UNK N   1      36.096  17.227  10.565  0.00  0.00    -0.648 OA
BRANCH  56  58
HETATM   58  O   UNK N   1      34.683  15.758  11.445  0.00  0.00    -0.775 OA
HETATM   59  H   UNK N   1      35.049  15.361  12.211  0.00  0.00     0.167 HD
ENDBRANCH  56  58
ENDBRANCH  52  56
ENDBRANCH  50  52
ENDBRANCH  42  48
ENDBRANCH  40  42
ENDBRANCH  37  38
BRANCH  37  60
HETATM   60  N   UNK N   1      29.682  18.743  10.182  0.00  0.00    -0.417 N 
HETATM   61  H   UNK N   1      30.346  19.078  10.880  0.00  0.00     0.150 HD
HETATM   62  H   UNK N   1      28.753  18.603  10.580  0.00  0.00     0.150 HD
ENDBRANCH  37  60
ENDBRANCH  36  37
ENDBRANCH  34  36
ENDBRANCH  31  32
ENDBRANCH  30  31
ENDBRANCH   1  30
BRANCH   1  63
HETATM   63  C   UNK N   1      25.150  20.264   2.995  0.00  0.00     0.163 C 
HETATM   64  O   UNK N   1      25.267  20.906   1.962  0.00  0.00    -0.648 OA
BRANCH  63  65
HETATM   65  O   UNK N   1      23.940  20.175   3.580  0.00  0.00    -0.775 OA
HETATM   66  H   UNK N   1      23.397  19.416   3.509  0.00  0.00     0.167 HD
ENDBRANCH  63  65
ENDBRANCH   1  63
TORSDOF 24
ENDMDL
MODEL 6
REMARK VINA RESULT:      -7.9      1.816      2.092
REMARK  24 active torsions:
REMARK  status: ('A' for Active; 'I' for Inactive)
REMARK    1  A    between atoms: C_3  and  N_39 
REMARK    2  A    between atoms: C_6  and  C_7 
REMARK       I    between atoms: C_7  and  N_9 
REMARK    3  A    between atoms: C_10  and  N_9 
REMARK    4  A    between atoms: C_10  and  C_11 
REMARK    5  A    between atoms: C_10  and  C_36 
REMARK    6  A    between atoms: C_11  and  C_12 
REMARK    7  A    between atoms: C_12  and  C_13 
REMARK       I    between atoms: C_13  and  N_15 
REMARK    8  A    between atoms: N_15  and  C_16 
REMARK    9  A    between atoms: C_16  and  C_17 
REMARK   10  A    between atoms: C_17  and  C_18 
REMARK   11  A    between atoms: C_17  and  N_35 
REMARK       I    between atoms: C_18  and  N_20 
REMARK   12  A    between atoms: C_21  and  N_20 
REMARK   13  A    between atoms: C_21  and  C_22 
REMARK   14  A    between atoms: C_21  and  C_26 
REMARK   15  A    between atoms: C_22  and  C_23 
REMARK   16  A    between atoms: C_23  and  O_25 
REMARK       I    between atoms: C_26  and  N_28 
REMARK   17  A    between atoms: C_29  and  N_28 
REMARK   18  A    between atoms: C_29  and  C_30 
REMARK   19  A    between atoms: C_29  and  C_32 
REMARK   20  A    between atoms: C_30  and  S_31 
REMARK   21  A    between atoms: C_32  and  O_34 
REMARK   22  A    between atoms: C_36  and  O_38 
REMARK   23  A    between atoms: N_39  and  C_40 
REMARK   24  A    between atoms: C_40  and  C_41 
ROOT
HETATM    1  C   UNK N   1      26.955  19.312   5.629  0.00  0.00     0.183 C 
ENDROOT
BRANCH   1   2
HETATM    2  N   UNK N   1      28.263  18.702   5.512  0.00  0.00    -0.343 N 
HETATM    3  C   UNK N   1      28.563  17.669   6.324  0.00  0.00     0.252 C 
HETATM    4  O   UNK N   1      27.674  17.092   6.942  0.00  0.00    -0.268 OA
HETATM    5  H   UNK N   1      28.918  19.033   4.855  0.00  0.00     0.163 HD
BRANCH   3   6
HETATM    6  C   UNK N   1      29.907  17.462   6.764  0.00  0.00     0.032 C 
HETATM    7  C   UNK N   1      30.234  18.075   7.973  0.00  0.00     0.019 C 
HETATM    8  C   UNK N   1      31.314  17.656   8.695  0.00  0.00     0.030 C 
HETATM    9  C   UNK N   1      32.040  16.582   8.231  0.00  0.00     0.028 C 
HETATM   10  C   UNK N   1      31.800  16.035   6.952  0.00  0.00     0.030 C 
HETATM   11  C   UNK N   1      30.734  16.501   6.192  0.00  0.00     0.019 C 
BRANCH   9  12
HETATM   12  N   UNK N   1      32.693  15.829   9.200  0.00  0.00    -0.384 N 
HETATM   13  H   UNK N   1      32.333  14.957   9.486  0.00  0.00     0.160 HD
BRANCH  12  14
HETATM   14  C   UNK N   1      33.903  16.348   9.775  0.00  0.00     0.178 C 
BRANCH  14  15
HETATM   15  C   UNK N   1      34.794  15.223  10.032  0.00  0.00     0.043 A 
HETATM   16  C   UNK N   1      35.586  14.691   9.019  0.00  0.00     0.116 A 
HETATM   17  N   UNK N   1      36.322  13.575   9.275  0.00  0.00    -0.348 N 
HETATM   18  C   UNK N   1      36.275  12.983  10.499  0.00  0.00     0.139 A 
HETATM   19  H   UNK N   1      36.891  13.192   8.569  0.00  0.00     0.167 HD
HETATM   20  N   UNK N   1      36.965  11.843  10.745  0.00  0.00    -0.337 N 
HETATM   21  C   UNK N   1      35.494  13.546  11.514  0.00  0.00     0.146 A 
HETATM   22  C   UNK N   1      36.900  11.244  11.967  0.00  0.00     0.185 A 
ATOM     23  HN  UNK N   1      37.538  11.429  10.009  1.00  0.00     0.168 HD
HETATM   24  N   UNK N   1      36.152  11.788  12.966  0.00  0.00    -0.318 N 
HETATM   25  C   UNK N   1      35.443  12.941  12.761  0.00  0.00     0.277 A 
ATOM     26  HN  UNK N   1      36.119  11.332  13.878  1.00  0.00     0.169 HD
HETATM   27  O   UNK N   1      34.772  13.417  13.659  0.00  0.00    -0.266 OA
HETATM   28  N   UNK N   1      34.779  14.651  11.258  0.00  0.00    -0.350 N 
ATOM     29  HN  UNK N   1      34.214  15.067  11.999  1.00  0.00     0.166 HD
ENDBRANCH  14  15
ENDBRANCH  12  14
ENDBRANCH   9  12
ENDBRANCH   3   6
ENDBRANCH   1   2
BRANCH   1  30
HETATM   30  C   UNK N   1      26.459  19.674   4.203  0.00  0.00     0.045 C 
BRANCH  30  31
HETATM   31  C   UNK N   1      24.934  19.817   4.057  0.00  0.00     0.105 C 
BRANCH  31  32
HETATM   32  C   UNK N   1      24.334  20.490   2.842  0.00  0.00     0.217 C 
HETATM   33  O   UNK N   1      25.108  20.955   2.020  0.00  0.00    -0.274 OA
HETATM   34  N   UNK N   1      23.000  20.622   2.617  0.00  0.00    -0.359 N 
HETATM   35  H   UNK N   1      22.727  21.161   1.839  0.00  0.00     0.162 HD
BRANCH  34  36
HETATM   36  C   UNK N   1      21.949  20.041   3.417  0.00  0.00     0.156 C 
BRANCH  36  37
HETATM   37  C   UNK N   1      20.678  19.696   2.639  0.00  0.00     0.185 C 
BRANCH  37  38
HETATM   38  C   UNK N   1      20.013  18.382   2.898  0.00  0.00     0.242 C 
HETATM   39  O   UNK N   1      18.802  18.349   3.027  0.00  0.00    -0.271 OA
HETATM   40  N   UNK N   1      20.740  17.238   2.803  0.00  0.00    -0.345 N 
HETATM   41  H   UNK N   1      21.716  17.299   2.915  0.00  0.00     0.163 HD
BRANCH  40  42
HETATM   42  C   UNK N   1      20.169  15.934   2.550  0.00  0.00     0.186 C 
BRANCH  42  43
HETATM   43  C   UNK N   1      20.031  15.455   1.093  0.00  0.00     0.144 C 
BRANCH  43  44
HETATM   44  C   UNK N   1      19.554  16.469   0.096  0.00  0.00     0.141 C 
HETATM   45  O   UNK N   1      20.327  17.317  -0.316  0.00  0.00    -0.650 OA
BRANCH  44  46
HETATM   46  O   UNK N   1      18.273  16.480  -0.316  0.00  0.00    -0.776 OA
HETATM   47  H   UNK N   1      17.707  15.772  -0.554  0.00  0.00     0.167 HD
ENDBRANCH  44  46
ENDBRANCH  43  44
ENDBRANCH  42  43
BRANCH  42  48
HETATM   48  C   UNK N   1      20.549  14.978   3.644  0.00  0.00     0.241 C 
HETATM   49  O   UNK N   1      20.024  13.875   3.657  0.00  0.00    -0.271 OA
HETATM   50  N   UNK N   1      21.367  15.375   4.655  0.00  0.00    -0.344 N 
HETATM   51  H   UNK N   1      21.768  16.271   4.578  0.00  0.00     0.163 HD
BRANCH  50  52
HETATM   52  C   UNK N   1      21.707  14.602   5.844  0.00  0.00     0.191 C 
BRANCH  52  53
HETATM   53  C   UNK N   1      22.620  13.436   5.495  0.00  0.00     0.106 C 
BRANCH  53  54
HETATM   54  S   UNK N   1      23.878  13.228   6.789  0.00  0.00    -0.180 SA
HETATM   55  H   UNK N   1      24.250  12.040   7.338  0.00  0.00     0.101 HD
ENDBRANCH  53  54
ENDBRANCH  52  53
BRANCH  52  56
HETATM   56  C   UNK N   1      20.527  14.220   6.706  0.00  0.00     0.164 C 
HETATM   57  O   UNK N   1      20.240  13.047   6.888  0.00  0.00    -0.648 OA
BRANCH  56  58
HETATM   58  O   UNK N   1      19.789  15.184   7.288  0.00  0.00    -0.775 OA
HETATM   59  H   UNK N   1      19.889  15.539   8.150  0.00  0.00     0.167 HD
ENDBRANCH  56  58
ENDBRANCH  52  56
ENDBRANCH  50  52
ENDBRANCH  42  48
ENDBRANCH  40  42
ENDBRANCH  37  38
BRANCH  37  60
HETATM   60  N   UNK N   1      20.805  19.967   1.216  0.00  0.00    -0.417 N 
HETATM   61  H   UNK N   1      20.385  20.611   0.546  0.00  0.00     0.150 HD
HETATM   62  H   UNK N   1      21.492  19.356   0.774  0.00  0.00     0.150 HD
ENDBRANCH  37  60
ENDBRANCH  36  37
ENDBRANCH  34  36
ENDBRANCH  31  32
ENDBRANCH  30  31
ENDBRANCH   1  30
BRANCH   1  63
HETATM   63  C   UNK N   1      26.962  20.554   6.495  0.00  0.00     0.163 C 
HETATM   64  O   UNK N   1      27.521  21.576   6.123  0.00  0.00    -0.648 OA
BRANCH  63  65
HETATM   65  O   UNK N   1      26.331  20.546   7.683  0.00  0.00    -0.775 OA
HETATM   66  H   UNK N   1      26.518  21.162   8.363  0.00  0.00     0.167 HD
ENDBRANCH  63  65
ENDBRANCH   1  63
TORSDOF 24
ENDMDL
MODEL 7
REMARK VINA RESULT:      -7.9      2.947      3.909
REMARK  24 active torsions:
REMARK  status: ('A' for Active; 'I' for Inactive)
REMARK    1  A    between atoms: C_3  and  N_39 
REMARK    2  A    between atoms: C_6  and  C_7 
REMARK       I    between atoms: C_7  and  N_9 
REMARK    3  A    between atoms: C_10  and  N_9 
REMARK    4  A    between atoms: C_10  and  C_11 
REMARK    5  A    between atoms: C_10  and  C_36 
REMARK    6  A    between atoms: C_11  and  C_12 
REMARK    7  A    between atoms: C_12  and  C_13 
REMARK       I    between atoms: C_13  and  N_15 
REMARK    8  A    between atoms: N_15  and  C_16 
REMARK    9  A    between atoms: C_16  and  C_17 
REMARK   10  A    between atoms: C_17  and  C_18 
REMARK   11  A    between atoms: C_17  and  N_35 
REMARK       I    between atoms: C_18  and  N_20 
REMARK   12  A    between atoms: C_21  and  N_20 
REMARK   13  A    between atoms: C_21  and  C_22 
REMARK   14  A    between atoms: C_21  and  C_26 
REMARK   15  A    between atoms: C_22  and  C_23 
REMARK   16  A    between atoms: C_23  and  O_25 
REMARK       I    between atoms: C_26  and  N_28 
REMARK   17  A    between atoms: C_29  and  N_28 
REMARK   18  A    between atoms: C_29  and  C_30 
REMARK   19  A    between atoms: C_29  and  C_32 
REMARK   20  A    between atoms: C_30  and  S_31 
REMARK   21  A    between atoms: C_32  and  O_34 
REMARK   22  A    between atoms: C_36  and  O_38 
REMARK   23  A    between atoms: N_39  and  C_40 
REMARK   24  A    between atoms: C_40  and  C_41 
ROOT
HETATM    1  C   UNK N   1      27.515  17.967   4.434  0.00  0.00     0.183 C 
ENDROOT
BRANCH   1   2
HETATM    2  N   UNK N   1      28.890  17.957   3.980  0.00  0.00    -0.343 N 
HETATM    3  C   UNK N   1      29.412  16.793   3.545  0.00  0.00     0.252 C 
HETATM    4  O   UNK N   1      28.677  15.846   3.284  0.00  0.00    -0.268 OA
HETATM    5  H   UNK N   1      29.432  18.779   3.990  0.00  0.00     0.163 HD
BRANCH   3   6
HETATM    6  C   UNK N   1      30.803  16.511   3.725  0.00  0.00     0.032 C 
HETATM    7  C   UNK N   1      31.629  17.632   3.790  0.00  0.00     0.019 C 
HETATM    8  C   UNK N   1      32.877  17.545   4.338  0.00  0.00     0.030 C 
HETATM    9  C   UNK N   1      33.278  16.342   4.873  0.00  0.00     0.028 C 
HETATM   10  C   UNK N   1      32.507  15.172   4.702  0.00  0.00     0.030 C 
HETATM   11  C   UNK N   1      31.260  15.251   4.092  0.00  0.00     0.019 C 
BRANCH   9  12
HETATM   12  N   UNK N   1      34.211  16.417   5.901  0.00  0.00    -0.384 N 
HETATM   13  H   UNK N   1      34.939  15.757   5.969  0.00  0.00     0.160 HD
BRANCH  12  14
HETATM   14  C   UNK N   1      34.091  17.479   6.862  0.00  0.00     0.178 C 
BRANCH  14  15
HETATM   15  C   UNK N   1      33.227  17.011   7.939  0.00  0.00     0.043 A 
HETATM   16  C   UNK N   1      33.589  15.922   8.726  0.00  0.00     0.116 A 
HETATM   17  N   UNK N   1      32.706  15.453   9.649  0.00  0.00    -0.348 N 
HETATM   18  C   UNK N   1      31.484  16.034   9.792  0.00  0.00     0.139 A 
HETATM   19  H   UNK N   1      32.952  14.687  10.216  0.00  0.00     0.167 HD
HETATM   20  N   UNK N   1      30.580  15.540  10.674  0.00  0.00    -0.337 N 
HETATM   21  C   UNK N   1      31.146  17.144   9.012  0.00  0.00     0.146 A 
HETATM   22  C   UNK N   1      29.351  16.115  10.801  0.00  0.00     0.185 A 
ATOM     23  HN  UNK N   1      30.822  14.732  11.247  1.00  0.00     0.168 HD
HETATM   24  N   UNK N   1      29.015  17.202  10.054  0.00  0.00    -0.318 N 
HETATM   25  C   UNK N   1      29.899  17.735   9.156  0.00  0.00     0.277 A 
ATOM     26  HN  UNK N   1      28.093  17.625  10.165  1.00  0.00     0.169 HD
HETATM   27  O   UNK N   1      29.587  18.705   8.488  0.00  0.00    -0.266 OA
HETATM   28  N   UNK N   1      32.025  17.607   8.111  0.00  0.00    -0.350 N 
ATOM     29  HN  UNK N   1      31.783  18.422   7.545  1.00  0.00     0.166 HD
ENDBRANCH  14  15
ENDBRANCH  12  14
ENDBRANCH   9  12
ENDBRANCH   3   6
ENDBRANCH   1   2
BRANCH   1  30
HETATM   30  C   UNK N   1      26.853  19.282   3.943  0.00  0.00     0.045 C 
BRANCH  30  31
HETATM   31  C   UNK N   1      25.379  19.155   3.518  0.00  0.00     0.105 C 
BRANCH  31  32
HETATM   32  C   UNK N   1      24.699  20.262   2.744  0.00  0.00     0.217 C 
HETATM   33  O   UNK N   1      25.405  20.972   2.045  0.00  0.00    -0.274 OA
HETATM   34  N   UNK N   1      23.366  20.525   2.788  0.00  0.00    -0.359 N 
HETATM   35  H   UNK N   1      23.051  21.330   2.316  0.00  0.00     0.162 HD
BRANCH  34  36
HETATM   36  C   UNK N   1      22.373  19.727   3.467  0.00  0.00     0.156 C 
BRANCH  36  37
HETATM   37  C   UNK N   1      20.962  19.848   2.889  0.00  0.00     0.185 C 
BRANCH  37  38
HETATM   38  C   UNK N   1      20.042  18.674   2.992  0.00  0.00     0.242 C 
HETATM   39  O   UNK N   1      18.861  18.826   2.730  0.00  0.00    -0.271 OA
HETATM   40  N   UNK N   1      20.562  17.436   3.196  0.00  0.00    -0.345 N 
HETATM   41  H   UNK N   1      21.453  17.371   3.610  0.00  0.00     0.163 HD
BRANCH  40  42
HETATM   42  C   UNK N   1      19.888  16.206   2.844  0.00  0.00     0.186 C 
BRANCH  42  43
HETATM   43  C   UNK N   1      20.107  15.617   1.438  0.00  0.00     0.144 C 
BRANCH  43  44
HETATM   44  C   UNK N   1      19.643  16.450   0.281  0.00  0.00     0.141 C 
HETATM   45  O   UNK N   1      18.739  16.043  -0.429  0.00  0.00    -0.650 OA
BRANCH  44  46
HETATM   46  O   UNK N   1      20.241  17.620  -0.010  0.00  0.00    -0.776 OA
HETATM   47  H   UNK N   1      20.796  17.853  -0.728  0.00  0.00     0.167 HD
ENDBRANCH  44  46
ENDBRANCH  43  44
ENDBRANCH  42  43
BRANCH  42  48
HETATM   48  C   UNK N   1      19.773  15.313   4.046  0.00  0.00     0.241 C 
HETATM   49  O   UNK N   1      18.781  14.608   4.150  0.00  0.00    -0.271 OA
HETATM   50  N   UNK N   1      20.694  15.377   5.045  0.00  0.00    -0.344 N 
HETATM   51  H   UNK N   1      21.476  15.955   4.892  0.00  0.00     0.163 HD
BRANCH  50  52
HETATM   52  C   UNK N   1      20.633  14.673   6.321  0.00  0.00     0.191 C 
BRANCH  52  53
HETATM   53  C   UNK N   1      21.078  15.575   7.463  0.00  0.00     0.106 C 
BRANCH  53  54
HETATM   54  S   UNK N   1      20.355  14.995   9.025  0.00  0.00    -0.180 SA
HETATM   55  H   UNK N   1      19.973  15.794  10.058  0.00  0.00     0.101 HD
ENDBRANCH  53  54
ENDBRANCH  52  53
BRANCH  52  56
HETATM   56  C   UNK N   1      21.290  13.314   6.321  0.00  0.00     0.164 C 
HETATM   57  O   UNK N   1      22.454  13.181   5.976  0.00  0.00    -0.648 OA
BRANCH  56  58
HETATM   58  O   UNK N   1      20.588  12.235   6.717  0.00  0.00    -0.775 OA
HETATM   59  H   UNK N   1      19.833  11.862   6.305  0.00  0.00     0.167 HD
ENDBRANCH  56  58
ENDBRANCH  52  56
ENDBRANCH  50  52
ENDBRANCH  42  48
ENDBRANCH  40  42
ENDBRANCH  37  38
BRANCH  37  60
HETATM   60  N   UNK N   1      20.954  20.427   1.555  0.00  0.00    -0.417 N 
HETATM   61  H   UNK N   1      20.636  21.297   1.129  0.00  0.00     0.150 HD
HETATM   62  H   UNK N   1      21.376  19.801   0.868  0.00  0.00     0.150 HD
ENDBRANCH  37  60
ENDBRANCH  36  37
ENDBRANCH  34  36
ENDBRANCH  31  32
ENDBRANCH  30  31
ENDBRANCH   1  30
BRANCH   1  63
HETATM   63  C   UNK N   1      27.393  17.868   5.940  0.00  0.00     0.163 C 
HETATM   64  O   UNK N   1      27.361  16.782   6.499  0.00  0.00    -0.648 OA
BRANCH  63  65
HETATM   65  O   UNK N   1      27.338  18.991   6.681  0.00  0.00    -0.775 OA
HETATM   66  H   UNK N   1      27.858  19.747   6.497  0.00  0.00     0.167 HD
ENDBRANCH  63  65
ENDBRANCH   1  63
TORSDOF 24
ENDMDL
MODEL 8
REMARK VINA RESULT:      -7.9      3.759      7.263
REMARK  24 active torsions:
REMARK  status: ('A' for Active; 'I' for Inactive)
REMARK    1  A    between atoms: C_3  and  N_39 
REMARK    2  A    between atoms: C_6  and  C_7 
REMARK       I    between atoms: C_7  and  N_9 
REMARK    3  A    between atoms: C_10  and  N_9 
REMARK    4  A    between atoms: C_10  and  C_11 
REMARK    5  A    between atoms: C_10  and  C_36 
REMARK    6  A    between atoms: C_11  and  C_12 
REMARK    7  A    between atoms: C_12  and  C_13 
REMARK       I    between atoms: C_13  and  N_15 
REMARK    8  A    between atoms: N_15  and  C_16 
REMARK    9  A    between atoms: C_16  and  C_17 
REMARK   10  A    between atoms: C_17  and  C_18 
REMARK   11  A    between atoms: C_17  and  N_35 
REMARK       I    between atoms: C_18  and  N_20 
REMARK   12  A    between atoms: C_21  and  N_20 
REMARK   13  A    between atoms: C_21  and  C_22 
REMARK   14  A    between atoms: C_21  and  C_26 
REMARK   15  A    between atoms: C_22  and  C_23 
REMARK   16  A    between atoms: C_23  and  O_25 
REMARK       I    between atoms: C_26  and  N_28 
REMARK   17  A    between atoms: C_29  and  N_28 
REMARK   18  A    between atoms: C_29  and  C_30 
REMARK   19  A    between atoms: C_29  and  C_32 
REMARK   20  A    between atoms: C_30  and  S_31 
REMARK   21  A    between atoms: C_32  and  O_34 
REMARK   22  A    between atoms: C_36  and  O_38 
REMARK   23  A    between atoms: N_39  and  C_40 
REMARK   24  A    between atoms: C_40  and  C_41 
ROOT
HETATM    1  C   UNK N   1      34.091  17.426   8.214  0.00  0.00     0.183 C 
ENDROOT
BRANCH   1   2
HETATM    2  N   UNK N   1      34.152  16.365   9.198  0.00  0.00    -0.343 N 
HETATM    3  C   UNK N   1      35.038  16.478  10.207  0.00  0.00     0.252 C 
HETATM    4  O   UNK N   1      35.574  17.557  10.439  0.00  0.00    -0.268 OA
HETATM    5  H   UNK N   1      33.562  15.579   9.131  0.00  0.00     0.163 HD
BRANCH   3   6
HETATM    6  C   UNK N   1      35.640  15.312  10.776  0.00  0.00     0.032 C 
HETATM    7  C   UNK N   1      36.010  15.432  12.115  0.00  0.00     0.019 C 
HETATM    8  C   UNK N   1      36.222  14.321  12.879  0.00  0.00     0.030 C 
HETATM    9  C   UNK N   1      36.010  13.083  12.315  0.00  0.00     0.028 C 
HETATM   10  C   UNK N   1      35.760  12.943  10.932  0.00  0.00     0.030 C 
HETATM   11  C   UNK N   1      35.601  14.076  10.142  0.00  0.00     0.019 C 
BRANCH   9  12
HETATM   12  N   UNK N   1      35.645  12.071  13.195  0.00  0.00    -0.384 N 
HETATM   13  H   UNK N   1      36.175  11.243  13.256  0.00  0.00     0.160 HD
BRANCH  12  14
HETATM   14  C   UNK N   1      34.479  12.258  14.013  0.00  0.00     0.178 C 
BRANCH  14  15
HETATM   15  C   UNK N   1      34.789  11.773  15.352  0.00  0.00     0.043 A 
HETATM   16  C   UNK N   1      34.814  10.410  15.632  0.00  0.00     0.116 A 
HETATM   17  N   UNK N   1      35.002  10.005  16.917  0.00  0.00    -0.348 N 
HETATM   18  C   UNK N   1      35.153  10.918  17.914  0.00  0.00     0.139 A 
HETATM   19  H   UNK N   1      35.028   9.043  17.128  0.00  0.00     0.167 HD
HETATM   20  N   UNK N   1      35.290  10.522  19.203  0.00  0.00    -0.337 N 
HETATM   21  C   UNK N   1      35.152  12.284  17.612  0.00  0.00     0.146 A 
HETATM   22  C   UNK N   1      35.423  11.442  20.200  0.00  0.00     0.185 A 
ATOM     23  HN  UNK N   1      35.294   9.528  19.430  1.00  0.00     0.168 HD
HETATM   24  N   UNK N   1      35.434  12.774  19.916  0.00  0.00    -0.318 N 
HETATM   25  C   UNK N   1      35.304  13.216  18.628  0.00  0.00     0.277 A 
ATOM     26  HN  UNK N   1      35.542  13.450  20.673  1.00  0.00     0.169 HD
HETATM   27  O   UNK N   1      35.309  14.409  18.384  0.00  0.00    -0.266 OA
HETATM   28  N   UNK N   1      34.976  12.676  16.341  0.00  0.00    -0.350 N 
ATOM     29  HN  UNK N   1      34.982  13.672  16.117  1.00  0.00     0.166 HD
ENDBRANCH  14  15
ENDBRANCH  12  14
ENDBRANCH   9  12
ENDBRANCH   3   6
ENDBRANCH   1   2
BRANCH   1  30
HETATM   30  C   UNK N   1      32.635  17.963   8.171  0.00  0.00     0.045 C 
BRANCH  30  31
HETATM   31  C   UNK N   1      31.540  16.905   8.397  0.00  0.00     0.105 C 
BRANCH  31  32
HETATM   32  C   UNK N   1      31.270  15.837   7.361  0.00  0.00     0.217 C 
HETATM   33  O   UNK N   1      31.907  14.799   7.449  0.00  0.00    -0.274 OA
HETATM   34  N   UNK N   1      30.384  15.964   6.339  0.00  0.00    -0.359 N 
HETATM   35  H   UNK N   1      30.361  15.240   5.671  0.00  0.00     0.162 HD
BRANCH  34  36
HETATM   36  C   UNK N   1      29.473  17.066   6.146  0.00  0.00     0.156 C 
BRANCH  36  37
HETATM   37  C   UNK N   1      28.140  16.922   6.883  0.00  0.00     0.185 C 
BRANCH  37  38
HETATM   38  C   UNK N   1      27.106  15.999   6.322  0.00  0.00     0.242 C 
HETATM   39  O   UNK N   1      27.463  15.074   5.613  0.00  0.00    -0.271 OA
HETATM   40  N   UNK N   1      25.822  16.096   6.756  0.00  0.00    -0.345 N 
HETATM   41  H   UNK N   1      25.527  16.953   7.139  0.00  0.00     0.163 HD
BRANCH  40  42
HETATM   42  C   UNK N   1      24.860  15.018   6.687  0.00  0.00     0.186 C 
BRANCH  42  43
HETATM   43  C   UNK N   1      24.767  14.032   7.866  0.00  0.00     0.144 C 
BRANCH  43  44
HETATM   44  C   UNK N   1      24.650  12.578   7.518  0.00  0.00     0.141 C 
HETATM   45  O   UNK N   1      24.974  12.199   6.406  0.00  0.00    -0.650 OA
BRANCH  44  46
HETATM   46  O   UNK N   1      24.149  11.696   8.402  0.00  0.00    -0.776 OA
HETATM   47  H   UNK N   1      24.516  11.362   9.197  0.00  0.00     0.167 HD
ENDBRANCH  44  46
ENDBRANCH  43  44
ENDBRANCH  42  43
BRANCH  42  48
HETATM   48  C   UNK N   1      23.627  15.466   5.955  0.00  0.00     0.241 C 
HETATM   49  O   UNK N   1      23.048  14.657   5.247  0.00  0.00    -0.271 OA
HETATM   50  N   UNK N   1      23.237  16.769   5.991  0.00  0.00    -0.344 N 
HETATM   51  H   UNK N   1      23.739  17.367   6.592  0.00  0.00     0.163 HD
BRANCH  50  52
HETATM   52  C   UNK N   1      22.150  17.365   5.225  0.00  0.00     0.191 C 
BRANCH  52  53
HETATM   53  C   UNK N   1      22.610  17.740   3.824  0.00  0.00     0.106 C 
BRANCH  53  54
HETATM   54  S   UNK N   1      24.206  18.603   3.909  0.00  0.00    -0.180 SA
HETATM   55  H   UNK N   1      25.161  18.397   4.856  0.00  0.00     0.101 HD
ENDBRANCH  53  54
ENDBRANCH  52  53
BRANCH  52  56
HETATM   56  C   UNK N   1      21.406  18.467   5.941  0.00  0.00     0.164 C 
HETATM   57  O   UNK N   1      21.187  18.397   7.141  0.00  0.00    -0.648 OA
BRANCH  56  58
HETATM   58  O   UNK N   1      20.989  19.546   5.252  0.00  0.00    -0.775 OA
HETATM   59  H   UNK N   1      20.141  19.945   5.273  0.00  0.00     0.167 HD
ENDBRANCH  56  58
ENDBRANCH  52  56
ENDBRANCH  50  52
ENDBRANCH  42  48
ENDBRANCH  40  42
ENDBRANCH  37  38
BRANCH  37  60
HETATM   60  N   UNK N   1      27.570  18.206   7.262  0.00  0.00    -0.417 N 
HETATM   61  H   UNK N   1      27.185  18.622   8.109  0.00  0.00     0.150 HD
HETATM   62  H   UNK N   1      27.553  18.858   6.478  0.00  0.00     0.150 HD
ENDBRANCH  37  60
ENDBRANCH  36  37
ENDBRANCH  34  36
ENDBRANCH  31  32
ENDBRANCH  30  31
ENDBRANCH   1  30
BRANCH   1  63
HETATM   63  C   UNK N   1      34.504  16.968   6.831  0.00  0.00     0.163 C 
HETATM   64  O   UNK N   1      34.189  17.606   5.837  0.00  0.00    -0.648 OA
BRANCH  63  65
HETATM   65  O   UNK N   1      35.245  15.854   6.688  0.00  0.00    -0.775 OA
HETATM   66  H   UNK N   1      35.750  15.674   5.920  0.00  0.00     0.167 HD
ENDBRANCH  63  65
ENDBRANCH   1  63
TORSDOF 24
ENDMDL
MODEL 9
REMARK VINA RESULT:      -7.8      2.714      4.020
REMARK  24 active torsions:
REMARK  status: ('A' for Active; 'I' for Inactive)
REMARK    1  A    between atoms: C_3  and  N_39 
REMARK    2  A    between atoms: C_6  and  C_7 
REMARK       I    between atoms: C_7  and  N_9 
REMARK    3  A    between atoms: C_10  and  N_9 
REMARK    4  A    between atoms: C_10  and  C_11 
REMARK    5  A    between atoms: C_10  and  C_36 
REMARK    6  A    between atoms: C_11  and  C_12 
REMARK    7  A    between atoms: C_12  and  C_13 
REMARK       I    between atoms: C_13  and  N_15 
REMARK    8  A    between atoms: N_15  and  C_16 
REMARK    9  A    between atoms: C_16  and  C_17 
REMARK   10  A    between atoms: C_17  and  C_18 
REMARK   11  A    between atoms: C_17  and  N_35 
REMARK       I    between atoms: C_18  and  N_20 
REMARK   12  A    between atoms: C_21  and  N_20 
REMARK   13  A    between atoms: C_21  and  C_22 
REMARK   14  A    between atoms: C_21  and  C_26 
REMARK   15  A    between atoms: C_22  and  C_23 
REMARK   16  A    between atoms: C_23  and  O_25 
REMARK       I    between atoms: C_26  and  N_28 
REMARK   17  A    between atoms: C_29  and  N_28 
REMARK   18  A    between atoms: C_29  and  C_30 
REMARK   19  A    between atoms: C_29  and  C_32 
REMARK   20  A    between atoms: C_30  and  S_31 
REMARK   21  A    between atoms: C_32  and  O_34 
REMARK   22  A    between atoms: C_36  and  O_38 
REMARK   23  A    between atoms: N_39  and  C_40 
REMARK   24  A    between atoms: C_40  and  C_41 
ROOT
HETATM    1  C   UNK N   1      26.258  17.575   4.307  0.00  0.00     0.183 C 
ENDROOT
BRANCH   1   2
HETATM    2  N   UNK N   1      27.514  18.100   4.799  0.00  0.00    -0.343 N 
HETATM    3  C   UNK N   1      28.658  17.630   4.265  0.00  0.00     0.252 C 
HETATM    4  O   UNK N   1      28.633  16.989   3.219  0.00  0.00    -0.268 OA
HETATM    5  H   UNK N   1      27.532  18.785   5.507  0.00  0.00     0.163 HD
BRANCH   3   6
HETATM    6  C   UNK N   1      29.844  17.540   5.059  0.00  0.00     0.032 C 
HETATM    7  C   UNK N   1      29.643  17.126   6.375  0.00  0.00     0.019 C 
HETATM    8  C   UNK N   1      30.678  16.627   7.112  0.00  0.00     0.030 C 
HETATM    9  C   UNK N   1      31.909  16.490   6.511  0.00  0.00     0.028 C 
HETATM   10  C   UNK N   1      32.158  17.020   5.226  0.00  0.00     0.030 C 
HETATM   11  C   UNK N   1      31.115  17.581   4.498  0.00  0.00     0.019 C 
BRANCH   9  12
HETATM   12  N   UNK N   1      32.723  15.485   7.020  0.00  0.00    -0.384 N 
HETATM   13  H   UNK N   1      32.382  14.567   7.127  0.00  0.00     0.160 HD
BRANCH  12  14
HETATM   14  C   UNK N   1      34.074  15.813   7.386  0.00  0.00     0.178 C 
BRANCH  14  15
HETATM   15  C   UNK N   1      34.323  15.264   8.713  0.00  0.00     0.043 A 
HETATM   16  C   UNK N   1      33.331  15.271   9.689  0.00  0.00     0.116 A 
HETATM   17  N   UNK N   1      33.640  14.847  10.945  0.00  0.00    -0.348 N 
HETATM   18  C   UNK N   1      34.902  14.434  11.244  0.00  0.00     0.139 A 
HETATM   19  H   UNK N   1      32.946  14.841  11.643  0.00  0.00     0.167 HD
HETATM   20  N   UNK N   1      35.229  14.059  12.504  0.00  0.00    -0.337 N 
HETATM   21  C   UNK N   1      35.880  14.408  10.244  0.00  0.00     0.146 A 
HETATM   22  C   UNK N   1      36.498  13.663  12.802  0.00  0.00     0.185 A 
ATOM     23  HN  UNK N   1      34.519  14.073  13.237  1.00  0.00     0.168 HD
HETATM   24  N   UNK N   1      37.456  13.624  11.835  0.00  0.00    -0.318 N 
HETATM   25  C   UNK N   1      37.167  13.990  10.548  0.00  0.00     0.277 A 
ATOM     26  HN  UNK N   1      38.400  13.318  12.072  1.00  0.00     0.169 HD
HETATM   27  O   UNK N   1      38.032  13.957   9.691  0.00  0.00    -0.266 OA
HETATM   28  N   UNK N   1      35.566  14.818   9.006  0.00  0.00    -0.350 N 
ATOM     29  HN  UNK N   1      36.277  14.794   8.274  1.00  0.00     0.166 HD
ENDBRANCH  14  15
ENDBRANCH  12  14
ENDBRANCH   9  12
ENDBRANCH   3   6
ENDBRANCH   1   2
BRANCH   1  30
HETATM   30  C   UNK N   1      25.166  18.658   4.512  0.00  0.00     0.045 C 
BRANCH  30  31
HETATM   31  C   UNK N   1      24.532  19.203   3.219  0.00  0.00     0.105 C 
BRANCH  31  32
HETATM   32  C   UNK N   1      23.242  19.991   3.262  0.00  0.00     0.217 C 
HETATM   33  O   UNK N   1      23.308  21.186   3.022  0.00  0.00    -0.274 OA
HETATM   34  N   UNK N   1      22.027  19.462   3.564  0.00  0.00    -0.359 N 
HETATM   35  H   UNK N   1      21.273  20.089   3.654  0.00  0.00     0.162 HD
BRANCH  34  36
HETATM   36  C   UNK N   1      21.746  18.060   3.764  0.00  0.00     0.156 C 
BRANCH  36  37
HETATM   37  C   UNK N   1      20.552  17.779   4.679  0.00  0.00     0.185 C 
BRANCH  37  38
HETATM   38  C   UNK N   1      20.805  17.514   6.128  0.00  0.00     0.242 C 
HETATM   39  O   UNK N   1      21.476  18.307   6.765  0.00  0.00    -0.271 OA
HETATM   40  N   UNK N   1      20.140  16.502   6.745  0.00  0.00    -0.345 N 
HETATM   41  H   UNK N   1      19.793  15.769   6.188  0.00  0.00     0.163 HD
BRANCH  40  42
HETATM   42  C   UNK N   1      19.912  16.434   8.171  0.00  0.00     0.186 C 
BRANCH  42  43
HETATM   43  C   UNK N   1      18.799  17.303   8.786  0.00  0.00     0.144 C 
BRANCH  43  44
HETATM   44  C   UNK N   1      19.239  18.522   9.540  0.00  0.00     0.141 C 
HETATM   45  O   UNK N   1      18.667  18.831  10.571  0.00  0.00    -0.650 OA
BRANCH  44  46
HETATM   46  O   UNK N   1      20.227  19.305   9.069  0.00  0.00    -0.776 OA
HETATM   47  H   UNK N   1      21.033  19.075   8.648  0.00  0.00     0.167 HD
ENDBRANCH  44  46
ENDBRANCH  43  44
ENDBRANCH  42  43
BRANCH  42  48
HETATM   48  C   UNK N   1      20.173  15.043   8.674  0.00  0.00     0.241 C 
HETATM   49  O   UNK N   1      19.419  14.581   9.517  0.00  0.00    -0.271 OA
HETATM   50  N   UNK N   1      21.285  14.365   8.285  0.00  0.00    -0.344 N 
HETATM   51  H   UNK N   1      21.845  14.787   7.593  0.00  0.00     0.163 HD
BRANCH  50  52
HETATM   52  C   UNK N   1      21.732  13.073   8.795  0.00  0.00     0.191 C 
BRANCH  52  53
HETATM   53  C   UNK N   1      22.893  13.241   9.764  0.00  0.00     0.106 C 
BRANCH  53  54
HETATM   54  S   UNK N   1      22.627  12.203  11.230  0.00  0.00    -0.180 SA
HETATM   55  H   UNK N   1      22.912  12.565  12.511  0.00  0.00     0.101 HD
ENDBRANCH  53  54
ENDBRANCH  52  53
BRANCH  52  56
HETATM   56  C   UNK N   1      21.964  12.025   7.734  0.00  0.00     0.164 C 
HETATM   57  O   UNK N   1      23.049  11.475   7.624  0.00  0.00    -0.648 OA
BRANCH  56  58
HETATM   58  O   UNK N   1      20.960  11.683   6.904  0.00  0.00    -0.775 OA
HETATM   59  H   UNK N   1      20.935  11.770   5.971  0.00  0.00     0.167 HD
ENDBRANCH  56  58
ENDBRANCH  52  56
ENDBRANCH  50  52
ENDBRANCH  42  48
ENDBRANCH  40  42
ENDBRANCH  37  38
BRANCH  37  60
HETATM   60  N   UNK N   1      19.625  16.816   4.105  0.00  0.00    -0.417 N 
HETATM   61  H   UNK N   1      19.486  15.807   4.151  0.00  0.00     0.150 HD
HETATM   62  H   UNK N   1      18.937  17.266   3.501  0.00  0.00     0.150 HD
ENDBRANCH  37  60
ENDBRANCH  36  37
ENDBRANCH  34  36
ENDBRANCH  31  32
ENDBRANCH  30  31
ENDBRANCH   1  30
BRANCH   1  63
HETATM   63  C   UNK N   1      25.842  16.297   5.005  0.00  0.00     0.163 C 
HETATM   64  O   UNK N   1      25.788  16.236   6.224  0.00  0.00    -0.648 OA
BRANCH  63  65
HETATM   65  O   UNK N   1      25.509  15.215   4.277  0.00  0.00    -0.775 OA
HETATM   66  H   UNK N   1      26.015  14.426   4.278  0.00  0.00     0.167 HD
ENDBRANCH  63  65
ENDBRANCH   1  63
TORSDOF 24
ENDMDL
