REMARK  3 active torsions:
REMARK  status: ('A' for Active; 'I' for Inactive)
REMARK    1  A    between atoms: O_2  and  C_15 
REMARK    2  A    between atoms: O_3  and  C_18 
REMARK    3  A    between atoms: C_4  and  C_8 
ROOT
HETATM    1  O   UNK N   1      18.351  -2.515   0.006  0.00  0.00    -0.350 OA
HETATM    2  C   UNK N   1      17.109  -4.586  -0.342  0.00  0.00     0.047 C 
HETATM    3  C   UNK N   1      18.140  -5.283   0.539  0.00  0.00     0.052 C 
HETATM    4  C   UNK N   1      17.081  -3.086   0.019  0.00  0.00     0.185 C 
HETATM    5  C   UNK N   1      19.457  -4.614   0.364  0.00  0.00    -0.024 A 
HETATM    6  C   UNK N   1      19.500  -3.230   0.120  0.00  0.00     0.077 A 
HETATM    7  C   UNK N   1      20.638  -5.354   0.441  0.00  0.00     0.012 A 
HETATM    8  C   UNK N   1      20.737  -2.594  -0.029  0.00  0.00     0.073 A 
HETATM    9  C   UNK N   1      21.870  -4.716   0.281  0.00  0.00     0.037 A 
HETATM   10  C   UNK N   1      21.921  -3.337   0.052  0.00  0.00     0.068 A 
ENDROOT
BRANCH   2  11
HETATM   11  C   UNK N   1      15.777  -5.277  -0.218  0.00  0.00    -0.051 A 
HETATM   12  C   UNK N   1      14.620  -4.585   0.178  0.00  0.00     0.010 A 
HETATM   13  C   UNK N   1      13.403  -5.263   0.305  0.00  0.00     0.037 A 
HETATM   14  C   UNK N   1      13.336  -6.634   0.044  0.00  0.00     0.065 A 
HETATM   15  C   UNK N   1      14.480  -7.327  -0.359  0.00  0.00     0.037 A 
HETATM   16  C   UNK N   1      15.693  -6.650  -0.495  0.00  0.00     0.010 A 
BRANCH  14  17
HETATM   17  O   UNK N   1      12.172  -7.288   0.182  0.00  0.00    -0.361 OA
HETATM   18  H   UNK N   1      11.370  -6.812   0.279  0.00  0.00     0.217 HD
ENDBRANCH  14  17
ENDBRANCH   2  11
BRANCH  10  19
HETATM   19  O   UNK N   1      23.107  -2.727  -0.097  0.00  0.00    -0.361 OA
HETATM   20  H   UNK N   1      23.890  -3.232  -0.201  0.00  0.00     0.217 HD
ENDBRANCH  10  19
TORSDOF 3
