MODEL 1
REMARK VINA RESULT:      -7.5      0.000      0.000
REMARK  4 active torsions:
REMARK  status: ('A' for Active; 'I' for Inactive)
REMARK    1  A    between atoms: C_14  and  C_12 
REMARK    2  A    between atoms: C_18  and  C_13 
REMARK    3  A    between atoms: N_22  and  C_15 
REMARK    4  A    between atoms: N_29  and  C_16 
REMARK       I    between atoms: N_30  and  C_17 
ROOT
HETATM    1  C   UNK N   1      30.348  23.718  -3.543  0.00  0.00     0.167 C 
HETATM    2  C   UNK N   1      29.754  21.651  -4.888  0.00  0.00     0.167 C 
HETATM    3  C   UNK N   1      31.711  23.047  -3.408  0.00  0.00     0.188 C 
HETATM    4  C   UNK N   1      31.185  21.221  -4.558  0.00  0.00     0.188 C 
HETATM    5  C   UNK N   1      26.320  25.125  -6.220  0.00  0.00     0.080 A 
HETATM    6  C   UNK N   1      27.138  25.735  -5.258  0.00  0.00     0.065 A 
HETATM    7  C   UNK N   1      26.599  23.810  -6.620  0.00  0.00     0.121 A 
HETATM    8  C   UNK N   1      28.422  23.742  -5.108  0.00  0.00     0.682 A 
HETATM    9  N   UNK N   1      28.166  25.022  -4.737  0.00  0.00    -0.191 N 
ATOM     10  HN  UNK N   1      28.768  25.462  -4.040  1.00  0.00     0.184 HD
HETATM   11  N   UNK N   1      27.643  23.148  -6.052  0.00  0.00    -0.177 N 
ATOM     12  HN  UNK N   1      27.844  22.190  -6.337  1.00  0.00     0.186 HD
HETATM   13  N   UNK N   1      29.522  23.044  -4.536  0.00  0.00    -0.213 N 
HETATM   14  O   UNK N   1      31.535  21.665  -3.276  0.00  0.00    -0.388 OA
ENDROOT
BRANCH   6  15
HETATM   15  C   UNK N   1      26.896  27.152  -4.837  0.00  0.00     0.022 A 
HETATM   16  C   UNK N   1      26.145  27.371  -3.668  0.00  0.00     0.104 A 
HETATM   17  N   UNK N   1      25.877  28.627  -3.229  0.00  0.00    -0.352 N 
HETATM   18  C   UNK N   1      26.313  29.722  -3.900  0.00  0.00     0.099 A 
HETATM   19  H   UNK N   1      25.353  28.747  -2.402  0.00  0.00     0.166 HD
HETATM   20  C   UNK N   1      27.050  29.573  -5.068  0.00  0.00     0.065 A 
HETATM   21  C   UNK N   1      27.361  28.299  -5.560  0.00  0.00     0.065 A 
BRANCH  18  22
HETATM   22  N   UNK N   1      26.039  30.891  -3.464  0.00  0.00    -0.385 N 
HETATM   23  H   UNK N   1      26.040  31.069  -2.495  0.00  0.00     0.157 HD
ATOM     24  HN  UNK N   1      25.821  31.641  -4.119  1.00  0.00     0.157 HD
ENDBRANCH  18  22
BRANCH  21  25
HETATM   25  C   UNK N   1      28.146  28.225  -6.853  0.00  0.00     0.418 C 
HETATM   26  F   UNK N   1      29.308  27.499  -6.667  0.00  0.00    -0.166 F 
HETATM   27  F   UNK N   1      27.373  27.649  -7.846  0.00  0.00    -0.166 F 
HETATM   28  F   UNK N   1      28.510  29.489  -7.289  0.00  0.00    -0.166 F 
ENDBRANCH  21  25
ENDBRANCH   6  15
BRANCH   7  29
HETATM   29  N   UNK N   1      25.832  23.179  -7.641  0.00  0.00    -0.363 N 
HETATM   30  C   UNK N   1      25.739  23.765  -8.960  0.00  0.00     0.150 C 
HETATM   31  C   UNK N   1      26.118  22.685  -9.974  0.00  0.00     0.187 C 
HETATM   32  O   UNK N   1      25.274  21.568  -9.804  0.00  0.00    -0.388 OA
HETATM   33  C   UNK N   1      25.616  20.974  -8.571  0.00  0.00     0.187 C 
HETATM   34  C   UNK N   1      25.195  21.898  -7.426  0.00  0.00     0.150 C 
ENDBRANCH   7  29
TORSDOF 4
ENDMDL
MODEL 2
REMARK VINA RESULT:      -7.3     13.431     15.801
REMARK  4 active torsions:
REMARK  status: ('A' for Active; 'I' for Inactive)
REMARK    1  A    between atoms: C_14  and  C_12 
REMARK    2  A    between atoms: C_18  and  C_13 
REMARK    3  A    between atoms: N_22  and  C_15 
REMARK    4  A    between atoms: N_29  and  C_16 
REMARK       I    between atoms: N_30  and  C_17 
ROOT
HETATM    1  C   UNK N   1      26.622  19.819   3.692  0.00  0.00     0.167 C 
HETATM    2  C   UNK N   1      24.285  18.836   3.610  0.00  0.00     0.167 C 
HETATM    3  C   UNK N   1      25.944  21.074   3.151  0.00  0.00     0.188 C 
HETATM    4  C   UNK N   1      23.903  20.207   3.048  0.00  0.00     0.188 C 
HETATM    5  C   UNK N   1      26.853  15.873   6.814  0.00  0.00     0.080 A 
HETATM    6  C   UNK N   1      27.765  16.835   6.358  0.00  0.00     0.065 A 
HETATM    7  C   UNK N   1      25.523  15.926   6.371  0.00  0.00     0.121 A 
HETATM    8  C   UNK N   1      26.048  17.817   5.042  0.00  0.00     0.682 A 
HETATM    9  N   UNK N   1      27.329  17.778   5.488  0.00  0.00    -0.191 N 
ATOM     10  HN  UNK N   1      27.987  18.484   5.156  1.00  0.00     0.184 HD
HETATM   11  N   UNK N   1      25.153  16.897   5.491  0.00  0.00    -0.177 N 
ATOM     12  HN  UNK N   1      24.188  16.934   5.163  1.00  0.00     0.186 HD
HETATM   13  N   UNK N   1      25.642  18.837   4.137  0.00  0.00    -0.213 N 
HETATM   14  O   UNK N   1      24.940  20.704   2.249  0.00  0.00    -0.388 OA
ENDROOT
BRANCH   6  15
HETATM   15  C   UNK N   1      29.183  16.834   6.842  0.00  0.00     0.022 A 
HETATM   16  C   UNK N   1      30.121  16.071   6.125  0.00  0.00     0.104 A 
HETATM   17  N   UNK N   1      31.423  16.014   6.509  0.00  0.00    -0.352 N 
HETATM   18  C   UNK N   1      31.870  16.681   7.601  0.00  0.00     0.099 A 
HETATM   19  H   UNK N   1      32.057  15.475   5.981  0.00  0.00     0.166 HD
HETATM   20  C   UNK N   1      30.990  17.444   8.359  0.00  0.00     0.065 A 
HETATM   21  C   UNK N   1      29.639  17.542   8.001  0.00  0.00     0.065 A 
BRANCH  18  22
HETATM   22  N   UNK N   1      33.099  16.603   7.939  0.00  0.00    -0.385 N 
HETATM   23  H   UNK N   1      33.346  16.536   8.890  0.00  0.00     0.157 HD
ATOM     24  HN  UNK N   1      33.826  16.611   7.224  1.00  0.00     0.157 HD
ENDBRANCH  18  22
BRANCH  21  25
HETATM   25  C   UNK N   1      28.742  18.373   8.895  0.00  0.00     0.418 C 
HETATM   26  F   UNK N   1      28.147  19.387   8.168  0.00  0.00    -0.166 F 
HETATM   27  F   UNK N   1      27.777  17.570   9.478  0.00  0.00    -0.166 F 
HETATM   28  F   UNK N   1      29.465  18.964   9.918  0.00  0.00    -0.166 F 
ENDBRANCH  21  25
ENDBRANCH   6  15
BRANCH   7  29
HETATM   29  N   UNK N   1      24.551  15.007   6.861  0.00  0.00    -0.363 N 
HETATM   30  C   UNK N   1      23.159  15.143   6.494  0.00  0.00     0.150 C 
HETATM   31  C   UNK N   1      22.690  13.795   5.948  0.00  0.00     0.187 C 
HETATM   32  O   UNK N   1      22.912  12.796   6.917  0.00  0.00    -0.388 OA
HETATM   33  C   UNK N   1      24.308  12.622   7.023  0.00  0.00     0.187 C 
HETATM   34  C   UNK N   1      24.929  13.865   7.665  0.00  0.00     0.150 C 
ENDBRANCH   7  29
TORSDOF 4
ENDMDL
MODEL 3
REMARK VINA RESULT:      -7.3     14.217     17.055
REMARK  4 active torsions:
REMARK  status: ('A' for Active; 'I' for Inactive)
REMARK    1  A    between atoms: C_14  and  C_12 
REMARK    2  A    between atoms: C_18  and  C_13 
REMARK    3  A    between atoms: N_22  and  C_15 
REMARK    4  A    between atoms: N_29  and  C_16 
REMARK       I    between atoms: N_30  and  C_17 
ROOT
HETATM    1  C   UNK N   1      32.726  13.026   4.623  0.00  0.00     0.167 C 
HETATM    2  C   UNK N   1      30.518  13.684   3.561  0.00  0.00     0.167 C 
HETATM    3  C   UNK N   1      33.061  12.504   3.229  0.00  0.00     0.188 C 
HETATM    4  C   UNK N   1      31.118  13.050   2.303  0.00  0.00     0.188 C 
HETATM    5  C   UNK N   1      30.865  16.512   7.746  0.00  0.00     0.080 A 
HETATM    6  C   UNK N   1      32.012  15.706   7.725  0.00  0.00     0.065 A 
HETATM    7  C   UNK N   1      29.944  16.420   6.692  0.00  0.00     0.121 A 
HETATM    8  C   UNK N   1      31.282  14.747   5.677  0.00  0.00     0.682 A 
HETATM    9  N   UNK N   1      32.183  14.852   6.686  0.00  0.00    -0.191 N 
ATOM     10  HN  UNK N   1      33.019  14.267   6.663  1.00  0.00     0.184 HD
HETATM   11  N   UNK N   1      30.174  15.536   5.683  0.00  0.00    -0.177 N 
ATOM     12  HN  UNK N   1      29.503  15.463   4.918  1.00  0.00     0.186 HD
HETATM   13  N   UNK N   1      31.518  13.841   4.607  0.00  0.00    -0.213 N 
HETATM   14  O   UNK N   1      31.912  11.950   2.654  0.00  0.00    -0.388 OA
ENDROOT
BRANCH   6  15
HETATM   15  C   UNK N   1      33.037  15.807   8.812  0.00  0.00     0.022 A 
HETATM   16  C   UNK N   1      33.036  14.817   9.811  0.00  0.00     0.104 A 
HETATM   17  N   UNK N   1      33.928  14.847  10.834  0.00  0.00    -0.352 N 
HETATM   18  C   UNK N   1      34.852  15.835  10.940  0.00  0.00     0.099 A 
HETATM   19  H   UNK N   1      33.905  14.135  11.514  0.00  0.00     0.166 HD
HETATM   20  C   UNK N   1      34.898  16.849   9.992  0.00  0.00     0.065 A 
HETATM   21  C   UNK N   1      34.004  16.860   8.913  0.00  0.00     0.065 A 
BRANCH  18  22
HETATM   22  N   UNK N   1      35.675  15.838  11.917  0.00  0.00    -0.385 N 
HETATM   23  H   UNK N   1      36.517  15.331  11.855  0.00  0.00     0.157 HD
ATOM     24  HN  UNK N   1      35.460  16.366  12.763  1.00  0.00     0.157 HD
ENDBRANCH  18  22
BRANCH  21  25
HETATM   25  C   UNK N   1      34.106  18.015   7.938  0.00  0.00     0.418 C 
HETATM   26  F   UNK N   1      35.177  18.825   8.265  0.00  0.00    -0.166 F 
HETATM   27  F   UNK N   1      34.242  17.535   6.647  0.00  0.00    -0.166 F 
HETATM   28  F   UNK N   1      32.964  18.799   7.973  0.00  0.00    -0.166 F 
ENDBRANCH  21  25
ENDBRANCH   6  15
BRANCH   7  29
HETATM   29  N   UNK N   1      28.800  17.267   6.644  0.00  0.00    -0.363 N 
HETATM   30  C   UNK N   1      28.237  17.813   7.860  0.00  0.00     0.150 C 
HETATM   31  C   UNK N   1      28.119  19.326   7.677  0.00  0.00     0.187 C 
HETATM   32  O   UNK N   1      27.339  19.599   6.535  0.00  0.00    -0.388 OA
HETATM   33  C   UNK N   1      28.096  19.206   5.411  0.00  0.00     0.187 C 
HETATM   34  C   UNK N   1      28.217  17.680   5.386  0.00  0.00     0.150 C 
ENDBRANCH   7  29
TORSDOF 4
ENDMDL
MODEL 4
REMARK VINA RESULT:      -7.2     12.160     14.810
REMARK  4 active torsions:
REMARK  status: ('A' for Active; 'I' for Inactive)
REMARK    1  A    between atoms: C_14  and  C_12 
REMARK    2  A    between atoms: C_18  and  C_13 
REMARK    3  A    between atoms: N_22  and  C_15 
REMARK    4  A    between atoms: N_29  and  C_16 
REMARK       I    between atoms: N_30  and  C_17 
ROOT
HETATM    1  C   UNK N   1      28.837  13.208   4.227  0.00  0.00     0.167 C 
HETATM    2  C   UNK N   1      26.655  14.088   3.278  0.00  0.00     0.167 C 
HETATM    3  C   UNK N   1      28.707  12.156   3.130  0.00  0.00     0.188 C 
HETATM    4  C   UNK N   1      26.782  12.904   2.317  0.00  0.00     0.188 C 
HETATM    5  C   UNK N   1      28.613  17.956   5.895  0.00  0.00     0.080 A 
HETATM    6  C   UNK N   1      29.505  16.886   6.054  0.00  0.00     0.065 A 
HETATM    7  C   UNK N   1      27.476  17.784   5.092  0.00  0.00     0.121 A 
HETATM    8  C   UNK N   1      28.116  15.540   4.675  0.00  0.00     0.682 A 
HETATM    9  N   UNK N   1      29.228  15.714   5.434  0.00  0.00    -0.191 N 
ATOM     10  HN  UNK N   1      29.876  14.933   5.542  1.00  0.00     0.184 HD
HETATM   11  N   UNK N   1      27.253  16.577   4.502  0.00  0.00    -0.177 N 
ATOM     12  HN  UNK N   1      26.424  16.448   3.923  1.00  0.00     0.186 HD
HETATM   13  N   UNK N   1      27.881  14.291   4.037  0.00  0.00    -0.213 N 
HETATM   14  O   UNK N   1      27.360  11.811   2.976  0.00  0.00    -0.388 OA
ENDROOT
BRANCH   6  15
HETATM   15  C   UNK N   1      30.752  17.046   6.871  0.00  0.00     0.022 A 
HETATM   16  C   UNK N   1      30.628  17.008   8.271  0.00  0.00     0.104 A 
HETATM   17  N   UNK N   1      31.712  17.155   9.077  0.00  0.00    -0.352 N 
HETATM   18  C   UNK N   1      32.953  17.352   8.568  0.00  0.00     0.099 A 
HETATM   19  H   UNK N   1      31.593  17.118  10.054  0.00  0.00     0.166 HD
HETATM   20  C   UNK N   1      33.140  17.410   7.193  0.00  0.00     0.065 A 
HETATM   21  C   UNK N   1      32.056  17.257   6.317  0.00  0.00     0.065 A 
BRANCH  18  22
HETATM   22  N   UNK N   1      33.951  17.492   9.353  0.00  0.00    -0.385 N 
HETATM   23  H   UNK N   1      33.945  17.064  10.240  0.00  0.00     0.157 HD
ATOM     24  HN  UNK N   1      34.756  18.046   9.060  1.00  0.00     0.157 HD
ENDBRANCH  18  22
BRANCH  21  25
HETATM   25  C   UNK N   1      32.342  17.359   4.833  0.00  0.00     0.418 C 
HETATM   26  F   UNK N   1      33.621  17.840   4.623  0.00  0.00    -0.166 F 
HETATM   27  F   UNK N   1      32.189  16.120   4.234  0.00  0.00    -0.166 F 
HETATM   28  F   UNK N   1      31.462  18.232   4.214  0.00  0.00    -0.166 F 
ENDBRANCH  21  25
ENDBRANCH   6  15
BRANCH   7  29
HETATM   29  N   UNK N   1      26.580  18.865   4.853  0.00  0.00    -0.363 N 
HETATM   30  C   UNK N   1      27.072  20.134   4.364  0.00  0.00     0.150 C 
HETATM   31  C   UNK N   1      26.255  20.502   3.125  0.00  0.00     0.187 C 
HETATM   32  O   UNK N   1      24.886  20.531   3.461  0.00  0.00    -0.388 OA
HETATM   33  C   UNK N   1      24.491  19.200   3.713  0.00  0.00     0.187 C 
HETATM   34  C   UNK N   1      25.149  18.709   5.005  0.00  0.00     0.150 C 
ENDBRANCH   7  29
TORSDOF 4
ENDMDL
MODEL 5
REMARK VINA RESULT:      -7.0     15.361     18.793
REMARK  4 active torsions:
REMARK  status: ('A' for Active; 'I' for Inactive)
REMARK    1  A    between atoms: C_14  and  C_12 
REMARK    2  A    between atoms: C_18  and  C_13 
REMARK    3  A    between atoms: N_22  and  C_15 
REMARK    4  A    between atoms: N_29  and  C_16 
REMARK       I    between atoms: N_30  and  C_17 
ROOT
HETATM    1  C   UNK N   1      29.818  17.201   9.681  0.00  0.00     0.167 C 
HETATM    2  C   UNK N   1      29.455  17.807   7.244  0.00  0.00     0.167 C 
HETATM    3  C   UNK N   1      28.296  17.263   9.760  0.00  0.00     0.188 C 
HETATM    4  C   UNK N   1      27.975  17.824   7.636  0.00  0.00     0.188 C 
HETATM    5  C   UNK N   1      34.110  15.823   7.433  0.00  0.00     0.080 A 
HETATM    6  C   UNK N   1      33.629  15.815   8.750  0.00  0.00     0.065 A 
HETATM    7  C   UNK N   1      33.282  16.299   6.405  0.00  0.00     0.121 A 
HETATM    8  C   UNK N   1      31.586  16.764   7.995  0.00  0.00     0.682 A 
HETATM    9  N   UNK N   1      32.380  16.283   8.985  0.00  0.00    -0.191 N 
ATOM     10  HN  UNK N   1      32.023  16.275   9.941  1.00  0.00     0.184 HD
HETATM   11  N   UNK N   1      32.039  16.761   6.712  0.00  0.00    -0.177 N 
ATOM     12  HN  UNK N   1      31.437  17.113   5.968  1.00  0.00     0.186 HD
HETATM   13  N   UNK N   1      30.278  17.232   8.299  0.00  0.00    -0.213 N 
HETATM   14  O   UNK N   1      27.832  18.302   8.945  0.00  0.00    -0.388 OA
ENDROOT
BRANCH   6  15
HETATM   15  C   UNK N   1      34.470  15.276   9.866  0.00  0.00     0.022 A 
HETATM   16  C   UNK N   1      35.175  16.197  10.662  0.00  0.00     0.104 A 
HETATM   17  N   UNK N   1      35.965  15.783  11.686  0.00  0.00    -0.352 N 
HETATM   18  C   UNK N   1      36.114  14.468  11.980  0.00  0.00     0.099 A 
HETATM   19  H   UNK N   1      36.441  16.454  12.228  0.00  0.00     0.166 HD
HETATM   20  C   UNK N   1      35.453  13.507  11.224  0.00  0.00     0.065 A 
HETATM   21  C   UNK N   1      34.621  13.882  10.162  0.00  0.00     0.065 A 
BRANCH  18  22
HETATM   22  N   UNK N   1      36.869  14.110  12.947  0.00  0.00    -0.385 N 
HETATM   23  H   UNK N   1      37.364  14.787  13.462  0.00  0.00     0.157 HD
ATOM     24  HN  UNK N   1      36.957  13.123  13.185  1.00  0.00     0.157 HD
ENDBRANCH  18  22
BRANCH  21  25
HETATM   25  C   UNK N   1      33.958  12.772   9.373  0.00  0.00     0.418 C 
HETATM   26  F   UNK N   1      34.068  11.571  10.050  0.00  0.00    -0.166 F 
HETATM   27  F   UNK N   1      32.626  13.077   9.150  0.00  0.00    -0.166 F 
HETATM   28  F   UNK N   1      34.560  12.610   8.136  0.00  0.00    -0.166 F 
ENDBRANCH  21  25
ENDBRANCH   6  15
BRANCH   7  29
HETATM   29  N   UNK N   1      33.708  16.263   5.046  0.00  0.00    -0.363 N 
HETATM   30  C   UNK N   1      34.475  15.144   4.545  0.00  0.00     0.150 C 
HETATM   31  C   UNK N   1      33.773  14.628   3.289  0.00  0.00     0.187 C 
HETATM   32  O   UNK N   1      33.653  15.679   2.356  0.00  0.00    -0.388 OA
HETATM   33  C   UNK N   1      32.719  16.596   2.882  0.00  0.00     0.187 C 
HETATM   34  C   UNK N   1      33.321  17.292   4.105  0.00  0.00     0.150 C 
ENDBRANCH   7  29
TORSDOF 4
ENDMDL
MODEL 6
REMARK VINA RESULT:      -7.0     13.290     15.146
REMARK  4 active torsions:
REMARK  status: ('A' for Active; 'I' for Inactive)
REMARK    1  A    between atoms: C_14  and  C_12 
REMARK    2  A    between atoms: C_18  and  C_13 
REMARK    3  A    between atoms: N_22  and  C_15 
REMARK    4  A    between atoms: N_29  and  C_16 
REMARK       I    between atoms: N_30  and  C_17 
ROOT
HETATM    1  C   UNK N   1      22.977  13.501   6.912  0.00  0.00     0.167 C 
HETATM    2  C   UNK N   1      25.259  14.176   7.792  0.00  0.00     0.167 C 
HETATM    3  C   UNK N   1      22.839  12.799   8.259  0.00  0.00     0.188 C 
HETATM    4  C   UNK N   1      24.848  13.360   9.020  0.00  0.00     0.188 C 
HETATM    5  C   UNK N   1      24.264  17.446   4.056  0.00  0.00     0.080 A 
HETATM    6  C   UNK N   1      23.172  16.568   4.107  0.00  0.00     0.065 A 
HETATM    7  C   UNK N   1      25.308  17.292   4.980  0.00  0.00     0.121 A 
HETATM    8  C   UNK N   1      24.192  15.426   5.923  0.00  0.00     0.682 A 
HETATM    9  N   UNK N   1      23.172  15.589   5.043  0.00  0.00    -0.191 N 
ATOM     10  HN  UNK N   1      22.377  14.951   5.089  1.00  0.00     0.184 HD
HETATM   11  N   UNK N   1      25.248  16.283   5.891  0.00  0.00    -0.177 N 
ATOM     12  HN  UNK N   1      26.009  16.166   6.560  1.00  0.00     0.186 HD
HETATM   13  N   UNK N   1      24.133  14.388   6.893  0.00  0.00    -0.213 N 
HETATM   14  O   UNK N   1      24.077  12.259   8.628  0.00  0.00    -0.388 OA
ENDROOT
BRANCH   6  15
HETATM   15  C   UNK N   1      22.019  16.728   3.163  0.00  0.00     0.022 A 
HETATM   16  C   UNK N   1      21.761  15.682   2.260  0.00  0.00     0.104 A 
HETATM   17  N   UNK N   1      20.740  15.758   1.367  0.00  0.00    -0.352 N 
HETATM   18  C   UNK N   1      19.933  16.847   1.304  0.00  0.00     0.099 A 
HETATM   19  H   UNK N   1      20.580  15.006   0.752  0.00  0.00     0.166 HD
HETATM   20  C   UNK N   1      20.143  17.919   2.163  0.00  0.00     0.065 A 
HETATM   21  C   UNK N   1      21.179  17.887   3.106  0.00  0.00     0.065 A 
BRANCH  18  22
HETATM   22  N   UNK N   1      18.984  16.891   0.451  0.00  0.00    -0.385 N 
HETATM   23  H   UNK N   1      18.048  16.833   0.751  0.00  0.00     0.157 HD
ATOM     24  HN  UNK N   1      19.195  16.986  -0.542  1.00  0.00     0.157 HD
ENDBRANCH  18  22
BRANCH  21  25
HETATM   25  C   UNK N   1      21.356  19.107   3.986  0.00  0.00     0.418 C 
HETATM   26  F   UNK N   1      22.530  19.763   3.665  0.00  0.00    -0.166 F 
HETATM   27  F   UNK N   1      20.274  19.958   3.840  0.00  0.00    -0.166 F 
HETATM   28  F   UNK N   1      21.428  18.752   5.323  0.00  0.00    -0.166 F 
ENDBRANCH  21  25
ENDBRANCH   6  15
BRANCH   7  29
HETATM   29  N   UNK N   1      26.404  18.203   5.003  0.00  0.00    -0.363 N 
HETATM   30  C   UNK N   1      26.433  19.341   4.112  0.00  0.00     0.150 C 
HETATM   31  C   UNK N   1      26.682  20.588   4.961  0.00  0.00     0.187 C 
HETATM   32  O   UNK N   1      27.877  20.425   5.691  0.00  0.00    -0.388 OA
HETATM   33  C   UNK N   1      27.639  19.428   6.661  0.00  0.00     0.187 C 
HETATM   34  C   UNK N   1      27.474  18.073   5.968  0.00  0.00     0.150 C 
ENDBRANCH   7  29
TORSDOF 4
ENDMDL
MODEL 7
REMARK VINA RESULT:      -7.0     12.677     15.130
REMARK  4 active torsions:
REMARK  status: ('A' for Active; 'I' for Inactive)
REMARK    1  A    between atoms: C_14  and  C_12 
REMARK    2  A    between atoms: C_18  and  C_13 
REMARK    3  A    between atoms: N_22  and  C_15 
REMARK    4  A    between atoms: N_29  and  C_16 
REMARK       I    between atoms: N_30  and  C_17 
ROOT
HETATM    1  C   UNK N   1      27.255  19.722   5.254  0.00  0.00     0.167 C 
HETATM    2  C   UNK N   1      25.771  18.177   3.895  0.00  0.00     0.167 C 
HETATM    3  C   UNK N   1      26.014  20.607   5.312  0.00  0.00     0.188 C 
HETATM    4  C   UNK N   1      24.721  19.272   4.096  0.00  0.00     0.188 C 
HETATM    5  C   UNK N   1      29.558  15.251   5.551  0.00  0.00     0.080 A 
HETATM    6  C   UNK N   1      29.828  16.543   6.024  0.00  0.00     0.065 A 
HETATM    7  C   UNK N   1      28.388  15.025   4.810  0.00  0.00     0.121 A 
HETATM    8  C   UNK N   1      27.830  17.321   5.001  0.00  0.00     0.682 A 
HETATM    9  N   UNK N   1      28.950  17.534   5.736  0.00  0.00    -0.191 N 
ATOM     10  HN  UNK N   1      29.139  18.475   6.083  1.00  0.00     0.184 HD
HETATM   11  N   UNK N   1      27.552  16.067   4.551  0.00  0.00    -0.177 N 
ATOM     12  HN  UNK N   1      26.704  15.906   4.008  1.00  0.00     0.186 HD
HETATM   13  N   UNK N   1      26.937  18.396   4.738  0.00  0.00    -0.213 N 
HETATM   14  O   UNK N   1      25.335  20.532   4.090  0.00  0.00    -0.388 OA
ENDROOT
BRANCH   6  15
HETATM   15  C   UNK N   1      31.046  16.813   6.854  0.00  0.00     0.022 A 
HETATM   16  C   UNK N   1      30.924  16.716   8.251  0.00  0.00     0.104 A 
HETATM   17  N   UNK N   1      31.982  16.957   9.068  0.00  0.00    -0.352 N 
HETATM   18  C   UNK N   1      33.195  17.307   8.574  0.00  0.00     0.099 A 
HETATM   19  H   UNK N   1      31.865  16.874  10.043  0.00  0.00     0.166 HD
HETATM   20  C   UNK N   1      33.378  17.430   7.202  0.00  0.00     0.065 A 
HETATM   21  C   UNK N   1      32.320  17.186   6.316  0.00  0.00     0.065 A 
BRANCH  18  22
HETATM   22  N   UNK N   1      34.169  17.531   9.369  0.00  0.00    -0.385 N 
HETATM   23  H   UNK N   1      34.176  17.127  10.267  0.00  0.00     0.157 HD
ATOM     24  HN  UNK N   1      34.941  18.128   9.074  1.00  0.00     0.157 HD
ENDBRANCH  18  22
BRANCH  21  25
HETATM   25  C   UNK N   1      32.597  17.369   4.837  0.00  0.00     0.418 C 
HETATM   26  F   UNK N   1      33.828  17.969   4.651  0.00  0.00    -0.166 F 
HETATM   27  F   UNK N   1      32.556  16.145   4.193  0.00  0.00    -0.166 F 
HETATM   28  F   UNK N   1      31.643  18.182   4.248  0.00  0.00    -0.166 F 
ENDBRANCH  21  25
ENDBRANCH   6  15
BRANCH   7  29
HETATM   29  N   UNK N   1      28.045  13.715   4.367  0.00  0.00    -0.363 N 
HETATM   30  C   UNK N   1      26.775  13.466   3.721  0.00  0.00     0.150 C 
HETATM   31  C   UNK N   1      27.060  12.749   2.401  0.00  0.00     0.187 C 
HETATM   32  O   UNK N   1      27.790  11.571   2.658  0.00  0.00    -0.388 OA
HETATM   33  C   UNK N   1      29.077  11.964   3.085  0.00  0.00     0.187 C 
HETATM   34  C   UNK N   1      28.979  12.614   4.467  0.00  0.00     0.150 C 
ENDBRANCH   7  29
TORSDOF 4
ENDMDL
MODEL 8
REMARK VINA RESULT:      -7.0     13.973     15.170
REMARK  4 active torsions:
REMARK  status: ('A' for Active; 'I' for Inactive)
REMARK    1  A    between atoms: C_14  and  C_12 
REMARK    2  A    between atoms: C_18  and  C_13 
REMARK    3  A    between atoms: N_22  and  C_15 
REMARK    4  A    between atoms: N_29  and  C_16 
REMARK       I    between atoms: N_30  and  C_17 
ROOT
HETATM    1  C   UNK N   1      19.545  16.418   7.565  0.00  0.00     0.167 C 
HETATM    2  C   UNK N   1      20.708  14.200   7.967  0.00  0.00     0.167 C 
HETATM    3  C   UNK N   1      19.274  16.370   9.065  0.00  0.00     0.188 C 
HETATM    4  C   UNK N   1      20.263  14.413   9.416  0.00  0.00     0.188 C 
HETATM    5  C   UNK N   1      22.554  15.879   3.561  0.00  0.00     0.080 A 
HETATM    6  C   UNK N   1      21.616  16.833   3.980  0.00  0.00     0.065 A 
HETATM    7  C   UNK N   1      22.807  14.766   4.376  0.00  0.00     0.121 A 
HETATM    8  C   UNK N   1      21.203  15.549   5.935  0.00  0.00     0.682 A 
HETATM    9  N   UNK N   1      20.974  16.637   5.157  0.00  0.00    -0.191 N 
ATOM     10  HN  UNK N   1      20.295  17.331   5.469  1.00  0.00     0.184 HD
HETATM   11  N   UNK N   1      22.122  14.626   5.544  0.00  0.00    -0.177 N 
ATOM     12  HN  UNK N   1      22.301  13.815   6.136  1.00  0.00     0.186 HD
HETATM   13  N   UNK N   1      20.508  15.400   7.167  0.00  0.00    -0.213 N 
HETATM   14  O   UNK N   1      19.015  15.048   9.446  0.00  0.00    -0.388 OA
ENDROOT
BRANCH   6  15
HETATM   15  C   UNK N   1      21.350  18.056   3.155  0.00  0.00     0.022 A 
HETATM   16  C   UNK N   1      20.175  18.084   2.383  0.00  0.00     0.104 A 
HETATM   17  N   UNK N   1      19.872  19.154   1.603  0.00  0.00    -0.352 N 
HETATM   18  C   UNK N   1      20.689  20.234   1.529  0.00  0.00     0.099 A 
HETATM   19  H   UNK N   1      19.037  19.146   1.079  0.00  0.00     0.166 HD
HETATM   20  C   UNK N   1      21.871  20.262   2.260  0.00  0.00     0.065 A 
HETATM   21  C   UNK N   1      22.227  19.187   3.085  0.00  0.00     0.065 A 
BRANCH  18  22
HETATM   22  N   UNK N   1      20.378  21.222   0.783  0.00  0.00    -0.385 N 
HETATM   23  H   UNK N   1      20.706  21.262  -0.144  0.00  0.00     0.157 HD
ATOM     24  HN  UNK N   1      19.788  21.970   1.147  1.00  0.00     0.157 HD
ENDBRANCH  18  22
BRANCH  21  25
HETATM   25  C   UNK N   1      23.544  19.287   3.827  0.00  0.00     0.418 C 
HETATM   26  F   UNK N   1      24.056  20.567   3.725  0.00  0.00    -0.166 F 
HETATM   27  F   UNK N   1      23.367  18.945   5.156  0.00  0.00    -0.166 F 
HETATM   28  F   UNK N   1      24.483  18.419   3.295  0.00  0.00    -0.166 F 
ENDBRANCH  21  25
ENDBRANCH   6  15
BRANCH   7  29
HETATM   29  N   UNK N   1      23.799  13.808   4.018  0.00  0.00    -0.363 N 
HETATM   30  C   UNK N   1      23.529  12.814   3.002  0.00  0.00     0.150 C 
HETATM   31  C   UNK N   1      24.662  12.880   1.978  0.00  0.00     0.187 C 
HETATM   32  O   UNK N   1      25.895  12.683   2.632  0.00  0.00    -0.388 OA
HETATM   33  C   UNK N   1      26.129  13.822   3.431  0.00  0.00     0.187 C 
HETATM   34  C   UNK N   1      25.128  13.846   4.589  0.00  0.00     0.150 C 
ENDBRANCH   7  29
TORSDOF 4
ENDMDL
MODEL 9
REMARK VINA RESULT:      -7.0     13.771     15.226
REMARK  4 active torsions:
REMARK  status: ('A' for Active; 'I' for Inactive)
REMARK    1  A    between atoms: C_14  and  C_12 
REMARK    2  A    between atoms: C_18  and  C_13 
REMARK    3  A    between atoms: N_22  and  C_15 
REMARK    4  A    between atoms: N_29  and  C_16 
REMARK       I    between atoms: N_30  and  C_17 
ROOT
HETATM    1  C   UNK N   1      19.865  16.069   7.325  0.00  0.00     0.167 C 
HETATM    2  C   UNK N   1      21.746  14.585   8.159  0.00  0.00     0.167 C 
HETATM    3  C   UNK N   1      19.309  15.888   8.734  0.00  0.00     0.188 C 
HETATM    4  C   UNK N   1      20.937  14.563   9.458  0.00  0.00     0.188 C 
HETATM    5  C   UNK N   1      23.635  16.958   4.105  0.00  0.00     0.080 A 
HETATM    6  C   UNK N   1      22.309  17.397   4.230  0.00  0.00     0.065 A 
HETATM    7  C   UNK N   1      24.151  16.061   5.051  0.00  0.00     0.121 A 
HETATM    8  C   UNK N   1      22.058  16.039   6.163  0.00  0.00     0.682 A 
HETATM    9  N   UNK N   1      21.566  16.924   5.260  0.00  0.00    -0.191 N 
ATOM     10  HN  UNK N   1      20.602  17.243   5.359  1.00  0.00     0.184 HD
HETATM   11  N   UNK N   1      23.348  15.620   6.058  0.00  0.00    -0.177 N 
ATOM     12  HN  UNK N   1      23.719  14.963   6.743  1.00  0.00     0.186 HD
HETATM   13  N   UNK N   1      21.236  15.584   7.231  0.00  0.00    -0.213 N 
HETATM   14  O   UNK N   1      19.566  14.583   9.169  0.00  0.00    -0.388 OA
ENDROOT
BRANCH   6  15
HETATM   15  C   UNK N   1      21.737  18.387   3.262  0.00  0.00     0.022 A 
HETATM   16  C   UNK N   1      22.091  19.739   3.419  0.00  0.00     0.104 A 
HETATM   17  N   UNK N   1      21.605  20.695   2.587  0.00  0.00    -0.352 N 
HETATM   18  C   UNK N   1      20.754  20.390   1.576  0.00  0.00     0.099 A 
HETATM   19  H   UNK N   1      21.877  21.633   2.719  0.00  0.00     0.166 HD
HETATM   20  C   UNK N   1      20.357  19.074   1.374  0.00  0.00     0.065 A 
HETATM   21  C   UNK N   1      20.836  18.048   2.201  0.00  0.00     0.065 A 
BRANCH  18  22
HETATM   22  N   UNK N   1      20.310  21.313   0.813  0.00  0.00    -0.385 N 
HETATM   23  H   UNK N   1      20.821  22.147   0.699  0.00  0.00     0.157 HD
ATOM     24  HN  UNK N   1      19.426  21.185   0.320  1.00  0.00     0.157 HD
ENDBRANCH  18  22
BRANCH  21  25
HETATM   25  C   UNK N   1      20.334  16.645   1.930  0.00  0.00     0.418 C 
HETATM   26  F   UNK N   1      21.398  15.788   1.719  0.00  0.00    -0.166 F 
HETATM   27  F   UNK N   1      19.563  16.203   2.991  0.00  0.00    -0.166 F 
HETATM   28  F   UNK N   1      19.539  16.610   0.795  0.00  0.00    -0.166 F 
ENDBRANCH  21  25
ENDBRANCH   6  15
BRANCH   7  29
HETATM   29  N   UNK N   1      25.512  15.642   4.996  0.00  0.00    -0.363 N 
HETATM   30  C   UNK N   1      25.908  14.539   4.148  0.00  0.00     0.150 C 
HETATM   31  C   UNK N   1      27.069  15.019   3.277  0.00  0.00     0.187 C 
HETATM   32  O   UNK N   1      28.112  15.484   4.104  0.00  0.00    -0.388 OA
HETATM   33  C   UNK N   1      27.662  16.676   4.710  0.00  0.00     0.187 C 
HETATM   34  C   UNK N   1      26.551  16.351   5.711  0.00  0.00     0.150 C 
ENDBRANCH   7  29
TORSDOF 4
ENDMDL
