REMARK  5 active torsions:
REMARK  status: ('A' for Active; 'I' for Inactive)
REMARK    1  A    between atoms: C_3  and  C_8 
REMARK    2  A    between atoms: C_11  and  S_14 
REMARK    3  A    between atoms: S_14  and  C_15 
REMARK    4  A    between atoms: C_19  and  C_21 
REMARK    5  A    between atoms: C_21  and  C_27 
REMARK       I    between atoms: C_27  and  N_29 
ROOT
HETATM    1  C   UNK N   1      10.658  -2.843  -0.134  0.00  0.00     0.006 A 
HETATM    2  C   UNK N   1       9.404  -2.300  -0.454  0.00  0.00     0.019 A 
HETATM    3  C   UNK N   1       9.243  -0.930  -0.631  0.00  0.00     0.002 A 
HETATM    4  C   UNK N   1      10.341  -0.084  -0.507  0.00  0.00     0.008 A 
HETATM    5  C   UNK N   1      11.621  -0.597  -0.228  0.00  0.00    -0.039 A 
HETATM    6  C   UNK N   1      11.759  -1.988  -0.038  0.00  0.00     0.027 A 
ENDROOT
BRANCH   1   7
HETATM    7  S   UNK N   1      10.879  -4.615   0.218  0.00  0.00    -0.091 SA
BRANCH   7   8
HETATM    8  C   UNK N   1       9.136  -5.040   0.318  0.00  0.00     0.005 A 
HETATM    9  C   UNK N   1       8.308  -4.373   1.227  0.00  0.00     0.020 A 
HETATM   10  C   UNK N   1       6.927  -4.534   1.159  0.00  0.00     0.015 A 
HETATM   11  C   UNK N   1       6.357  -5.391   0.210  0.00  0.00    -0.008 A 
HETATM   12  C   UNK N   1       7.197  -6.124  -0.644  0.00  0.00     0.015 A 
HETATM   13  C   UNK N   1       8.582  -5.932  -0.605  0.00  0.00     0.020 A 
BRANCH  11  14
HETATM   14  C   UNK N   1       4.888  -5.478   0.058  0.00  0.00     0.061 A 
HETATM   15  N   UNK N   1       3.986  -4.610   0.559  0.00  0.00    -0.296 N 
HETATM   16  C   UNK N   1       4.240  -3.404   1.333  0.00  0.00     0.178 C 
HETATM   17  N   UNK N   1       2.775  -4.974   0.186  0.00  0.00    -0.310 N 
HETATM   18  C   UNK N   1       2.877  -6.091  -0.564  0.00  0.00     0.109 A 
ATOM     19  HN  UNK N   1       1.907  -4.493   0.424  1.00  0.00     0.186 HD
HETATM   20  C   UNK N   1       4.217  -6.437  -0.677  0.00  0.00     0.050 A 
ENDBRANCH  11  14
ENDBRANCH   7   8
ENDBRANCH   1   7
BRANCH   5  21
HETATM   21  C   UNK N   1      12.840   0.332  -0.137  0.00  0.00     0.071 C 
HETATM   22  C   UNK N   1      13.564   0.127   1.218  0.00  0.00     0.050 C 
HETATM   23  C   UNK N   1      14.376  -1.175   1.222  0.00  0.00     0.169 C 
HETATM   24  O   UNK N   1      15.316  -1.152   0.177  0.00  0.00    -0.391 OA
HETATM   25  C   UNK N   1      14.587  -1.278  -1.017  0.00  0.00     0.169 C 
HETATM   26  C   UNK N   1      13.827   0.023  -1.281  0.00  0.00     0.050 C 
BRANCH  21  27
HETATM   27  C   UNK N   1      12.444   1.800  -0.276  0.00  0.00     0.229 C 
HETATM   28  O   UNK N   1      12.661   2.594   0.628  0.00  0.00    -0.273 OA
HETATM   29  N   UNK N   1      11.858   2.242  -1.410  0.00  0.00    -0.369 N 
HETATM   30  H   UNK N   1      11.924   2.773  -2.236  0.00  0.00     0.159 HD
HETATM   31  H   UNK N   1      10.952   1.858  -1.410  0.00  0.00     0.159 HD
ENDBRANCH  21  27
ENDBRANCH   5  21
TORSDOF 5
