MODEL 1
REMARK VINA RESULT:      -8.9      0.000      0.000
REMARK  11 active torsions:
REMARK  status: ('A' for Active; 'I' for Inactive)
REMARK    1  A    between atoms: C_2  and  N_3 
REMARK    2  A    between atoms: N_3  and  C_4 
REMARK       I    between atoms: N_3  and  C_31 
REMARK    3  A    between atoms: N_7  and  C_10 
REMARK    4  A    between atoms: C_10  and  C_11 
REMARK    5  A    between atoms: C_12  and  C_11 
REMARK    6  A    between atoms: C_12  and  C_13 
REMARK    7  A    between atoms: C_12  and  C_23 
REMARK    8  A    between atoms: C_16  and  S_19 
REMARK    9  A    between atoms: C_31  and  C_33 
REMARK   10  A    between atoms: C_33  and  C_34 
REMARK   11  A    between atoms: C_37  and  S_40 
ROOT
HETATM    1  C   UNK N   1      27.643  16.583   3.679  0.00  0.00     0.090 C 
HETATM    2  C   UNK N   1      28.092  15.239   4.274  0.00  0.00     0.055 C 
HETATM    3  C   UNK N   1      26.915  14.334   4.678  0.00  0.00     0.274 C 
HETATM    4  N   UNK N   1      25.653  15.078   4.773  0.00  0.00     0.088 N 
HETATM    5  C   UNK N   1      25.277  15.726   3.504  0.00  0.00     0.274 C 
HETATM    6  C   UNK N   1      26.481  16.275   2.729  0.00  0.00     0.055 C 
ENDROOT
BRANCH   4   7
HETATM    7  C   UNK N   1      24.587  14.181   5.238  0.00  0.00     0.273 C 
BRANCH   7   8
HETATM    8  C   UNK N   1      23.809  14.711   6.452  0.00  0.00     0.044 C 
BRANCH   8   9
HETATM    9  C   UNK N   1      22.295  14.569   6.289  0.00  0.00     0.053 C 
BRANCH   9  10
HETATM   10  C   UNK N   1      21.760  15.714   5.447  0.00  0.00    -0.050 A 
HETATM   11  C   UNK N   1      20.843  15.533   4.402  0.00  0.00     0.009 A 
HETATM   12  C   UNK N   1      20.378  16.626   3.665  0.00  0.00     0.024 A 
HETATM   13  C   UNK N   1      20.853  17.921   3.942  0.00  0.00     0.058 A 
HETATM   14  C   UNK N   1      21.756  18.108   4.999  0.00  0.00     0.024 A 
HETATM   15  C   UNK N   1      22.213  17.011   5.731  0.00  0.00     0.009 A 
BRANCH  13  16
HETATM   16  S   UNK N   1      20.149  19.358   3.094  0.00  0.00     0.171 S 
HETATM   17  O   UNK N   1      20.353  20.704   3.807  0.00  0.00    -0.223 OA
HETATM   18  O   UNK N   1      20.715  19.589   1.685  0.00  0.00    -0.223 OA
HETATM   19  C   UNK N   1      21.947  19.602   3.307  0.00  0.00     0.167 C 
ENDBRANCH  13  16
ENDBRANCH   9  10
BRANCH   9  20
HETATM   20  C   UNK N   1      21.664  14.212   7.620  0.00  0.00    -0.044 A 
HETATM   21  C   UNK N   1      22.218  13.158   8.362  0.00  0.00     0.050 A 
HETATM   22  C   UNK N   1      21.676  12.795   9.598  0.00  0.00     0.119 A 
HETATM   23  C   UNK N   1      20.578  13.489  10.108  0.00  0.00     0.084 A 
HETATM   24  F   UNK N   1      22.218  11.771  10.300  0.00  0.00    -0.206 F 
HETATM   25  C   UNK N   1      20.019  14.543   9.380  0.00  0.00     0.119 A 
HETATM   26  C   UNK N   1      20.559  14.901   8.143  0.00  0.00     0.050 A 
HETATM   27  F   UNK N   1      18.957  15.221   9.875  0.00  0.00    -0.206 F 
ENDBRANCH   9  20
ENDBRANCH   8   9
ENDBRANCH   7   8
ENDBRANCH   4   7
BRANCH   1  28
HETATM   28  N   UNK N   1      27.269  17.649   4.633  0.00  0.00    -0.347 N 
HETATM   29  C   UNK N   1      27.575  17.652   5.979  0.00  0.00     0.224 C 
HETATM   30  O   UNK N   1      27.155  18.572   6.679  0.00  0.00    -0.273 OA
BRANCH  28  31
HETATM   31  C   UNK N   1      26.526  18.773   4.089  0.00  0.00     0.122 C 
HETATM   32  C   UNK N   1      27.434  19.963   3.836  0.00  0.00     0.026 C 
ENDBRANCH  28  31
BRANCH  29  33
HETATM   33  C   UNK N   1      28.417  16.585   6.639  0.00  0.00     0.141 C 
BRANCH  33  34
HETATM   34  C   UNK N   1      29.783  17.056   7.012  0.00  0.00    -0.049 A 
HETATM   35  C   UNK N   1      30.028  17.653   8.258  0.00  0.00     0.009 A 
HETATM   36  C   UNK N   1      31.329  18.027   8.614  0.00  0.00     0.024 A 
HETATM   37  C   UNK N   1      32.401  17.770   7.735  0.00  0.00     0.058 A 
HETATM   38  C   UNK N   1      32.123  17.231   6.458  0.00  0.00     0.024 A 
HETATM   39  C   UNK N   1      30.829  16.861   6.112  0.00  0.00     0.009 A 
BRANCH  37  40
HETATM   40  S   UNK N   1      34.094  18.326   8.129  0.00  0.00     0.171 S 
HETATM   41  O   UNK N   1      34.964  17.742   9.254  0.00  0.00    -0.223 OA
HETATM   42  O   UNK N   1      34.862  17.716   6.948  0.00  0.00    -0.223 OA
HETATM   43  C   UNK N   1      33.771  16.596   8.640  0.00  0.00     0.167 C 
ENDBRANCH  37  40
ENDBRANCH  33  34
ENDBRANCH  29  33
ENDBRANCH   1  28
TORSDOF 11
ENDMDL
MODEL 2
REMARK VINA RESULT:      -8.7      1.896      3.050
REMARK  11 active torsions:
REMARK  status: ('A' for Active; 'I' for Inactive)
REMARK    1  A    between atoms: C_2  and  N_3 
REMARK    2  A    between atoms: N_3  and  C_4 
REMARK       I    between atoms: N_3  and  C_31 
REMARK    3  A    between atoms: N_7  and  C_10 
REMARK    4  A    between atoms: C_10  and  C_11 
REMARK    5  A    between atoms: C_12  and  C_11 
REMARK    6  A    between atoms: C_12  and  C_13 
REMARK    7  A    between atoms: C_12  and  C_23 
REMARK    8  A    between atoms: C_16  and  S_19 
REMARK    9  A    between atoms: C_31  and  C_33 
REMARK   10  A    between atoms: C_33  and  C_34 
REMARK   11  A    between atoms: C_37  and  S_40 
ROOT
HETATM    1  C   UNK N   1      27.145  15.286   2.180  0.00  0.00     0.090 C 
HETATM    2  C   UNK N   1      25.816  14.553   1.938  0.00  0.00     0.055 C 
HETATM    3  C   UNK N   1      25.055  14.237   3.237  0.00  0.00     0.274 C 
HETATM    4  N   UNK N   1      25.915  14.345   4.422  0.00  0.00     0.088 N 
HETATM    5  C   UNK N   1      26.494  15.691   4.584  0.00  0.00     0.274 C 
HETATM    6  C   UNK N   1      26.871  16.348   3.250  0.00  0.00     0.055 C 
ENDROOT
BRANCH   4   7
HETATM    7  C   UNK N   1      25.157  13.955   5.618  0.00  0.00     0.273 C 
BRANCH   7   8
HETATM    8  C   UNK N   1      24.473  15.129   6.335  0.00  0.00     0.044 C 
BRANCH   8   9
HETATM    9  C   UNK N   1      22.990  15.250   5.985  0.00  0.00     0.053 C 
BRANCH   9  10
HETATM   10  C   UNK N   1      22.764  16.481   5.127  0.00  0.00    -0.050 A 
HETATM   11  C   UNK N   1      23.562  17.631   5.212  0.00  0.00     0.009 A 
HETATM   12  C   UNK N   1      23.314  18.734   4.389  0.00  0.00     0.024 A 
HETATM   13  C   UNK N   1      22.233  18.716   3.488  0.00  0.00     0.058 A 
HETATM   14  C   UNK N   1      21.444  17.561   3.386  0.00  0.00     0.024 A 
HETATM   15  C   UNK N   1      21.702  16.464   4.210  0.00  0.00     0.009 A 
BRANCH  13  16
HETATM   16  S   UNK N   1      21.992  20.077   2.317  0.00  0.00     0.171 S 
HETATM   17  O   UNK N   1      20.691  20.017   1.502  0.00  0.00    -0.223 OA
HETATM   18  O   UNK N   1      21.961  21.464   2.974  0.00  0.00    -0.223 OA
HETATM   19  C   UNK N   1      20.601  20.042   3.502  0.00  0.00     0.167 C 
ENDBRANCH  13  16
ENDBRANCH   9  10
BRANCH   9  20
HETATM   20  C   UNK N   1      22.146  14.986   7.217  0.00  0.00    -0.044 A 
HETATM   21  C   UNK N   1      21.243  15.976   7.634  0.00  0.00     0.050 A 
HETATM   22  C   UNK N   1      20.439  15.777   8.759  0.00  0.00     0.119 A 
HETATM   23  C   UNK N   1      20.524  14.581   9.474  0.00  0.00     0.084 A 
HETATM   24  F   UNK N   1      19.577  16.744   9.154  0.00  0.00    -0.206 F 
HETATM   25  C   UNK N   1      21.417  13.587   9.066  0.00  0.00     0.119 A 
HETATM   26  C   UNK N   1      22.223  13.789   7.944  0.00  0.00     0.050 A 
HETATM   27  F   UNK N   1      21.498  12.425   9.756  0.00  0.00    -0.206 F 
ENDBRANCH   9  20
ENDBRANCH   8   9
ENDBRANCH   7   8
ENDBRANCH   4   7
BRANCH   1  28
HETATM   28  N   UNK N   1      28.311  14.457   2.554  0.00  0.00    -0.347 N 
HETATM   29  C   UNK N   1      29.571  14.942   2.841  0.00  0.00     0.224 C 
HETATM   30  O   UNK N   1      30.472  14.141   3.082  0.00  0.00    -0.273 OA
BRANCH  28  31
HETATM   31  C   UNK N   1      28.089  13.022   2.621  0.00  0.00     0.122 C 
HETATM   32  C   UNK N   1      28.455  12.346   1.312  0.00  0.00     0.026 C 
ENDBRANCH  28  31
BRANCH  29  33
HETATM   33  C   UNK N   1      29.898  16.416   2.890  0.00  0.00     0.141 C 
BRANCH  33  34
HETATM   34  C   UNK N   1      30.678  16.809   4.100  0.00  0.00    -0.049 A 
HETATM   35  C   UNK N   1      30.111  16.737   5.382  0.00  0.00     0.009 A 
HETATM   36  C   UNK N   1      30.881  17.046   6.509  0.00  0.00     0.024 A 
HETATM   37  C   UNK N   1      32.238  17.397   6.360  0.00  0.00     0.058 A 
HETATM   38  C   UNK N   1      32.770  17.530   5.057  0.00  0.00     0.024 A 
HETATM   39  C   UNK N   1      31.999  17.220   3.942  0.00  0.00     0.009 A 
BRANCH  37  40
HETATM   40  S   UNK N   1      33.244  17.894   7.799  0.00  0.00     0.171 S 
HETATM   41  O   UNK N   1      33.737  16.933   8.892  0.00  0.00    -0.223 OA
HETATM   42  O   UNK N   1      34.599  18.127   7.115  0.00  0.00    -0.223 OA
HETATM   43  C   UNK N   1      33.467  16.133   7.343  0.00  0.00     0.167 C 
ENDBRANCH  37  40
ENDBRANCH  33  34
ENDBRANCH  29  33
ENDBRANCH   1  28
TORSDOF 11
ENDMDL
MODEL 3
REMARK VINA RESULT:      -8.7      1.334      1.837
REMARK  11 active torsions:
REMARK  status: ('A' for Active; 'I' for Inactive)
REMARK    1  A    between atoms: C_2  and  N_3 
REMARK    2  A    between atoms: N_3  and  C_4 
REMARK       I    between atoms: N_3  and  C_31 
REMARK    3  A    between atoms: N_7  and  C_10 
REMARK    4  A    between atoms: C_10  and  C_11 
REMARK    5  A    between atoms: C_12  and  C_11 
REMARK    6  A    between atoms: C_12  and  C_13 
REMARK    7  A    between atoms: C_12  and  C_23 
REMARK    8  A    between atoms: C_16  and  S_19 
REMARK    9  A    between atoms: C_31  and  C_33 
REMARK   10  A    between atoms: C_33  and  C_34 
REMARK   11  A    between atoms: C_37  and  S_40 
ROOT
HETATM    1  C   UNK N   1      28.137  18.034   4.438  0.00  0.00     0.090 C 
HETATM    2  C   UNK N   1      28.515  16.604   4.022  0.00  0.00     0.055 C 
HETATM    3  C   UNK N   1      27.377  15.591   4.239  0.00  0.00     0.274 C 
HETATM    4  N   UNK N   1      26.339  16.110   5.137  0.00  0.00     0.088 N 
HETATM    5  C   UNK N   1      25.717  17.348   4.633  0.00  0.00     0.274 C 
HETATM    6  C   UNK N   1      26.713  18.277   3.928  0.00  0.00     0.055 C 
ENDROOT
BRANCH   4   7
HETATM    7  C   UNK N   1      25.325  15.073   5.369  0.00  0.00     0.273 C 
BRANCH   7   8
HETATM    8  C   UNK N   1      24.477  15.298   6.630  0.00  0.00     0.044 C 
BRANCH   8   9
HETATM    9  C   UNK N   1      23.011  14.908   6.431  0.00  0.00     0.053 C 
BRANCH   9  10
HETATM   10  C   UNK N   1      22.287  16.008   5.676  0.00  0.00    -0.050 A 
HETATM   11  C   UNK N   1      22.100  17.298   6.194  0.00  0.00     0.009 A 
HETATM   12  C   UNK N   1      21.432  18.275   5.449  0.00  0.00     0.024 A 
HETATM   13  C   UNK N   1      20.907  17.963   4.182  0.00  0.00     0.058 A 
HETATM   14  C   UNK N   1      21.108  16.680   3.653  0.00  0.00     0.024 A 
HETATM   15  C   UNK N   1      21.779  15.712   4.402  0.00  0.00     0.009 A 
BRANCH  13  16
HETATM   16  S   UNK N   1      20.171  19.258   3.150  0.00  0.00     0.171 S 
HETATM   17  O   UNK N   1      20.305  20.687   3.698  0.00  0.00    -0.223 OA
HETATM   18  O   UNK N   1      20.764  19.339   1.736  0.00  0.00    -0.223 OA
HETATM   19  C   UNK N   1      21.953  19.598   3.370  0.00  0.00     0.167 C 
ENDBRANCH  13  16
ENDBRANCH   9  10
BRANCH   9  20
HETATM   20  C   UNK N   1      22.450  14.338   7.719  0.00  0.00    -0.044 A 
HETATM   21  C   UNK N   1      23.245  13.451   8.460  0.00  0.00     0.050 A 
HETATM   22  C   UNK N   1      22.775  12.904   9.656  0.00  0.00     0.119 A 
HETATM   23  C   UNK N   1      21.506  13.246  10.128  0.00  0.00     0.084 A 
HETATM   24  F   UNK N   1      23.550  12.044  10.358  0.00  0.00    -0.206 F 
HETATM   25  C   UNK N   1      20.707  14.131   9.401  0.00  0.00     0.119 A 
HETATM   26  C   UNK N   1      21.177  14.673   8.202  0.00  0.00     0.050 A 
HETATM   27  F   UNK N   1      19.479  14.468   9.859  0.00  0.00    -0.206 F 
ENDBRANCH   9  20
ENDBRANCH   8   9
ENDBRANCH   7   8
ENDBRANCH   4   7
BRANCH   1  28
HETATM   28  N   UNK N   1      28.240  18.365   5.877  0.00  0.00    -0.347 N 
HETATM   29  C   UNK N   1      29.183  17.851   6.743  0.00  0.00     0.224 C 
HETATM   30  O   UNK N   1      29.126  18.161   7.932  0.00  0.00    -0.273 OA
BRANCH  28  31
HETATM   31  C   UNK N   1      27.264  19.309   6.395  0.00  0.00     0.122 C 
HETATM   32  C   UNK N   1      27.704  20.742   6.155  0.00  0.00     0.026 C 
ENDBRANCH  28  31
BRANCH  29  33
HETATM   33  C   UNK N   1      30.299  16.932   6.302  0.00  0.00     0.141 C 
BRANCH  33  34
HETATM   34  C   UNK N   1      31.360  16.752   7.336  0.00  0.00    -0.049 A 
HETATM   35  C   UNK N   1      31.437  15.575   8.096  0.00  0.00     0.009 A 
HETATM   36  C   UNK N   1      32.480  15.398   9.013  0.00  0.00     0.024 A 
HETATM   37  C   UNK N   1      33.475  16.388   9.148  0.00  0.00     0.058 A 
HETATM   38  C   UNK N   1      33.341  17.594   8.422  0.00  0.00     0.024 A 
HETATM   39  C   UNK N   1      32.303  17.762   7.512  0.00  0.00     0.009 A 
BRANCH  37  40
HETATM   40  S   UNK N   1      34.796  16.231  10.397  0.00  0.00     0.171 S 
HETATM   41  O   UNK N   1      35.953  15.222  10.321  0.00  0.00    -0.223 OA
HETATM   42  O   UNK N   1      35.613  17.493  10.088  0.00  0.00    -0.223 OA
HETATM   43  C   UNK N   1      35.309  15.653   8.736  0.00  0.00     0.167 C 
ENDBRANCH  37  40
ENDBRANCH  33  34
ENDBRANCH  29  33
ENDBRANCH   1  28
TORSDOF 11
ENDMDL
MODEL 4
REMARK VINA RESULT:      -8.6      5.503      9.084
REMARK  11 active torsions:
REMARK  status: ('A' for Active; 'I' for Inactive)
REMARK    1  A    between atoms: C_2  and  N_3 
REMARK    2  A    between atoms: N_3  and  C_4 
REMARK       I    between atoms: N_3  and  C_31 
REMARK    3  A    between atoms: N_7  and  C_10 
REMARK    4  A    between atoms: C_10  and  C_11 
REMARK    5  A    between atoms: C_12  and  C_11 
REMARK    6  A    between atoms: C_12  and  C_13 
REMARK    7  A    between atoms: C_12  and  C_23 
REMARK    8  A    between atoms: C_16  and  S_19 
REMARK    9  A    between atoms: C_31  and  C_33 
REMARK   10  A    between atoms: C_33  and  C_34 
REMARK   11  A    between atoms: C_37  and  S_40 
ROOT
HETATM    1  C   UNK N   1      23.253  12.032   0.868  0.00  0.00     0.090 C 
HETATM    2  C   UNK N   1      23.515  13.322   0.074  0.00  0.00     0.055 C 
HETATM    3  C   UNK N   1      24.437  14.309   0.812  0.00  0.00     0.274 C 
HETATM    4  N   UNK N   1      24.550  13.996   2.242  0.00  0.00     0.088 N 
HETATM    5  C   UNK N   1      25.088  12.645   2.488  0.00  0.00     0.274 C 
HETATM    6  C   UNK N   1      24.596  11.608   1.471  0.00  0.00     0.055 C 
ENDROOT
BRANCH   4   7
HETATM    7  C   UNK N   1      25.374  15.014   2.905  0.00  0.00     0.273 C 
BRANCH   7   8
HETATM    8  C   UNK N   1      24.620  16.311   3.236  0.00  0.00     0.044 C 
BRANCH   8   9
HETATM    9  C   UNK N   1      24.916  16.821   4.647  0.00  0.00     0.053 C 
BRANCH   9  10
HETATM   10  C   UNK N   1      23.674  16.693   5.510  0.00  0.00    -0.050 A 
HETATM   11  C   UNK N   1      22.753  17.736   5.687  0.00  0.00     0.009 A 
HETATM   12  C   UNK N   1      21.621  17.558   6.487  0.00  0.00     0.024 A 
HETATM   13  C   UNK N   1      21.408  16.338   7.154  0.00  0.00     0.058 A 
HETATM   14  C   UNK N   1      22.317  15.286   6.963  0.00  0.00     0.024 A 
HETATM   15  C   UNK N   1      23.443  15.472   6.161  0.00  0.00     0.009 A 
BRANCH  13  16
HETATM   16  S   UNK N   1      19.874  16.048   8.072  0.00  0.00     0.171 S 
HETATM   17  O   UNK N   1      18.581  16.250   7.266  0.00  0.00    -0.223 OA
HETATM   18  O   UNK N   1      19.746  14.626   8.637  0.00  0.00    -0.223 OA
HETATM   19  C   UNK N   1      19.941  14.925   6.631  0.00  0.00     0.167 C 
ENDBRANCH  13  16
ENDBRANCH   9  10
BRANCH   9  20
HETATM   20  C   UNK N   1      25.690  18.123   4.573  0.00  0.00    -0.044 A 
HETATM   21  C   UNK N   1      25.459  18.977   3.483  0.00  0.00     0.050 A 
HETATM   22  C   UNK N   1      26.143  20.190   3.374  0.00  0.00     0.119 A 
HETATM   23  C   UNK N   1      27.059  20.566   4.357  0.00  0.00     0.084 A 
HETATM   24  F   UNK N   1      25.916  21.001   2.313  0.00  0.00    -0.206 F 
HETATM   25  C   UNK N   1      27.294  19.726   5.448  0.00  0.00     0.119 A 
HETATM   26  C   UNK N   1      26.614  18.511   5.554  0.00  0.00     0.050 A 
HETATM   27  F   UNK N   1      28.179  20.090   6.406  0.00  0.00    -0.206 F 
ENDBRANCH   9  20
ENDBRANCH   8   9
ENDBRANCH   7   8
ENDBRANCH   4   7
BRANCH   1  28
HETATM   28  N   UNK N   1      22.206  12.087   1.912  0.00  0.00    -0.347 N 
HETATM   29  C   UNK N   1      21.152  12.977   1.932  0.00  0.00     0.224 C 
HETATM   30  O   UNK N   1      20.380  12.958   2.888  0.00  0.00    -0.273 OA
BRANCH  28  31
HETATM   31  C   UNK N   1      22.315  11.117   2.988  0.00  0.00     0.122 C 
HETATM   32  C   UNK N   1      21.674   9.796   2.605  0.00  0.00     0.026 C 
ENDBRANCH  28  31
BRANCH  29  33
HETATM   33  C   UNK N   1      20.886  13.970   0.824  0.00  0.00     0.141 C 
BRANCH  33  34
HETATM   34  C   UNK N   1      20.641  15.357   1.318  0.00  0.00    -0.049 A 
HETATM   35  C   UNK N   1      21.013  15.739   2.616  0.00  0.00     0.009 A 
HETATM   36  C   UNK N   1      20.836  17.062   3.037  0.00  0.00     0.024 A 
HETATM   37  C   UNK N   1      20.316  18.022   2.143  0.00  0.00     0.058 A 
HETATM   38  C   UNK N   1      19.885  17.600   0.865  0.00  0.00     0.024 A 
HETATM   39  C   UNK N   1      20.065  16.284   0.454  0.00  0.00     0.009 A 
BRANCH  37  40
HETATM   40  S   UNK N   1      19.987  19.732   2.687  0.00  0.00     0.171 S 
HETATM   41  O   UNK N   1      20.895  20.537   3.631  0.00  0.00    -0.223 OA
HETATM   42  O   UNK N   1      20.318  20.495   1.396  0.00  0.00    -0.223 OA
HETATM   43  C   UNK N   1      21.767  19.297   2.727  0.00  0.00     0.167 C 
ENDBRANCH  37  40
ENDBRANCH  33  34
ENDBRANCH  29  33
ENDBRANCH   1  28
TORSDOF 11
ENDMDL
MODEL 5
REMARK VINA RESULT:      -8.5      2.960      9.940
REMARK  11 active torsions:
REMARK  status: ('A' for Active; 'I' for Inactive)
REMARK    1  A    between atoms: C_2  and  N_3 
REMARK    2  A    between atoms: N_3  and  C_4 
REMARK       I    between atoms: N_3  and  C_31 
REMARK    3  A    between atoms: N_7  and  C_10 
REMARK    4  A    between atoms: C_10  and  C_11 
REMARK    5  A    between atoms: C_12  and  C_11 
REMARK    6  A    between atoms: C_12  and  C_13 
REMARK    7  A    between atoms: C_12  and  C_23 
REMARK    8  A    between atoms: C_16  and  S_19 
REMARK    9  A    between atoms: C_31  and  C_33 
REMARK   10  A    between atoms: C_33  and  C_34 
REMARK   11  A    between atoms: C_37  and  S_40 
ROOT
HETATM    1  C   UNK N   1      23.860  13.144   6.168  0.00  0.00     0.090 C 
HETATM    2  C   UNK N   1      24.021  13.640   4.722  0.00  0.00     0.055 C 
HETATM    3  C   UNK N   1      24.940  14.869   4.604  0.00  0.00     0.274 C 
HETATM    4  N   UNK N   1      25.148  15.530   5.898  0.00  0.00     0.088 N 
HETATM    5  C   UNK N   1      25.756  14.637   6.902  0.00  0.00     0.274 C 
HETATM    6  C   UNK N   1      25.252  13.192   6.806  0.00  0.00     0.055 C 
ENDROOT
BRANCH   4   7
HETATM    7  C   UNK N   1      25.964  16.736   5.709  0.00  0.00     0.273 C 
BRANCH   7   8
HETATM    8  C   UNK N   1      27.464  16.523   5.966  0.00  0.00     0.044 C 
BRANCH   8   9
HETATM    9  C   UNK N   1      28.341  17.495   5.176  0.00  0.00     0.053 C 
BRANCH   9  10
HETATM   10  C   UNK N   1      29.786  17.356   5.617  0.00  0.00    -0.050 A 
HETATM   11  C   UNK N   1      30.867  17.392   4.724  0.00  0.00     0.009 A 
HETATM   12  C   UNK N   1      32.180  17.269   5.189  0.00  0.00     0.024 A 
HETATM   13  C   UNK N   1      32.430  17.070   6.559  0.00  0.00     0.058 A 
HETATM   14  C   UNK N   1      31.353  17.052   7.457  0.00  0.00     0.024 A 
HETATM   15  C   UNK N   1      30.047  17.180   6.985  0.00  0.00     0.009 A 
BRANCH  13  16
HETATM   16  S   UNK N   1      34.129  17.055   7.189  0.00  0.00     0.171 S 
HETATM   17  O   UNK N   1      34.763  18.439   7.394  0.00  0.00    -0.223 OA
HETATM   18  O   UNK N   1      34.281  16.366   8.552  0.00  0.00    -0.223 OA
HETATM   19  C   UNK N   1      33.062  17.984   8.345  0.00  0.00     0.167 C 
ENDBRANCH  13  16
ENDBRANCH   9  10
BRANCH   9  20
HETATM   20  C   UNK N   1      27.669  18.853   5.102  0.00  0.00    -0.044 A 
HETATM   21  C   UNK N   1      27.184  19.293   3.861  0.00  0.00     0.050 A 
HETATM   22  C   UNK N   1      26.552  20.533   3.743  0.00  0.00     0.119 A 
HETATM   23  C   UNK N   1      26.391  21.343   4.868  0.00  0.00     0.084 A 
HETATM   24  F   UNK N   1      26.096  20.948   2.537  0.00  0.00    -0.206 F 
HETATM   25  C   UNK N   1      26.866  20.914   6.109  0.00  0.00     0.119 A 
HETATM   26  C   UNK N   1      27.502  19.676   6.225  0.00  0.00     0.050 A 
HETATM   27  F   UNK N   1      26.707  21.696   7.203  0.00  0.00    -0.206 F 
ENDBRANCH   9  20
ENDBRANCH   8   9
ENDBRANCH   7   8
ENDBRANCH   4   7
BRANCH   1  28
HETATM   28  N   UNK N   1      22.873  13.850   7.014  0.00  0.00    -0.347 N 
HETATM   29  C   UNK N   1      21.809  14.591   6.542  0.00  0.00     0.224 C 
HETATM   30  O   UNK N   1      21.092  15.179   7.350  0.00  0.00    -0.273 OA
BRANCH  28  31
HETATM   31  C   UNK N   1      23.055  13.737   8.451  0.00  0.00     0.122 C 
HETATM   32  C   UNK N   1      22.392  12.484   8.994  0.00  0.00     0.026 C 
ENDBRANCH  28  31
BRANCH  29  33
HETATM   33  C   UNK N   1      21.467  14.707   5.074  0.00  0.00     0.141 C 
BRANCH  33  34
HETATM   34  C   UNK N   1      21.371  16.118   4.598  0.00  0.00    -0.049 A 
HETATM   35  C   UNK N   1      21.839  17.181   5.385  0.00  0.00     0.009 A 
HETATM   36  C   UNK N   1      21.801  18.490   4.892  0.00  0.00     0.024 A 
HETATM   37  C   UNK N   1      21.324  18.738   3.588  0.00  0.00     0.058 A 
HETATM   38  C   UNK N   1      20.795  17.662   2.839  0.00  0.00     0.024 A 
HETATM   39  C   UNK N   1      20.837  16.364   3.335  0.00  0.00     0.009 A 
BRANCH  37  40
HETATM   40  S   UNK N   1      21.175  20.441   2.948  0.00  0.00     0.171 S 
HETATM   41  O   UNK N   1      22.319  21.467   2.928  0.00  0.00    -0.223 OA
HETATM   42  O   UNK N   1      21.134  20.161   1.439  0.00  0.00    -0.223 OA
HETATM   43  C   UNK N   1      22.891  19.798   2.885  0.00  0.00     0.167 C 
ENDBRANCH  37  40
ENDBRANCH  33  34
ENDBRANCH  29  33
ENDBRANCH   1  28
TORSDOF 11
ENDMDL
MODEL 6
REMARK VINA RESULT:      -8.4      3.037      9.859
REMARK  11 active torsions:
REMARK  status: ('A' for Active; 'I' for Inactive)
REMARK    1  A    between atoms: C_2  and  N_3 
REMARK    2  A    between atoms: N_3  and  C_4 
REMARK       I    between atoms: N_3  and  C_31 
REMARK    3  A    between atoms: N_7  and  C_10 
REMARK    4  A    between atoms: C_10  and  C_11 
REMARK    5  A    between atoms: C_12  and  C_11 
REMARK    6  A    between atoms: C_12  and  C_13 
REMARK    7  A    between atoms: C_12  and  C_23 
REMARK    8  A    between atoms: C_16  and  S_19 
REMARK    9  A    between atoms: C_31  and  C_33 
REMARK   10  A    between atoms: C_33  and  C_34 
REMARK   11  A    between atoms: C_37  and  S_40 
ROOT
HETATM    1  C   UNK N   1      23.740  12.509   5.484  0.00  0.00     0.090 C 
HETATM    2  C   UNK N   1      23.789  13.055   4.048  0.00  0.00     0.055 C 
HETATM    3  C   UNK N   1      25.106  13.782   3.723  0.00  0.00     0.274 C 
HETATM    4  N   UNK N   1      25.855  14.136   4.935  0.00  0.00     0.088 N 
HETATM    5  C   UNK N   1      26.207  12.960   5.750  0.00  0.00     0.274 C 
HETATM    6  C   UNK N   1      25.111  11.888   5.764  0.00  0.00     0.055 C 
ENDROOT
BRANCH   4   7
HETATM    7  C   UNK N   1      27.056  14.896   4.566  0.00  0.00     0.273 C 
BRANCH   7   8
HETATM    8  C   UNK N   1      27.346  16.093   5.483  0.00  0.00     0.044 C 
BRANCH   8   9
HETATM    9  C   UNK N   1      28.226  17.149   4.813  0.00  0.00     0.053 C 
BRANCH   9  10
HETATM   10  C   UNK N   1      29.615  17.122   5.425  0.00  0.00    -0.050 A 
HETATM   11  C   UNK N   1      29.852  16.819   6.774  0.00  0.00     0.009 A 
HETATM   12  C   UNK N   1      31.155  16.799   7.281  0.00  0.00     0.024 A 
HETATM   13  C   UNK N   1      32.244  17.120   6.450  0.00  0.00     0.058 A 
HETATM   14  C   UNK N   1      32.012  17.405   5.096  0.00  0.00     0.024 A 
HETATM   15  C   UNK N   1      30.709  17.419   4.598  0.00  0.00     0.009 A 
BRANCH  13  16
HETATM   16  S   UNK N   1      33.942  16.955   7.058  0.00  0.00     0.171 S 
HETATM   17  O   UNK N   1      34.712  18.275   7.216  0.00  0.00    -0.223 OA
HETATM   18  O   UNK N   1      34.047  16.291   8.439  0.00  0.00    -0.223 OA
HETATM   19  C   UNK N   1      32.989  18.015   8.201  0.00  0.00     0.167 C 
ENDBRANCH  13  16
ENDBRANCH   9  10
BRANCH   9  20
HETATM   20  C   UNK N   1      27.456  18.448   4.671  0.00  0.00    -0.044 A 
HETATM   21  C   UNK N   1      27.592  19.419   5.674  0.00  0.00     0.050 A 
HETATM   22  C   UNK N   1      26.908  20.634   5.585  0.00  0.00     0.119 A 
HETATM   23  C   UNK N   1      26.087  20.893   4.486  0.00  0.00     0.084 A 
HETATM   24  F   UNK N   1      27.043  21.560   6.565  0.00  0.00    -0.206 F 
HETATM   25  C   UNK N   1      25.947  19.935   3.480  0.00  0.00     0.119 A 
HETATM   26  C   UNK N   1      26.627  18.719   3.572  0.00  0.00     0.050 A 
HETATM   27  F   UNK N   1      25.155  20.186   2.411  0.00  0.00    -0.206 F 
ENDBRANCH   9  20
ENDBRANCH   8   9
ENDBRANCH   7   8
ENDBRANCH   4   7
BRANCH   1  28
HETATM   28  N   UNK N   1      23.370  13.463   6.552  0.00  0.00    -0.347 N 
HETATM   29  C   UNK N   1      22.447  14.481   6.423  0.00  0.00     0.224 C 
HETATM   30  O   UNK N   1      22.272  15.244   7.371  0.00  0.00    -0.273 OA
BRANCH  28  31
HETATM   31  C   UNK N   1      24.040  13.294   7.830  0.00  0.00     0.122 C 
HETATM   32  C   UNK N   1      23.273  12.344   8.733  0.00  0.00     0.026 C 
ENDBRANCH  28  31
BRANCH  29  33
HETATM   33  C   UNK N   1      21.625  14.699   5.174  0.00  0.00     0.141 C 
BRANCH  33  34
HETATM   34  C   UNK N   1      21.701  16.095   4.651  0.00  0.00    -0.049 A 
HETATM   35  C   UNK N   1      22.922  16.647   4.237  0.00  0.00     0.009 A 
HETATM   36  C   UNK N   1      22.961  17.934   3.687  0.00  0.00     0.024 A 
HETATM   37  C   UNK N   1      21.766  18.663   3.517  0.00  0.00     0.058 A 
HETATM   38  C   UNK N   1      20.557  18.116   4.004  0.00  0.00     0.024 A 
HETATM   39  C   UNK N   1      20.527  16.836   4.547  0.00  0.00     0.009 A 
BRANCH  37  40
HETATM   40  S   UNK N   1      21.791  20.377   2.889  0.00  0.00     0.171 S 
HETATM   41  O   UNK N   1      21.554  20.771   1.423  0.00  0.00    -0.223 OA
HETATM   42  O   UNK N   1      20.458  20.890   3.451  0.00  0.00    -0.223 OA
HETATM   43  C   UNK N   1      20.772  19.252   1.862  0.00  0.00     0.167 C 
ENDBRANCH  37  40
ENDBRANCH  33  34
ENDBRANCH  29  33
ENDBRANCH   1  28
TORSDOF 11
ENDMDL
MODEL 7
REMARK VINA RESULT:      -8.4      3.608      5.507
REMARK  11 active torsions:
REMARK  status: ('A' for Active; 'I' for Inactive)
REMARK    1  A    between atoms: C_2  and  N_3 
REMARK    2  A    between atoms: N_3  and  C_4 
REMARK       I    between atoms: N_3  and  C_31 
REMARK    3  A    between atoms: N_7  and  C_10 
REMARK    4  A    between atoms: C_10  and  C_11 
REMARK    5  A    between atoms: C_12  and  C_11 
REMARK    6  A    between atoms: C_12  and  C_13 
REMARK    7  A    between atoms: C_12  and  C_23 
REMARK    8  A    between atoms: C_16  and  S_19 
REMARK    9  A    between atoms: C_31  and  C_33 
REMARK   10  A    between atoms: C_33  and  C_34 
REMARK   11  A    between atoms: C_37  and  S_40 
ROOT
HETATM    1  C   UNK N   1      30.513  14.510   4.063  0.00  0.00     0.090 C 
HETATM    2  C   UNK N   1      29.514  13.889   5.052  0.00  0.00     0.055 C 
HETATM    3  C   UNK N   1      28.073  13.852   4.512  0.00  0.00     0.274 C 
HETATM    4  N   UNK N   1      27.891  14.750   3.364  0.00  0.00     0.088 N 
HETATM    5  C   UNK N   1      28.777  14.417   2.235  0.00  0.00     0.274 C 
HETATM    6  C   UNK N   1      30.169  13.949   2.680  0.00  0.00     0.055 C 
ENDROOT
BRANCH   4   7
HETATM    7  C   UNK N   1      26.483  14.733   2.946  0.00  0.00     0.273 C 
BRANCH   7   8
HETATM    8  C   UNK N   1      25.734  16.046   3.217  0.00  0.00     0.044 C 
BRANCH   8   9
HETATM    9  C   UNK N   1      25.874  16.516   4.665  0.00  0.00     0.053 C 
BRANCH   9  10
HETATM   10  C   UNK N   1      24.679  16.046   5.475  0.00  0.00    -0.050 A 
HETATM   11  C   UNK N   1      24.722  14.935   6.330  0.00  0.00     0.009 A 
HETATM   12  C   UNK N   1      23.592  14.553   7.058  0.00  0.00     0.024 A 
HETATM   13  C   UNK N   1      22.383  15.260   6.914  0.00  0.00     0.058 A 
HETATM   14  C   UNK N   1      22.342  16.382   6.074  0.00  0.00     0.024 A 
HETATM   15  C   UNK N   1      23.476  16.758   5.354  0.00  0.00     0.009 A 
BRANCH  13  16
HETATM   16  S   UNK N   1      20.959  14.864   7.961  0.00  0.00     0.171 S 
HETATM   17  O   UNK N   1      19.614  15.430   7.477  0.00  0.00    -0.223 OA
HETATM   18  O   UNK N   1      20.700  13.359   8.116  0.00  0.00    -0.223 OA
HETATM   19  C   UNK N   1      20.667  14.226   6.273  0.00  0.00     0.167 C 
ENDBRANCH  13  16
ENDBRANCH   9  10
BRANCH   9  20
HETATM   20  C   UNK N   1      26.323  17.964   4.697  0.00  0.00    -0.044 A 
HETATM   21  C   UNK N   1      26.992  18.432   5.838  0.00  0.00     0.050 A 
HETATM   22  C   UNK N   1      27.431  19.757   5.913  0.00  0.00     0.119 A 
HETATM   23  C   UNK N   1      27.212  20.625   4.841  0.00  0.00     0.084 A 
HETATM   24  F   UNK N   1      28.069  20.197   7.023  0.00  0.00    -0.206 F 
HETATM   25  C   UNK N   1      26.551  20.169   3.698  0.00  0.00     0.119 A 
HETATM   26  C   UNK N   1      26.109  18.846   3.628  0.00  0.00     0.050 A 
HETATM   27  F   UNK N   1      26.343  21.007   2.656  0.00  0.00    -0.206 F 
ENDBRANCH   9  20
ENDBRANCH   8   9
ENDBRANCH   7   8
ENDBRANCH   4   7
BRANCH   1  28
HETATM   28  N   UNK N   1      30.588  15.987   4.023  0.00  0.00    -0.347 N 
HETATM   29  C   UNK N   1      30.310  16.824   5.085  0.00  0.00     0.224 C 
HETATM   30  O   UNK N   1      30.354  18.040   4.906  0.00  0.00    -0.273 OA
BRANCH  28  31
HETATM   31  C   UNK N   1      30.992  16.580   2.760  0.00  0.00     0.122 C 
HETATM   32  C   UNK N   1      32.478  16.890   2.747  0.00  0.00     0.026 C 
ENDBRANCH  28  31
BRANCH  29  33
HETATM   33  C   UNK N   1      29.968  16.321   6.468  0.00  0.00     0.141 C 
BRANCH  33  34
HETATM   34  C   UNK N   1      31.139  16.290   7.393  0.00  0.00    -0.049 A 
HETATM   35  C   UNK N   1      31.709  15.074   7.798  0.00  0.00     0.009 A 
HETATM   36  C   UNK N   1      32.849  15.069   8.612  0.00  0.00     0.024 A 
HETATM   37  C   UNK N   1      33.445  16.287   8.996  0.00  0.00     0.058 A 
HETATM   38  C   UNK N   1      32.814  17.500   8.634  0.00  0.00     0.024 A 
HETATM   39  C   UNK N   1      31.684  17.497   7.825  0.00  0.00     0.009 A 
BRANCH  37  40
HETATM   40  S   UNK N   1      34.874  16.318  10.130  0.00  0.00     0.171 S 
HETATM   41  O   UNK N   1      36.191  15.561   9.894  0.00  0.00    -0.223 OA
HETATM   42  O   UNK N   1      35.407  17.732   9.856  0.00  0.00    -0.223 OA
HETATM   43  C   UNK N   1      35.342  15.950   8.397  0.00  0.00     0.167 C 
ENDBRANCH  37  40
ENDBRANCH  33  34
ENDBRANCH  29  33
ENDBRANCH   1  28
TORSDOF 11
ENDMDL
MODEL 8
REMARK VINA RESULT:      -8.3      2.091      2.927
REMARK  11 active torsions:
REMARK  status: ('A' for Active; 'I' for Inactive)
REMARK    1  A    between atoms: C_2  and  N_3 
REMARK    2  A    between atoms: N_3  and  C_4 
REMARK       I    between atoms: N_3  and  C_31 
REMARK    3  A    between atoms: N_7  and  C_10 
REMARK    4  A    between atoms: C_10  and  C_11 
REMARK    5  A    between atoms: C_12  and  C_11 
REMARK    6  A    between atoms: C_12  and  C_13 
REMARK    7  A    between atoms: C_12  and  C_23 
REMARK    8  A    between atoms: C_16  and  S_19 
REMARK    9  A    between atoms: C_31  and  C_33 
REMARK   10  A    between atoms: C_33  and  C_34 
REMARK   11  A    between atoms: C_37  and  S_40 
ROOT
HETATM    1  C   UNK N   1      27.239  15.131   2.774  0.00  0.00     0.090 C 
HETATM    2  C   UNK N   1      26.006  14.298   2.389  0.00  0.00     0.055 C 
HETATM    3  C   UNK N   1      25.422  13.502   3.570  0.00  0.00     0.274 C 
HETATM    4  N   UNK N   1      26.369  13.397   4.687  0.00  0.00     0.088 N 
HETATM    5  C   UNK N   1      26.772  14.712   5.217  0.00  0.00     0.274 C 
HETATM    6  C   UNK N   1      26.926  15.779   4.126  0.00  0.00     0.055 C 
ENDROOT
BRANCH   4   7
HETATM    7  C   UNK N   1      25.790  12.561   5.746  0.00  0.00     0.273 C 
BRANCH   7   8
HETATM    8  C   UNK N   1      25.165  13.359   6.901  0.00  0.00     0.044 C 
BRANCH   8   9
HETATM    9  C   UNK N   1      23.653  13.159   7.006  0.00  0.00     0.053 C 
BRANCH   9  10
HETATM   10  C   UNK N   1      22.936  14.249   6.230  0.00  0.00    -0.050 A 
HETATM   11  C   UNK N   1      22.074  13.985   5.156  0.00  0.00     0.009 A 
HETATM   12  C   UNK N   1      21.434  15.030   4.483  0.00  0.00     0.024 A 
HETATM   13  C   UNK N   1      21.675  16.365   4.855  0.00  0.00     0.058 A 
HETATM   14  C   UNK N   1      22.521  16.632   5.940  0.00  0.00     0.024 A 
HETATM   15  C   UNK N   1      23.154  15.583   6.608  0.00  0.00     0.009 A 
BRANCH  13  16
HETATM   16  S   UNK N   1      20.740  17.714   4.088  0.00  0.00     0.171 S 
HETATM   17  O   UNK N   1      21.103  19.124   4.579  0.00  0.00    -0.223 OA
HETATM   18  O   UNK N   1      20.900  17.793   2.563  0.00  0.00    -0.223 OA
HETATM   19  C   UNK N   1      22.524  17.962   3.781  0.00  0.00     0.167 C 
ENDBRANCH  13  16
ENDBRANCH   9  10
BRANCH   9  20
HETATM   20  C   UNK N   1      23.274  12.835   8.438  0.00  0.00    -0.044 A 
HETATM   21  C   UNK N   1      24.292  12.477   9.335  0.00  0.00     0.050 A 
HETATM   22  C   UNK N   1      23.993  12.176  10.666  0.00  0.00     0.119 A 
HETATM   23  C   UNK N   1      22.673  12.238  11.116  0.00  0.00     0.084 A 
HETATM   24  F   UNK N   1      24.985  11.825  11.519  0.00  0.00    -0.206 F 
HETATM   25  C   UNK N   1      21.652  12.596  10.233  0.00  0.00     0.119 A 
HETATM   26  C   UNK N   1      21.951  12.892   8.901  0.00  0.00     0.050 A 
HETATM   27  F   UNK N   1      20.372  12.661  10.668  0.00  0.00    -0.206 F 
ENDBRANCH   9  20
ENDBRANCH   8   9
ENDBRANCH   7   8
ENDBRANCH   4   7
BRANCH   1  28
HETATM   28  N   UNK N   1      28.538  14.425   2.821  0.00  0.00    -0.347 N 
HETATM   29  C   UNK N   1      29.766  15.034   2.981  0.00  0.00     0.224 C 
HETATM   30  O   UNK N   1      30.780  14.339   2.945  0.00  0.00    -0.273 OA
BRANCH  28  31
HETATM   31  C   UNK N   1      28.493  12.979   2.690  0.00  0.00     0.122 C 
HETATM   32  C   UNK N   1      28.817  12.544   1.273  0.00  0.00     0.026 C 
ENDBRANCH  28  31
BRANCH  29  33
HETATM   33  C   UNK N   1      29.930  16.518   3.214  0.00  0.00     0.141 C 
BRANCH  33  34
HETATM   34  C   UNK N   1      30.761  16.840   4.412  0.00  0.00    -0.049 A 
HETATM   35  C   UNK N   1      30.290  16.588   5.709  0.00  0.00     0.009 A 
HETATM   36  C   UNK N   1      31.112  16.835   6.815  0.00  0.00     0.024 A 
HETATM   37  C   UNK N   1      32.428  17.304   6.624  0.00  0.00     0.058 A 
HETATM   38  C   UNK N   1      32.858  17.617   5.314  0.00  0.00     0.024 A 
HETATM   39  C   UNK N   1      32.036  17.367   4.220  0.00  0.00     0.009 A 
BRANCH  37  40
HETATM   40  S   UNK N   1      33.493  17.723   8.046  0.00  0.00     0.171 S 
HETATM   41  O   UNK N   1      34.277  16.697   8.879  0.00  0.00    -0.223 OA
HETATM   42  O   UNK N   1      34.692  18.341   7.313  0.00  0.00    -0.223 OA
HETATM   43  C   UNK N   1      33.972  16.154   7.229  0.00  0.00     0.167 C 
ENDBRANCH  37  40
ENDBRANCH  33  34
ENDBRANCH  29  33
ENDBRANCH   1  28
TORSDOF 11
ENDMDL
MODEL 9
REMARK VINA RESULT:      -8.3      3.457      5.234
REMARK  11 active torsions:
REMARK  status: ('A' for Active; 'I' for Inactive)
REMARK    1  A    between atoms: C_2  and  N_3 
REMARK    2  A    between atoms: N_3  and  C_4 
REMARK       I    between atoms: N_3  and  C_31 
REMARK    3  A    between atoms: N_7  and  C_10 
REMARK    4  A    between atoms: C_10  and  C_11 
REMARK    5  A    between atoms: C_12  and  C_11 
REMARK    6  A    between atoms: C_12  and  C_13 
REMARK    7  A    between atoms: C_12  and  C_23 
REMARK    8  A    between atoms: C_16  and  S_19 
REMARK    9  A    between atoms: C_31  and  C_33 
REMARK   10  A    between atoms: C_33  and  C_34 
REMARK   11  A    between atoms: C_37  and  S_40 
ROOT
HETATM    1  C   UNK N   1      27.427  19.391   4.270  0.00  0.00     0.090 C 
HETATM    2  C   UNK N   1      26.991  17.930   4.073  0.00  0.00     0.055 C 
HETATM    3  C   UNK N   1      25.464  17.745   4.109  0.00  0.00     0.274 C 
HETATM    4  N   UNK N   1      24.781  18.902   4.699  0.00  0.00     0.088 N 
HETATM    5  C   UNK N   1      25.042  20.154   3.964  0.00  0.00     0.274 C 
HETATM    6  C   UNK N   1      26.477  20.249   3.430  0.00  0.00     0.055 C 
ENDROOT
BRANCH   4   7
HETATM    7  C   UNK N   1      23.340  18.635   4.780  0.00  0.00     0.273 C 
BRANCH   7   8
HETATM    8  C   UNK N   1      22.896  17.365   4.038  0.00  0.00     0.044 C 
BRANCH   8   9
HETATM    9  C   UNK N   1      21.480  16.927   4.413  0.00  0.00     0.053 C 
BRANCH   9  10
HETATM   10  C   UNK N   1      21.503  16.206   5.749  0.00  0.00    -0.050 A 
HETATM   11  C   UNK N   1      20.636  16.521   6.805  0.00  0.00     0.009 A 
HETATM   12  C   UNK N   1      20.696  15.817   8.011  0.00  0.00     0.024 A 
HETATM   13  C   UNK N   1      21.656  14.804   8.192  0.00  0.00     0.058 A 
HETATM   14  C   UNK N   1      22.512  14.473   7.132  0.00  0.00     0.024 A 
HETATM   15  C   UNK N   1      22.442  15.180   5.930  0.00  0.00     0.009 A 
BRANCH  13  16
HETATM   16  S   UNK N   1      21.646  13.789   9.693  0.00  0.00     0.171 S 
HETATM   17  O   UNK N   1      20.405  12.901   9.874  0.00  0.00    -0.223 OA
HETATM   18  O   UNK N   1      22.826  12.811   9.790  0.00  0.00    -0.223 OA
HETATM   19  C   UNK N   1      21.524  12.705   8.226  0.00  0.00     0.167 C 
ENDBRANCH  13  16
ENDBRANCH   9  10
BRANCH   9  20
HETATM   20  C   UNK N   1      20.790  16.322   3.206  0.00  0.00    -0.044 A 
HETATM   21  C   UNK N   1      20.751  17.065   2.016  0.00  0.00     0.050 A 
HETATM   22  C   UNK N   1      20.133  16.548   0.875  0.00  0.00     0.119 A 
HETATM   23  C   UNK N   1      19.554  15.278   0.910  0.00  0.00     0.084 A 
HETATM   24  F   UNK N   1      20.097  17.279  -0.265  0.00  0.00    -0.206 F 
HETATM   25  C   UNK N   1      19.589  14.528   2.088  0.00  0.00     0.119 A 
HETATM   26  C   UNK N   1      20.204  15.048   3.229  0.00  0.00     0.050 A 
HETATM   27  F   UNK N   1      19.033  13.295   2.123  0.00  0.00    -0.206 F 
ENDBRANCH   9  20
ENDBRANCH   8   9
ENDBRANCH   7   8
ENDBRANCH   4   7
BRANCH   1  28
HETATM   28  N   UNK N   1      27.491  19.890   5.661  0.00  0.00    -0.347 N 
HETATM   29  C   UNK N   1      27.822  19.129   6.763  0.00  0.00     0.224 C 
HETATM   30  O   UNK N   1      27.782  19.650   7.876  0.00  0.00    -0.273 OA
BRANCH  28  31
HETATM   31  C   UNK N   1      27.181  21.296   5.858  0.00  0.00     0.122 C 
HETATM   32  C   UNK N   1      26.142  21.484   6.949  0.00  0.00     0.026 C 
ENDBRANCH  28  31
BRANCH  29  33
HETATM   33  C   UNK N   1      28.248  17.682   6.672  0.00  0.00     0.141 C 
BRANCH  33  34
HETATM   34  C   UNK N   1      29.722  17.490   6.810  0.00  0.00    -0.049 A 
HETATM   35  C   UNK N   1      30.331  17.445   8.073  0.00  0.00     0.009 A 
HETATM   36  C   UNK N   1      31.704  17.197   8.183  0.00  0.00     0.024 A 
HETATM   37  C   UNK N   1      32.471  16.955   7.024  0.00  0.00     0.058 A 
HETATM   38  C   UNK N   1      31.851  17.073   5.759  0.00  0.00     0.024 A 
HETATM   39  C   UNK N   1      30.487  17.318   5.658  0.00  0.00     0.009 A 
BRANCH  37  40
HETATM   40  S   UNK N   1      34.278  16.720   7.125  0.00  0.00     0.171 S 
HETATM   41  O   UNK N   1      34.964  15.503   7.767  0.00  0.00    -0.223 OA
HETATM   42  O   UNK N   1      34.587  16.372   5.662  0.00  0.00    -0.223 OA
HETATM   43  C   UNK N   1      33.346  15.142   7.163  0.00  0.00     0.167 C 
ENDBRANCH  37  40
ENDBRANCH  33  34
ENDBRANCH  29  33
ENDBRANCH   1  28
TORSDOF 11
ENDMDL
