MODEL 1
REMARK VINA RESULT:      -7.8      0.000      0.000
REMARK WARNING: 32 MAX_TORS EXCEEDED!!!
REMARK  33 active torsions:
REMARK  status: ('A' for Active; 'I' for Inactive)
REMARK    1  A    between atoms: O_4  and  C_46 
REMARK    2  A    between atoms: O_9  and  C_73 
REMARK    3  A    between atoms: O_11  and  C_76 
REMARK       I    between atoms: N_13  and  C_32 
REMARK    4  A    between atoms: C_33  and  N_14 
REMARK       I    between atoms: N_14  and  C_38 
REMARK       I    between atoms: N_15  and  C_34 
REMARK    5  A    between atoms: C_39  and  N_15 
REMARK    6  A    between atoms: C_36  and  N_16 
REMARK       I    between atoms: N_16  and  C_45 
REMARK    7  A    between atoms: C_44  and  N_18 
REMARK       I    between atoms: N_18  and  C_53 
REMARK    8  A    between atoms: C_50  and  N_21 
REMARK       I    between atoms: N_21  and  C_61 
REMARK    9  A    between atoms: C_58  and  N_22 
REMARK       I    between atoms: N_22  and  C_72 
REMARK   10  A    between atoms: N_23  and  C_71 
REMARK   11  A    between atoms: C_74  and  N_25 
REMARK       I    between atoms: N_26  and  C_77 
REMARK       I    between atoms: N_27  and  C_77 
REMARK   12  A    between atoms: C_28  and  C_34 
REMARK   13  A    between atoms: C_32  and  C_33 
REMARK   14  A    between atoms: C_33  and  C_35 
REMARK   15  A    between atoms: C_35  and  C_40 
REMARK   16  A    between atoms: C_36  and  C_37 
REMARK   17  A    between atoms: C_36  and  C_38 
REMARK   18  A    between atoms: C_37  and  C_41 
REMARK   19  A    between atoms: C_39  and  C_42 
REMARK   20  A    between atoms: C_39  and  C_46 
REMARK   21  A    between atoms: C_42  and  C_49 
REMARK   22  A    between atoms: C_44  and  C_45 
REMARK   23  A    between atoms: C_44  and  C_51 
REMARK   24  A    between atoms: C_50  and  C_52 
REMARK   25  A    between atoms: C_50  and  C_53 
REMARK   26  A    between atoms: C_51  and  C_55 
REMARK   27  A    between atoms: C_58  and  C_61 
REMARK   28  A    between atoms: C_58  and  C_62 
REMARK   29  A    between atoms: C_62  and  C_67 
REMARK   30  A    between atoms: C_67  and  C_71 
REMARK   31  A    between atoms: C_72  and  C_74 
REMARK   32  A    between atoms: C_74  and  C_75 
REMARK   33  A    between atoms: C_75  and  C_76 
ROOT
HETATM    1  C   UNK N   1      23.201  17.445   4.811  0.00  0.00     0.180 C 
ENDROOT
BRANCH   1   2
HETATM    2  N   UNK N   1      24.400  18.166   5.197  0.00  0.00    -0.346 N 
HETATM    3  C   UNK N   1      25.537  18.138   4.468  0.00  0.00     0.241 C 
HETATM    4  O   UNK N   1      25.536  17.681   3.334  0.00  0.00    -0.271 OA
HETATM    5  H   UNK N   1      24.384  18.699   6.024  0.00  0.00     0.163 HD
BRANCH   3   6
HETATM    6  C   UNK N   1      26.848  18.411   5.134  0.00  0.00     0.180 C 
BRANCH   6   7
HETATM    7  N   UNK N   1      26.858  18.008   6.522  0.00  0.00    -0.346 N 
HETATM    8  C   UNK N   1      27.582  16.938   6.916  0.00  0.00     0.241 C 
HETATM    9  O   UNK N   1      27.618  16.632   8.097  0.00  0.00    -0.271 OA
HETATM   10  H   UNK N   1      26.336  18.517   7.184  0.00  0.00     0.163 HD
BRANCH   8  11
HETATM   11  C   UNK N   1      28.368  16.154   5.890  0.00  0.00     0.176 C 
BRANCH  11  12
HETATM   12  N   UNK N   1      29.784  16.111   6.171  0.00  0.00    -0.346 N 
HETATM   13  C   UNK N   1      30.737  16.731   5.441  0.00  0.00     0.241 C 
HETATM   14  O   UNK N   1      30.438  17.441   4.490  0.00  0.00    -0.271 OA
HETATM   15  H   UNK N   1      30.077  15.591   6.955  0.00  0.00     0.163 HD
BRANCH  13  16
HETATM   16  C   UNK N   1      32.173  16.483   5.782  0.00  0.00     0.177 C 
BRANCH  16  17
HETATM   17  N   UNK N   1      33.019  17.502   5.182  0.00  0.00    -0.418 N 
HETATM   18  H   UNK N   1      33.710  17.623   4.442  0.00  0.00     0.150 HD
HETATM   19  H   UNK N   1      32.874  18.390   5.661  0.00  0.00     0.150 HD
ENDBRANCH  16  17
BRANCH  16  20
HETATM   20  C   UNK N   1      32.425  16.363   7.285  0.00  0.00     0.144 C 
BRANCH  20  21
HETATM   21  C   UNK N   1      32.323  17.668   8.014  0.00  0.00     0.141 C 
HETATM   22  O   UNK N   1      31.275  17.999   8.544  0.00  0.00    -0.650 OA
BRANCH  21  23
HETATM   23  O   UNK N   1      33.391  18.483   8.076  0.00  0.00    -0.776 OA
HETATM   24  H   UNK N   1      33.764  18.711   8.905  0.00  0.00     0.167 HD
ENDBRANCH  21  23
ENDBRANCH  20  21
ENDBRANCH  16  20
ENDBRANCH  13  16
ENDBRANCH  11  12
BRANCH  11  25
HETATM   25  C   UNK N   1      27.759  14.851   5.382  0.00  0.00     0.036 C 
BRANCH  25  26
HETATM   26  C   UNK N   1      28.205  14.507   3.978  0.00  0.00     0.023 C 
BRANCH  26  27
HETATM   27  C   UNK N   1      27.360  13.379   3.441  0.00  0.00     0.138 C 
BRANCH  27  28
HETATM   28  N   UNK N   1      26.734  13.820   2.226  0.00  0.00    -0.227 N 
HETATM   29  C   UNK N   1      25.580  14.387   2.224  0.00  0.00     0.665 C 
HETATM   30  N   UNK N   1      25.000  14.773   0.999  0.00  0.00    -0.235 N 
HETATM   31  N   UNK N   1      24.871  14.601   3.433  0.00  0.00    -0.235 N 
HETATM   32  H   UNK N   1      24.939  14.130   0.257  0.00  0.00     0.174 HD
HETATM   33  H   UNK N   1      24.656  15.689   0.885  0.00  0.00     0.174 HD
HETATM   34  H   UNK N   1      24.057  15.047   3.758  0.00  0.00     0.174 HD
HETATM   35  H   UNK N   1      25.342  14.167   4.182  0.00  0.00     0.174 HD
ATOM     36  HN  UNK N   1      27.217  13.678   1.340  1.00  0.00     0.177 HD
ENDBRANCH  27  28
ENDBRANCH  26  27
ENDBRANCH  25  26
ENDBRANCH  11  25
ENDBRANCH   8  11
ENDBRANCH   6   7
BRANCH   6  37
HETATM   37  C   UNK N   1      27.725  19.620   4.849  0.00  0.00     0.009 C 
HETATM   38  C   UNK N   1      27.813  20.589   6.008  0.00  0.00     0.012 C 
HETATM   39  C   UNK N   1      27.128  20.332   3.649  0.00  0.00     0.012 C 
ENDBRANCH   6  37
ENDBRANCH   3   6
ENDBRANCH   1   2
BRANCH   1  40
HETATM   40  C   UNK N   1      23.036  16.359   5.805  0.00  0.00     0.241 C 
HETATM   41  O   UNK N   1      24.029  15.814   6.265  0.00  0.00    -0.271 OA
HETATM   42  N   UNK N   1      21.800  15.988   6.190  0.00  0.00    -0.346 N 
HETATM   43  H   UNK N   1      21.023  16.432   5.781  0.00  0.00     0.163 HD
BRANCH  42  44
HETATM   44  C   UNK N   1      21.573  14.966   7.180  0.00  0.00     0.180 C 
BRANCH  44  45
HETATM   45  C   UNK N   1      21.130  15.495   8.556  0.00  0.00     0.013 C 
HETATM   46  C   UNK N   1      20.458  14.434   9.404  0.00  0.00     0.012 C 
BRANCH  45  47
HETATM   47  C   UNK N   1      20.218  16.705   8.422  0.00  0.00     0.002 C 
HETATM   48  C   UNK N   1      18.845  16.418   8.997  0.00  0.00     0.005 C 
ENDBRANCH  45  47
ENDBRANCH  44  45
BRANCH  44  49
HETATM   49  C   UNK N   1      20.788  13.785   6.634  0.00  0.00     0.241 C 
HETATM   50  O   UNK N   1      19.643  13.929   6.237  0.00  0.00    -0.271 OA
HETATM   51  N   UNK N   1      21.332  12.550   6.628  0.00  0.00    -0.346 N 
HETATM   52  H   UNK N   1      20.779  11.791   6.334  0.00  0.00     0.163 HD
BRANCH  51  53
HETATM   53  C   UNK N   1      22.689  12.297   7.037  0.00  0.00     0.182 C 
BRANCH  53  54
HETATM   54  C   UNK N   1      23.679  11.736   6.017  0.00  0.00     0.243 C 
HETATM   55  O   UNK N   1      24.311  12.546   5.365  0.00  0.00    -0.271 OA
HETATM   56  N   UNK N   1      23.765  10.395   5.691  0.00  0.00    -0.337 N 
HETATM   57  C   UNK N   1      24.320  10.009   4.416  0.00  0.00     0.179 C 
HETATM   58  C   UNK N   1      23.045   9.326   6.321  0.00  0.00     0.127 C 
HETATM   59  C   UNK N   1      24.455   8.499   4.527  0.00  0.00     0.037 C 
HETATM   60  C   UNK N   1      23.403   8.070   5.546  0.00  0.00     0.022 C 
BRANCH  57  61
HETATM   61  C   UNK N   1      23.238  10.344   3.396  0.00  0.00     0.241 C 
HETATM   62  O   UNK N   1      22.338   9.557   3.148  0.00  0.00    -0.271 OA
HETATM   63  N   UNK N   1      23.313  11.561   2.791  0.00  0.00    -0.345 N 
HETATM   64  H   UNK N   1      24.077  12.092   3.114  0.00  0.00     0.163 HD
BRANCH  63  65
HETATM   65  C   UNK N   1      22.548  12.262   1.792  0.00  0.00     0.186 C 
BRANCH  65  66
HETATM   66  C   UNK N   1      21.067  12.506   2.090  0.00  0.00     0.074 C 
BRANCH  66  67
HETATM   67  C   UNK N   1      20.407  13.619   1.343  0.00  0.00    -0.056 A 
HETATM   68  C   UNK N   1      19.173  13.389   0.729  0.00  0.00     0.007 A 
HETATM   69  C   UNK N   1      18.496  14.438   0.102  0.00  0.00     0.001 A 
HETATM   70  C   UNK N   1      19.051  15.722   0.089  0.00  0.00     0.000 A 
HETATM   71  C   UNK N   1      20.282  15.957   0.707  0.00  0.00     0.001 A 
HETATM   72  C   UNK N   1      20.950  14.911   1.344  0.00  0.00     0.007 A 
ENDBRANCH  66  67
ENDBRANCH  65  66
BRANCH  65  73
HETATM   73  C   UNK N   1      22.856  11.711   0.421  0.00  0.00     0.163 C 
HETATM   74  O   UNK N   1      23.731  12.213  -0.269  0.00  0.00    -0.648 OA
BRANCH  73  75
HETATM   75  O   UNK N   1      22.153  10.670  -0.058  0.00  0.00    -0.775 OA
HETATM   76  H   UNK N   1      21.536  10.095   0.350  0.00  0.00     0.167 HD
ENDBRANCH  73  75
ENDBRANCH  65  73
ENDBRANCH  63  65
ENDBRANCH  57  61
ENDBRANCH  53  54
BRANCH  53  77
HETATM   77  C   UNK N   1      22.811  11.761   8.460  0.00  0.00     0.093 C 
BRANCH  77  78
HETATM   78  C   UNK N   1      23.901  12.493   9.178  0.00  0.00     0.028 A 
HETATM   79  N   UNK N   1      24.632  13.487   8.648  0.00  0.00    -0.354 N 
HETATM   80  C   UNK N   1      25.497  13.840   9.622  0.00  0.00     0.180 A 
HETATM   81  H   UNK N   1      24.555  13.873   7.746  0.00  0.00     0.166 HD
HETATM   82  N   UNK N   1      25.326  13.097  10.737  0.00  0.00    -0.360 N 
HETATM   83  C   UNK N   1      24.320  12.245  10.463  0.00  0.00     0.114 A 
ATOM     84  HN  UNK N   1      25.852  13.167  11.607  1.00  0.00     0.166 HD
ENDBRANCH  77  78
ENDBRANCH  53  77
ENDBRANCH  51  53
ENDBRANCH  44  49
ENDBRANCH  42  44
ENDBRANCH   1  40
BRANCH   1  85
HETATM   85  C   UNK N   1      21.931  18.305   4.967  0.00  0.00     0.073 C 
BRANCH  85  86
HETATM   86  C   UNK N   1      21.537  19.066   3.743  0.00  0.00    -0.056 A 
HETATM   87  C   UNK N   1      22.415  19.979   3.135  0.00  0.00     0.010 A 
HETATM   88  C   UNK N   1      22.093  20.545   1.904  0.00  0.00     0.037 A 
HETATM   89  C   UNK N   1      20.880  20.223   1.293  0.00  0.00     0.065 A 
HETATM   90  C   UNK N   1      19.978  19.363   1.926  0.00  0.00     0.037 A 
HETATM   91  C   UNK N   1      20.313  18.776   3.146  0.00  0.00     0.010 A 
BRANCH  89  92
HETATM   92  O   UNK N   1      20.582  20.734   0.089  0.00  0.00    -0.361 OA
HETATM   93  H   UNK N   1      20.547  20.249  -0.712  0.00  0.00     0.217 HD
ENDBRANCH  89  92
ENDBRANCH  85  86
ENDBRANCH   1  85
TORSDOF 33
ENDMDL
MODEL 2
REMARK VINA RESULT:      -7.8      1.305      2.172
REMARK WARNING: 32 MAX_TORS EXCEEDED!!!
REMARK  33 active torsions:
REMARK  status: ('A' for Active; 'I' for Inactive)
REMARK    1  A    between atoms: O_4  and  C_46 
REMARK    2  A    between atoms: O_9  and  C_73 
REMARK    3  A    between atoms: O_11  and  C_76 
REMARK       I    between atoms: N_13  and  C_32 
REMARK    4  A    between atoms: C_33  and  N_14 
REMARK       I    between atoms: N_14  and  C_38 
REMARK       I    between atoms: N_15  and  C_34 
REMARK    5  A    between atoms: C_39  and  N_15 
REMARK    6  A    between atoms: C_36  and  N_16 
REMARK       I    between atoms: N_16  and  C_45 
REMARK    7  A    between atoms: C_44  and  N_18 
REMARK       I    between atoms: N_18  and  C_53 
REMARK    8  A    between atoms: C_50  and  N_21 
REMARK       I    between atoms: N_21  and  C_61 
REMARK    9  A    between atoms: C_58  and  N_22 
REMARK       I    between atoms: N_22  and  C_72 
REMARK   10  A    between atoms: N_23  and  C_71 
REMARK   11  A    between atoms: C_74  and  N_25 
REMARK       I    between atoms: N_26  and  C_77 
REMARK       I    between atoms: N_27  and  C_77 
REMARK   12  A    between atoms: C_28  and  C_34 
REMARK   13  A    between atoms: C_32  and  C_33 
REMARK   14  A    between atoms: C_33  and  C_35 
REMARK   15  A    between atoms: C_35  and  C_40 
REMARK   16  A    between atoms: C_36  and  C_37 
REMARK   17  A    between atoms: C_36  and  C_38 
REMARK   18  A    between atoms: C_37  and  C_41 
REMARK   19  A    between atoms: C_39  and  C_42 
REMARK   20  A    between atoms: C_39  and  C_46 
REMARK   21  A    between atoms: C_42  and  C_49 
REMARK   22  A    between atoms: C_44  and  C_45 
REMARK   23  A    between atoms: C_44  and  C_51 
REMARK   24  A    between atoms: C_50  and  C_52 
REMARK   25  A    between atoms: C_50  and  C_53 
REMARK   26  A    between atoms: C_51  and  C_55 
REMARK   27  A    between atoms: C_58  and  C_61 
REMARK   28  A    between atoms: C_58  and  C_62 
REMARK   29  A    between atoms: C_62  and  C_67 
REMARK   30  A    between atoms: C_67  and  C_71 
REMARK   31  A    between atoms: C_72  and  C_74 
REMARK   32  A    between atoms: C_74  and  C_75 
REMARK   33  A    between atoms: C_75  and  C_76 
ROOT
HETATM    1  C   UNK N   1      23.410  17.030   4.890  0.00  0.00     0.180 C 
ENDROOT
BRANCH   1   2
HETATM    2  N   UNK N   1      24.531  17.867   5.276  0.00  0.00    -0.346 N 
HETATM    3  C   UNK N   1      25.660  17.962   4.541  0.00  0.00     0.241 C 
HETATM    4  O   UNK N   1      25.698  17.520   3.401  0.00  0.00    -0.271 OA
HETATM    5  H   UNK N   1      24.467  18.386   6.110  0.00  0.00     0.163 HD
BRANCH   3   6
HETATM    6  C   UNK N   1      26.941  18.362   5.202  0.00  0.00     0.180 C 
BRANCH   6   7
HETATM    7  N   UNK N   1      26.972  18.014   6.604  0.00  0.00    -0.346 N 
HETATM    8  C   UNK N   1      27.808  17.051   7.049  0.00  0.00     0.241 C 
HETATM    9  O   UNK N   1      27.856  16.794   8.241  0.00  0.00    -0.271 OA
HETATM   10  H   UNK N   1      26.382  18.481   7.238  0.00  0.00     0.163 HD
BRANCH   8  11
HETATM   11  C   UNK N   1      28.698  16.327   6.066  0.00  0.00     0.176 C 
BRANCH  11  12
HETATM   12  N   UNK N   1      30.081  16.277   6.481  0.00  0.00    -0.346 N 
HETATM   13  C   UNK N   1      31.103  16.889   5.843  0.00  0.00     0.241 C 
HETATM   14  O   UNK N   1      30.901  17.594   4.864  0.00  0.00    -0.271 OA
HETATM   15  H   UNK N   1      30.294  15.761   7.292  0.00  0.00     0.163 HD
BRANCH  13  16
HETATM   16  C   UNK N   1      32.498  16.634   6.321  0.00  0.00     0.177 C 
BRANCH  16  17
HETATM   17  N   UNK N   1      33.217  15.804   5.367  0.00  0.00    -0.418 N 
HETATM   18  H   UNK N   1      33.955  15.861   4.666  0.00  0.00     0.150 HD
HETATM   19  H   UNK N   1      32.865  14.848   5.415  0.00  0.00     0.150 HD
ENDBRANCH  16  17
BRANCH  16  20
HETATM   20  C   UNK N   1      33.271  17.914   6.639  0.00  0.00     0.144 C 
BRANCH  20  21
HETATM   21  C   UNK N   1      34.276  17.749   7.738  0.00  0.00     0.141 C 
HETATM   22  O   UNK N   1      34.786  18.727   8.259  0.00  0.00    -0.650 OA
BRANCH  21  23
HETATM   23  O   UNK N   1      34.624  16.516   8.144  0.00  0.00    -0.776 OA
HETATM   24  H   UNK N   1      35.521  16.246   8.120  0.00  0.00     0.167 HD
ENDBRANCH  21  23
ENDBRANCH  20  21
ENDBRANCH  16  20
ENDBRANCH  13  16
ENDBRANCH  11  12
BRANCH  11  25
HETATM   25  C   UNK N   1      28.157  15.049   5.433  0.00  0.00     0.036 C 
BRANCH  25  26
HETATM   26  C   UNK N   1      28.723  14.795   4.053  0.00  0.00     0.023 C 
BRANCH  26  27
HETATM   27  C   UNK N   1      29.067  13.334   3.909  0.00  0.00     0.138 C 
BRANCH  27  28
HETATM   28  N   UNK N   1      29.984  12.978   4.957  0.00  0.00    -0.227 N 
HETATM   29  C   UNK N   1      31.244  12.845   4.739  0.00  0.00     0.665 C 
HETATM   30  N   UNK N   1      32.093  12.466   5.798  0.00  0.00    -0.235 N 
HETATM   31  N   UNK N   1      31.784  13.042   3.444  0.00  0.00    -0.235 N 
HETATM   32  H   UNK N   1      31.873  11.683   6.351  0.00  0.00     0.174 HD
HETATM   33  H   UNK N   1      32.908  12.986   5.984  0.00  0.00     0.174 HD
HETATM   34  H   UNK N   1      32.658  13.089   2.993  0.00  0.00     0.174 HD
HETATM   35  H   UNK N   1      31.059  13.175   2.791  0.00  0.00     0.174 HD
ATOM     36  HN  UNK N   1      29.625  12.827   5.899  1.00  0.00     0.177 HD
ENDBRANCH  27  28
ENDBRANCH  26  27
ENDBRANCH  25  26
ENDBRANCH  11  25
ENDBRANCH   8  11
ENDBRANCH   6   7
BRANCH   6  37
HETATM   37  C   UNK N   1      27.724  19.623   4.874  0.00  0.00     0.009 C 
HETATM   38  C   UNK N   1      27.746  20.630   6.003  0.00  0.00     0.012 C 
HETATM   39  C   UNK N   1      27.069  20.253   3.658  0.00  0.00     0.012 C 
ENDBRANCH   6  37
ENDBRANCH   3   6
ENDBRANCH   1   2
BRANCH   1  40
HETATM   40  C   UNK N   1      23.275  16.006   5.951  0.00  0.00     0.241 C 
HETATM   41  O   UNK N   1      24.283  15.555   6.478  0.00  0.00    -0.271 OA
HETATM   42  N   UNK N   1      22.052  15.584   6.322  0.00  0.00    -0.346 N 
HETATM   43  H   UNK N   1      21.264  15.950   5.859  0.00  0.00     0.163 HD
BRANCH  42  44
HETATM   44  C   UNK N   1      21.852  14.619   7.372  0.00  0.00     0.180 C 
BRANCH  44  45
HETATM   45  C   UNK N   1      21.449  15.223   8.729  0.00  0.00     0.013 C 
HETATM   46  C   UNK N   1      20.833  14.203   9.666  0.00  0.00     0.012 C 
BRANCH  45  47
HETATM   47  C   UNK N   1      20.505  16.403   8.556  0.00  0.00     0.002 C 
HETATM   48  C   UNK N   1      19.125  16.079   9.091  0.00  0.00     0.005 C 
ENDBRANCH  45  47
ENDBRANCH  44  45
BRANCH  44  49
HETATM   49  C   UNK N   1      21.051  13.411   6.914  0.00  0.00     0.241 C 
HETATM   50  O   UNK N   1      19.877  13.524   6.604  0.00  0.00    -0.271 OA
HETATM   51  N   UNK N   1      21.618  12.186   6.893  0.00  0.00    -0.346 N 
HETATM   52  H   UNK N   1      21.059  11.411   6.658  0.00  0.00     0.163 HD
BRANCH  51  53
HETATM   53  C   UNK N   1      23.007  11.968   7.201  0.00  0.00     0.182 C 
BRANCH  53  54
HETATM   54  C   UNK N   1      23.930  11.415   6.115  0.00  0.00     0.243 C 
HETATM   55  O   UNK N   1      24.838  12.138   5.748  0.00  0.00    -0.271 OA
HETATM   56  N   UNK N   1      23.689  10.237   5.432  0.00  0.00    -0.337 N 
HETATM   57  C   UNK N   1      24.278  10.039   4.129  0.00  0.00     0.179 C 
HETATM   58  C   UNK N   1      22.631   9.307   5.702  0.00  0.00     0.127 C 
HETATM   59  C   UNK N   1      23.982   8.581   3.821  0.00  0.00     0.037 C 
HETATM   60  C   UNK N   1      22.731   8.241   4.626  0.00  0.00     0.022 C 
BRANCH  57  61
HETATM   61  C   UNK N   1      23.469  10.927   3.191  0.00  0.00     0.241 C 
HETATM   62  O   UNK N   1      22.444  10.522   2.665  0.00  0.00    -0.271 OA
HETATM   63  N   UNK N   1      23.930  12.190   2.982  0.00  0.00    -0.345 N 
HETATM   64  H   UNK N   1      24.749  12.378   3.496  0.00  0.00     0.163 HD
BRANCH  63  65
HETATM   65  C   UNK N   1      23.513  13.321   2.193  0.00  0.00     0.186 C 
BRANCH  65  66
HETATM   66  C   UNK N   1      22.807  13.025   0.869  0.00  0.00     0.074 C 
BRANCH  66  67
HETATM   67  C   UNK N   1      21.359  13.387   0.785  0.00  0.00    -0.056 A 
HETATM   68  C   UNK N   1      20.983  14.726   0.924  0.00  0.00     0.007 A 
HETATM   69  C   UNK N   1      19.646  15.098   0.761  0.00  0.00     0.001 A 
HETATM   70  C   UNK N   1      18.682  14.133   0.456  0.00  0.00     0.000 A 
HETATM   71  C   UNK N   1      19.055  12.795   0.310  0.00  0.00     0.001 A 
HETATM   72  C   UNK N   1      20.392  12.426   0.461  0.00  0.00     0.007 A 
ENDBRANCH  66  67
ENDBRANCH  65  66
BRANCH  65  73
HETATM   73  C   UNK N   1      24.620  14.345   2.129  0.00  0.00     0.163 C 
HETATM   74  O   UNK N   1      24.898  14.895   1.074  0.00  0.00    -0.648 OA
BRANCH  73  75
HETATM   75  O   UNK N   1      25.323  14.643   3.235  0.00  0.00    -0.775 OA
HETATM   76  H   UNK N   1      25.601  14.115   3.958  0.00  0.00     0.167 HD
ENDBRANCH  73  75
ENDBRANCH  65  73
ENDBRANCH  63  65
ENDBRANCH  57  61
ENDBRANCH  53  54
BRANCH  53  77
HETATM   77  C   UNK N   1      23.248  11.453   8.616  0.00  0.00     0.093 C 
BRANCH  77  78
HETATM   78  C   UNK N   1      24.222  12.348   9.316  0.00  0.00     0.028 A 
HETATM   79  N   UNK N   1      24.854  13.386   8.743  0.00  0.00    -0.354 N 
HETATM   80  C   UNK N   1      25.637  13.896   9.716  0.00  0.00     0.180 A 
HETATM   81  H   UNK N   1      24.766  13.703   7.815  0.00  0.00     0.166 HD
HETATM   82  N   UNK N   1      25.511  13.208  10.872  0.00  0.00    -0.360 N 
HETATM   83  C   UNK N   1      24.619  12.231  10.626  0.00  0.00     0.114 A 
ATOM     84  HN  UNK N   1      25.994  13.392  11.751  1.00  0.00     0.166 HD
ENDBRANCH  77  78
ENDBRANCH  53  77
ENDBRANCH  51  53
ENDBRANCH  44  49
ENDBRANCH  42  44
ENDBRANCH   1  40
BRANCH   1  85
HETATM   85  C   UNK N   1      22.073  17.799   4.927  0.00  0.00     0.073 C 
BRANCH  85  86
HETATM   86  C   UNK N   1      21.721  18.503   3.657  0.00  0.00    -0.056 A 
HETATM   87  C   UNK N   1      20.763  17.979   2.773  0.00  0.00     0.010 A 
HETATM   88  C   UNK N   1      20.328  18.735   1.686  0.00  0.00     0.037 A 
HETATM   89  C   UNK N   1      20.871  20.001   1.464  0.00  0.00     0.065 A 
HETATM   90  C   UNK N   1      21.870  20.497   2.308  0.00  0.00     0.037 A 
HETATM   91  C   UNK N   1      22.285  19.752   3.411  0.00  0.00     0.010 A 
BRANCH  89  92
HETATM   92  O   UNK N   1      20.429  20.749   0.443  0.00  0.00    -0.361 OA
HETATM   93  H   UNK N   1      20.634  21.653   0.305  0.00  0.00     0.217 HD
ENDBRANCH  89  92
ENDBRANCH  85  86
ENDBRANCH   1  85
TORSDOF 33
ENDMDL
MODEL 3
REMARK VINA RESULT:      -7.7      2.530      9.738
REMARK WARNING: 32 MAX_TORS EXCEEDED!!!
REMARK  33 active torsions:
REMARK  status: ('A' for Active; 'I' for Inactive)
REMARK    1  A    between atoms: O_4  and  C_46 
REMARK    2  A    between atoms: O_9  and  C_73 
REMARK    3  A    between atoms: O_11  and  C_76 
REMARK       I    between atoms: N_13  and  C_32 
REMARK    4  A    between atoms: C_33  and  N_14 
REMARK       I    between atoms: N_14  and  C_38 
REMARK       I    between atoms: N_15  and  C_34 
REMARK    5  A    between atoms: C_39  and  N_15 
REMARK    6  A    between atoms: C_36  and  N_16 
REMARK       I    between atoms: N_16  and  C_45 
REMARK    7  A    between atoms: C_44  and  N_18 
REMARK       I    between atoms: N_18  and  C_53 
REMARK    8  A    between atoms: C_50  and  N_21 
REMARK       I    between atoms: N_21  and  C_61 
REMARK    9  A    between atoms: C_58  and  N_22 
REMARK       I    between atoms: N_22  and  C_72 
REMARK   10  A    between atoms: N_23  and  C_71 
REMARK   11  A    between atoms: C_74  and  N_25 
REMARK       I    between atoms: N_26  and  C_77 
REMARK       I    between atoms: N_27  and  C_77 
REMARK   12  A    between atoms: C_28  and  C_34 
REMARK   13  A    between atoms: C_32  and  C_33 
REMARK   14  A    between atoms: C_33  and  C_35 
REMARK   15  A    between atoms: C_35  and  C_40 
REMARK   16  A    between atoms: C_36  and  C_37 
REMARK   17  A    between atoms: C_36  and  C_38 
REMARK   18  A    between atoms: C_37  and  C_41 
REMARK   19  A    between atoms: C_39  and  C_42 
REMARK   20  A    between atoms: C_39  and  C_46 
REMARK   21  A    between atoms: C_42  and  C_49 
REMARK   22  A    between atoms: C_44  and  C_45 
REMARK   23  A    between atoms: C_44  and  C_51 
REMARK   24  A    between atoms: C_50  and  C_52 
REMARK   25  A    between atoms: C_50  and  C_53 
REMARK   26  A    between atoms: C_51  and  C_55 
REMARK   27  A    between atoms: C_58  and  C_61 
REMARK   28  A    between atoms: C_58  and  C_62 
REMARK   29  A    between atoms: C_62  and  C_67 
REMARK   30  A    between atoms: C_67  and  C_71 
REMARK   31  A    between atoms: C_72  and  C_74 
REMARK   32  A    between atoms: C_74  and  C_75 
REMARK   33  A    between atoms: C_75  and  C_76 
ROOT
HETATM    1  C   UNK N   1      23.731  12.992   6.025  0.00  0.00     0.180 C 
ENDROOT
BRANCH   1   2
HETATM    2  N   UNK N   1      22.534  13.543   5.417  0.00  0.00    -0.346 N 
HETATM    3  C   UNK N   1      21.471  12.783   5.076  0.00  0.00     0.241 C 
HETATM    4  O   UNK N   1      21.381  11.628   5.468  0.00  0.00    -0.271 OA
HETATM    5  H   UNK N   1      22.495  14.511   5.246  0.00  0.00     0.163 HD
BRANCH   3   6
HETATM    6  C   UNK N   1      20.540  13.254   4.004  0.00  0.00     0.180 C 
BRANCH   6   7
HETATM    7  N   UNK N   1      19.194  13.457   4.490  0.00  0.00    -0.346 N 
HETATM    8  C   UNK N   1      18.790  14.684   4.882  0.00  0.00     0.241 C 
HETATM    9  O   UNK N   1      17.638  14.853   5.251  0.00  0.00    -0.271 OA
HETATM   10  H   UNK N   1      18.569  12.698   4.534  0.00  0.00     0.163 HD
BRANCH   8  11
HETATM   11  C   UNK N   1      19.761  15.841   4.826  0.00  0.00     0.176 C 
BRANCH  11  12
HETATM   12  N   UNK N   1      19.468  16.778   3.767  0.00  0.00    -0.346 N 
HETATM   13  C   UNK N   1      20.386  17.312   2.931  0.00  0.00     0.241 C 
HETATM   14  O   UNK N   1      21.561  16.977   2.990  0.00  0.00    -0.271 OA
HETATM   15  H   UNK N   1      18.529  17.047   3.644  0.00  0.00     0.163 HD
BRANCH  13  16
HETATM   16  C   UNK N   1      19.946  18.370   1.969  0.00  0.00     0.177 C 
BRANCH  16  17
HETATM   17  N   UNK N   1      18.649  18.902   2.360  0.00  0.00    -0.418 N 
HETATM   18  H   UNK N   1      17.658  18.667   2.338  0.00  0.00     0.150 HD
HETATM   19  H   UNK N   1      18.775  19.811   2.804  0.00  0.00     0.150 HD
ENDBRANCH  16  17
BRANCH  16  20
HETATM   20  C   UNK N   1      20.974  19.487   1.787  0.00  0.00     0.144 C 
BRANCH  20  21
HETATM   21  C   UNK N   1      20.961  20.498   2.893  0.00  0.00     0.141 C 
HETATM   22  O   UNK N   1      20.520  20.205   3.992  0.00  0.00    -0.650 OA
BRANCH  21  23
HETATM   23  O   UNK N   1      21.430  21.738   2.668  0.00  0.00    -0.776 OA
HETATM   24  H   UNK N   1      21.239  22.431   3.269  0.00  0.00     0.167 HD
ENDBRANCH  21  23
ENDBRANCH  20  21
ENDBRANCH  16  20
ENDBRANCH  13  16
ENDBRANCH  11  12
BRANCH  11  25
HETATM   25  C   UNK N   1      20.196  16.461   6.151  0.00  0.00     0.036 C 
BRANCH  25  26
HETATM   26  C   UNK N   1      20.343  15.438   7.254  0.00  0.00     0.023 C 
BRANCH  26  27
HETATM   27  C   UNK N   1      19.478  15.829   8.426  0.00  0.00     0.138 C 
BRANCH  27  28
HETATM   28  N   UNK N   1      19.918  17.109   8.908  0.00  0.00    -0.227 N 
HETATM   29  C   UNK N   1      19.086  18.006   9.304  0.00  0.00     0.665 C 
HETATM   30  N   UNK N   1      19.572  19.255   9.740  0.00  0.00    -0.235 N 
HETATM   31  N   UNK N   1      17.690  17.769   9.277  0.00  0.00    -0.235 N 
HETATM   32  H   UNK N   1      20.206  19.761   9.183  0.00  0.00     0.174 HD
HETATM   33  H   UNK N   1      19.277  19.622  10.605  0.00  0.00     0.174 HD
HETATM   34  H   UNK N   1      16.849  18.193   9.564  0.00  0.00     0.174 HD
HETATM   35  H   UNK N   1      17.501  16.910   8.832  0.00  0.00     0.174 HD
ATOM     36  HN  UNK N   1      20.916  17.311   8.938  1.00  0.00     0.177 HD
ENDBRANCH  27  28
ENDBRANCH  26  27
ENDBRANCH  25  26
ENDBRANCH  11  25
ENDBRANCH   8  11
ENDBRANCH   6   7
BRANCH   6  37
HETATM   37  C   UNK N   1      20.598  12.804   2.552  0.00  0.00     0.009 C 
HETATM   38  C   UNK N   1      20.275  13.907   1.567  0.00  0.00     0.012 C 
HETATM   39  C   UNK N   1      19.589  11.682   2.391  0.00  0.00     0.012 C 
ENDBRANCH   6  37
ENDBRANCH   3   6
ENDBRANCH   1   2
BRANCH   1  40
HETATM   40  C   UNK N   1      24.835  13.254   5.074  0.00  0.00     0.241 C 
HETATM   41  O   UNK N   1      25.975  12.930   5.377  0.00  0.00    -0.271 OA
HETATM   42  N   UNK N   1      24.574  13.841   3.891  0.00  0.00    -0.346 N 
HETATM   43  H   UNK N   1      23.648  14.111   3.691  0.00  0.00     0.163 HD
BRANCH  42  44
HETATM   44  C   UNK N   1      25.596  14.089   2.907  0.00  0.00     0.180 C 
BRANCH  44  45
HETATM   45  C   UNK N   1      25.266  13.571   1.496  0.00  0.00     0.013 C 
HETATM   46  C   UNK N   1      24.062  14.262   0.885  0.00  0.00     0.012 C 
BRANCH  45  47
HETATM   47  C   UNK N   1      25.058  12.065   1.489  0.00  0.00     0.002 C 
HETATM   48  C   UNK N   1      24.113  11.652   0.377  0.00  0.00     0.005 C 
ENDBRANCH  45  47
ENDBRANCH  44  45
BRANCH  44  49
HETATM   49  C   UNK N   1      26.158  15.499   2.987  0.00  0.00     0.241 C 
HETATM   50  O   UNK N   1      25.413  16.465   3.010  0.00  0.00    -0.271 OA
HETATM   51  N   UNK N   1      27.492  15.701   2.985  0.00  0.00    -0.346 N 
HETATM   52  H   UNK N   1      27.830  16.626   2.968  0.00  0.00     0.163 HD
BRANCH  51  53
HETATM   53  C   UNK N   1      28.442  14.620   3.004  0.00  0.00     0.182 C 
BRANCH  53  54
HETATM   54  C   UNK N   1      29.530  14.607   4.077  0.00  0.00     0.243 C 
HETATM   55  O   UNK N   1      29.454  13.736   4.924  0.00  0.00    -0.271 OA
HETATM   56  N   UNK N   1      30.473  15.608   4.224  0.00  0.00    -0.337 N 
HETATM   57  C   UNK N   1      31.113  15.798   5.503  0.00  0.00     0.179 C 
HETATM   58  C   UNK N   1      30.654  16.730   3.349  0.00  0.00     0.127 C 
HETATM   59  C   UNK N   1      32.214  16.802   5.207  0.00  0.00     0.037 C 
HETATM   60  C   UNK N   1      31.733  17.586   3.989  0.00  0.00     0.022 C 
BRANCH  57  61
HETATM   61  C   UNK N   1      30.054  16.455   6.382  0.00  0.00     0.241 C 
HETATM   62  O   UNK N   1      29.850  16.068   7.522  0.00  0.00    -0.271 OA
HETATM   63  N   UNK N   1      29.364  17.498   5.845  0.00  0.00    -0.345 N 
HETATM   64  H   UNK N   1      29.661  17.709   4.930  0.00  0.00     0.163 HD
BRANCH  63  65
HETATM   65  C   UNK N   1      28.305  18.368   6.289  0.00  0.00     0.186 C 
BRANCH  65  66
HETATM   66  C   UNK N   1      28.085  19.659   5.499  0.00  0.00     0.074 C 
BRANCH  66  67
HETATM   67  C   UNK N   1      26.847  19.733   4.665  0.00  0.00    -0.056 A 
HETATM   68  C   UNK N   1      25.654  19.211   5.171  0.00  0.00     0.007 A 
HETATM   69  C   UNK N   1      24.467  19.349   4.447  0.00  0.00     0.001 A 
HETATM   70  C   UNK N   1      24.469  20.013   3.217  0.00  0.00     0.000 A 
HETATM   71  C   UNK N   1      25.659  20.541   2.711  0.00  0.00     0.001 A 
HETATM   72  C   UNK N   1      26.841  20.414   3.440  0.00  0.00     0.007 A 
ENDBRANCH  66  67
ENDBRANCH  65  66
BRANCH  65  73
HETATM   73  C   UNK N   1      28.354  18.519   7.789  0.00  0.00     0.163 C 
HETATM   74  O   UNK N   1      29.214  19.210   8.317  0.00  0.00    -0.648 OA
BRANCH  73  75
HETATM   75  O   UNK N   1      27.460  17.876   8.559  0.00  0.00    -0.775 OA
HETATM   76  H   UNK N   1      26.594  18.107   8.835  0.00  0.00     0.167 HD
ENDBRANCH  73  75
ENDBRANCH  65  73
ENDBRANCH  63  65
ENDBRANCH  57  61
ENDBRANCH  53  54
BRANCH  53  77
HETATM   77  C   UNK N   1      28.859  14.144   1.616  0.00  0.00     0.093 C 
BRANCH  77  78
HETATM   78  C   UNK N   1      28.971  12.652   1.610  0.00  0.00     0.028 A 
HETATM   79  N   UNK N   1      28.474  11.845   2.562  0.00  0.00    -0.354 N 
HETATM   80  C   UNK N   1      28.814  10.598   2.173  0.00  0.00     0.180 A 
HETATM   81  H   UNK N   1      27.972  12.106   3.368  0.00  0.00     0.166 HD
HETATM   82  N   UNK N   1      29.505  10.607   1.013  0.00  0.00    -0.360 N 
HETATM   83  C   UNK N   1      29.607  11.900   0.653  0.00  0.00     0.114 A 
ATOM     84  HN  UNK N   1      29.874   9.799   0.512  1.00  0.00     0.166 HD
ENDBRANCH  77  78
ENDBRANCH  53  77
ENDBRANCH  51  53
ENDBRANCH  44  49
ENDBRANCH  42  44
ENDBRANCH   1  40
BRANCH   1  85
HETATM   85  C   UNK N   1      24.136  13.755   7.303  0.00  0.00     0.073 C 
BRANCH  85  86
HETATM   86  C   UNK N   1      23.787  13.064   8.581  0.00  0.00    -0.056 A 
HETATM   87  C   UNK N   1      24.768  12.757   9.538  0.00  0.00     0.010 A 
HETATM   88  C   UNK N   1      24.396  12.271  10.790  0.00  0.00     0.037 A 
HETATM   89  C   UNK N   1      23.046  12.062  11.076  0.00  0.00     0.065 A 
HETATM   90  C   UNK N   1      22.074  12.309  10.103  0.00  0.00     0.037 A 
HETATM   91  C   UNK N   1      22.444  12.821   8.860  0.00  0.00     0.010 A 
BRANCH  89  92
HETATM   92  O   UNK N   1      22.680  11.633  12.292  0.00  0.00    -0.361 OA
HETATM   93  H   UNK N   1      23.117  10.966  12.786  0.00  0.00     0.217 HD
ENDBRANCH  89  92
ENDBRANCH  85  86
ENDBRANCH   1  85
TORSDOF 33
ENDMDL
MODEL 4
REMARK VINA RESULT:      -7.6      2.494     10.599
REMARK WARNING: 32 MAX_TORS EXCEEDED!!!
REMARK  33 active torsions:
REMARK  status: ('A' for Active; 'I' for Inactive)
REMARK    1  A    between atoms: O_4  and  C_46 
REMARK    2  A    between atoms: O_9  and  C_73 
REMARK    3  A    between atoms: O_11  and  C_76 
REMARK       I    between atoms: N_13  and  C_32 
REMARK    4  A    between atoms: C_33  and  N_14 
REMARK       I    between atoms: N_14  and  C_38 
REMARK       I    between atoms: N_15  and  C_34 
REMARK    5  A    between atoms: C_39  and  N_15 
REMARK    6  A    between atoms: C_36  and  N_16 
REMARK       I    between atoms: N_16  and  C_45 
REMARK    7  A    between atoms: C_44  and  N_18 
REMARK       I    between atoms: N_18  and  C_53 
REMARK    8  A    between atoms: C_50  and  N_21 
REMARK       I    between atoms: N_21  and  C_61 
REMARK    9  A    between atoms: C_58  and  N_22 
REMARK       I    between atoms: N_22  and  C_72 
REMARK   10  A    between atoms: N_23  and  C_71 
REMARK   11  A    between atoms: C_74  and  N_25 
REMARK       I    between atoms: N_26  and  C_77 
REMARK       I    between atoms: N_27  and  C_77 
REMARK   12  A    between atoms: C_28  and  C_34 
REMARK   13  A    between atoms: C_32  and  C_33 
REMARK   14  A    between atoms: C_33  and  C_35 
REMARK   15  A    between atoms: C_35  and  C_40 
REMARK   16  A    between atoms: C_36  and  C_37 
REMARK   17  A    between atoms: C_36  and  C_38 
REMARK   18  A    between atoms: C_37  and  C_41 
REMARK   19  A    between atoms: C_39  and  C_42 
REMARK   20  A    between atoms: C_39  and  C_46 
REMARK   21  A    between atoms: C_42  and  C_49 
REMARK   22  A    between atoms: C_44  and  C_45 
REMARK   23  A    between atoms: C_44  and  C_51 
REMARK   24  A    between atoms: C_50  and  C_52 
REMARK   25  A    between atoms: C_50  and  C_53 
REMARK   26  A    between atoms: C_51  and  C_55 
REMARK   27  A    between atoms: C_58  and  C_61 
REMARK   28  A    between atoms: C_58  and  C_62 
REMARK   29  A    between atoms: C_62  and  C_67 
REMARK   30  A    between atoms: C_67  and  C_71 
REMARK   31  A    between atoms: C_72  and  C_74 
REMARK   32  A    between atoms: C_74  and  C_75 
REMARK   33  A    between atoms: C_75  and  C_76 
ROOT
HETATM    1  C   UNK N   1      24.068  13.303   6.304  0.00  0.00     0.180 C 
ENDROOT
BRANCH   1   2
HETATM    2  N   UNK N   1      22.931  13.600   5.452  0.00  0.00    -0.346 N 
HETATM    3  C   UNK N   1      22.043  12.660   5.065  0.00  0.00     0.241 C 
HETATM    4  O   UNK N   1      22.031  11.559   5.598  0.00  0.00    -0.271 OA
HETATM    5  H   UNK N   1      22.803  14.525   5.143  0.00  0.00     0.163 HD
BRANCH   3   6
HETATM    6  C   UNK N   1      21.254  12.861   3.810  0.00  0.00     0.180 C 
BRANCH   6   7
HETATM    7  N   UNK N   1      19.842  12.617   4.000  0.00  0.00    -0.346 N 
HETATM    8  C   UNK N   1      19.021  13.623   4.372  0.00  0.00     0.241 C 
HETATM    9  O   UNK N   1      17.823  13.416   4.487  0.00  0.00    -0.271 OA
HETATM   10  H   UNK N   1      19.477  11.714   3.856  0.00  0.00     0.163 HD
BRANCH   8  11
HETATM   11  C   UNK N   1      19.592  15.002   4.605  0.00  0.00     0.176 C 
BRANCH  11  12
HETATM   12  N   UNK N   1      19.519  15.853   3.440  0.00  0.00    -0.346 N 
HETATM   13  C   UNK N   1      20.549  16.573   2.942  0.00  0.00     0.241 C 
HETATM   14  O   UNK N   1      21.664  16.501   3.438  0.00  0.00    -0.271 OA
HETATM   15  H   UNK N   1      18.654  15.911   2.973  0.00  0.00     0.163 HD
BRANCH  13  16
HETATM   16  C   UNK N   1      20.281  17.510   1.807  0.00  0.00     0.177 C 
BRANCH  16  17
HETATM   17  N   UNK N   1      19.103  17.085   1.066  0.00  0.00    -0.418 N 
HETATM   18  H   UNK N   1      18.670  17.174   0.148  0.00  0.00     0.150 HD
HETATM   19  H   UNK N   1      18.516  16.505   1.665  0.00  0.00     0.150 HD
ENDBRANCH  16  17
BRANCH  16  20
HETATM   20  C   UNK N   1      20.168  18.971   2.243  0.00  0.00     0.144 C 
BRANCH  20  21
HETATM   21  C   UNK N   1      20.862  19.926   1.320  0.00  0.00     0.141 C 
HETATM   22  O   UNK N   1      21.665  20.733   1.758  0.00  0.00    -0.650 OA
BRANCH  21  23
HETATM   23  O   UNK N   1      20.589  19.900   0.004  0.00  0.00    -0.776 OA
HETATM   24  H   UNK N   1      19.858  20.376  -0.337  0.00  0.00     0.167 HD
ENDBRANCH  21  23
ENDBRANCH  20  21
ENDBRANCH  16  20
ENDBRANCH  13  16
ENDBRANCH  11  12
BRANCH  11  25
HETATM   25  C   UNK N   1      19.276  15.680   5.935  0.00  0.00     0.036 C 
BRANCH  25  26
HETATM   26  C   UNK N   1      20.308  15.387   7.000  0.00  0.00     0.023 C 
BRANCH  26  27
HETATM   27  C   UNK N   1      20.923  16.679   7.478  0.00  0.00     0.138 C 
BRANCH  27  28
HETATM   28  N   UNK N   1      22.160  16.880   6.774  0.00  0.00    -0.227 N 
HETATM   29  C   UNK N   1      22.315  17.843   5.937  0.00  0.00     0.665 C 
HETATM   30  N   UNK N   1      23.540  17.976   5.254  0.00  0.00    -0.235 N 
HETATM   31  N   UNK N   1      21.261  18.752   5.668  0.00  0.00    -0.235 N 
HETATM   32  H   UNK N   1      23.932  17.203   4.788  0.00  0.00     0.174 HD
HETATM   33  H   UNK N   1      24.005  18.844   5.243  0.00  0.00     0.174 HD
HETATM   34  H   UNK N   1      21.095  19.585   5.172  0.00  0.00     0.174 HD
HETATM   35  H   UNK N   1      20.436  18.457   6.120  0.00  0.00     0.174 HD
ATOM     36  HN  UNK N   1      22.936  16.241   6.944  1.00  0.00     0.177 HD
ENDBRANCH  27  28
ENDBRANCH  26  27
ENDBRANCH  25  26
ENDBRANCH  11  25
ENDBRANCH   8  11
ENDBRANCH   6   7
BRANCH   6  37
HETATM   37  C   UNK N   1      21.747  12.509   2.416  0.00  0.00     0.009 C 
HETATM   38  C   UNK N   1      21.545  13.620   1.408  0.00  0.00     0.012 C 
HETATM   39  C   UNK N   1      20.976  11.282   1.965  0.00  0.00     0.012 C 
ENDBRANCH   6  37
ENDBRANCH   3   6
ENDBRANCH   1   2
BRANCH   1  40
HETATM   40  C   UNK N   1      25.259  13.837   5.604  0.00  0.00     0.241 C 
HETATM   41  O   UNK N   1      26.357  13.741   6.134  0.00  0.00    -0.271 OA
HETATM   42  N   UNK N   1      25.121  14.419   4.397  0.00  0.00    -0.346 N 
HETATM   43  H   UNK N   1      24.218  14.501   4.012  0.00  0.00     0.163 HD
BRANCH  42  44
HETATM   44  C   UNK N   1      26.243  14.923   3.649  0.00  0.00     0.180 C 
BRANCH  44  45
HETATM   45  C   UNK N   1      26.729  13.995   2.521  0.00  0.00     0.013 C 
HETATM   46  C   UNK N   1      25.597  13.487   1.651  0.00  0.00     0.012 C 
BRANCH  45  47
HETATM   47  C   UNK N   1      27.528  12.823   3.069  0.00  0.00     0.002 C 
HETATM   48  C   UNK N   1      28.426  12.229   2.001  0.00  0.00     0.005 C 
ENDBRANCH  45  47
ENDBRANCH  44  45
BRANCH  44  49
HETATM   49  C   UNK N   1      26.094  16.392   3.287  0.00  0.00     0.241 C 
HETATM   50  O   UNK N   1      25.070  16.805   2.771  0.00  0.00    -0.271 OA
HETATM   51  N   UNK N   1      27.117  17.249   3.490  0.00  0.00    -0.346 N 
HETATM   52  H   UNK N   1      27.021  18.180   3.184  0.00  0.00     0.163 HD
BRANCH  51  53
HETATM   53  C   UNK N   1      28.344  16.858   4.133  0.00  0.00     0.182 C 
BRANCH  53  54
HETATM   54  C   UNK N   1      28.939  17.763   5.210  0.00  0.00     0.243 C 
HETATM   55  O   UNK N   1      29.827  18.518   4.862  0.00  0.00    -0.271 OA
HETATM   56  N   UNK N   1      28.641  17.649   6.556  0.00  0.00    -0.337 N 
HETATM   57  C   UNK N   1      29.574  18.154   7.534  0.00  0.00     0.179 C 
HETATM   58  C   UNK N   1      27.666  16.769   7.132  0.00  0.00     0.127 C 
HETATM   59  C   UNK N   1      28.808  18.059   8.843  0.00  0.00     0.037 C 
HETATM   60  C   UNK N   1      27.788  16.942   8.636  0.00  0.00     0.022 C 
BRANCH  57  61
HETATM   61  C   UNK N   1      30.719  17.148   7.546  0.00  0.00     0.241 C 
HETATM   62  O   UNK N   1      30.696  16.173   8.282  0.00  0.00    -0.271 OA
HETATM   63  N   UNK N   1      31.752  17.374   6.690  0.00  0.00    -0.345 N 
HETATM   64  H   UNK N   1      31.613  18.182   6.143  0.00  0.00     0.163 HD
BRANCH  63  65
HETATM   65  C   UNK N   1      33.000  16.721   6.388  0.00  0.00     0.186 C 
BRANCH  65  66
HETATM   66  C   UNK N   1      34.201  17.068   7.269  0.00  0.00     0.074 C 
BRANCH  66  67
HETATM   67  C   UNK N   1      34.300  16.355   8.579  0.00  0.00    -0.056 A 
HETATM   68  C   UNK N   1      33.899  15.019   8.659  0.00  0.00     0.007 A 
HETATM   69  C   UNK N   1      34.066  14.308   9.849  0.00  0.00     0.001 A 
HETATM   70  C   UNK N   1      34.638  14.931  10.964  0.00  0.00     0.000 A 
HETATM   71  C   UNK N   1      35.046  16.264  10.885  0.00  0.00     0.001 A 
HETATM   72  C   UNK N   1      34.890  16.970   9.692  0.00  0.00     0.007 A 
ENDBRANCH  66  67
ENDBRANCH  65  66
BRANCH  65  73
HETATM   73  C   UNK N   1      33.251  16.748   4.900  0.00  0.00     0.163 C 
HETATM   74  O   UNK N   1      32.881  17.697   4.223  0.00  0.00    -0.648 OA
BRANCH  73  75
HETATM   75  O   UNK N   1      33.870  15.714   4.304  0.00  0.00    -0.775 OA
HETATM   76  H   UNK N   1      34.612  15.678   3.732  0.00  0.00     0.167 HD
ENDBRANCH  73  75
ENDBRANCH  65  73
ENDBRANCH  63  65
ENDBRANCH  57  61
ENDBRANCH  53  54
BRANCH  53  77
HETATM   77  C   UNK N   1      29.340  16.183   3.195  0.00  0.00     0.093 C 
BRANCH  77  78
HETATM   78  C   UNK N   1      30.046  15.082   3.922  0.00  0.00     0.028 A 
HETATM   79  N   UNK N   1      31.070  14.370   3.421  0.00  0.00    -0.354 N 
HETATM   80  C   UNK N   1      31.384  13.485   4.391  0.00  0.00     0.180 A 
HETATM   81  H   UNK N   1      31.496  14.471   2.540  0.00  0.00     0.166 HD
HETATM   82  N   UNK N   1      30.589  13.625   5.473  0.00  0.00    -0.360 N 
HETATM   83  C   UNK N   1      29.743  14.632   5.183  0.00  0.00     0.114 A 
ATOM     84  HN  UNK N   1      30.623  13.080   6.334  1.00  0.00     0.166 HD
ENDBRANCH  77  78
ENDBRANCH  53  77
ENDBRANCH  51  53
ENDBRANCH  44  49
ENDBRANCH  42  44
ENDBRANCH   1  40
BRANCH   1  85
HETATM   85  C   UNK N   1      24.019  14.089   7.631  0.00  0.00     0.073 C 
BRANCH  85  86
HETATM   86  C   UNK N   1      23.659  13.271   8.829  0.00  0.00    -0.056 A 
HETATM   87  C   UNK N   1      24.647  12.742   9.677  0.00  0.00     0.010 A 
HETATM   88  C   UNK N   1      24.285  12.133  10.876  0.00  0.00     0.037 A 
HETATM   89  C   UNK N   1      22.936  12.023  11.215  0.00  0.00     0.065 A 
HETATM   90  C   UNK N   1      21.950  12.493  10.342  0.00  0.00     0.037 A 
HETATM   91  C   UNK N   1      22.313  13.127   9.155  0.00  0.00     0.010 A 
BRANCH  89  92
HETATM   92  O   UNK N   1      22.583  11.472  12.386  0.00  0.00    -0.361 OA
HETATM   93  H   UNK N   1      23.174  11.082  13.000  0.00  0.00     0.217 HD
ENDBRANCH  89  92
ENDBRANCH  85  86
ENDBRANCH   1  85
TORSDOF 33
ENDMDL
MODEL 5
REMARK VINA RESULT:      -7.6      1.257      3.774
REMARK WARNING: 32 MAX_TORS EXCEEDED!!!
REMARK  33 active torsions:
REMARK  status: ('A' for Active; 'I' for Inactive)
REMARK    1  A    between atoms: O_4  and  C_46 
REMARK    2  A    between atoms: O_9  and  C_73 
REMARK    3  A    between atoms: O_11  and  C_76 
REMARK       I    between atoms: N_13  and  C_32 
REMARK    4  A    between atoms: C_33  and  N_14 
REMARK       I    between atoms: N_14  and  C_38 
REMARK       I    between atoms: N_15  and  C_34 
REMARK    5  A    between atoms: C_39  and  N_15 
REMARK    6  A    between atoms: C_36  and  N_16 
REMARK       I    between atoms: N_16  and  C_45 
REMARK    7  A    between atoms: C_44  and  N_18 
REMARK       I    between atoms: N_18  and  C_53 
REMARK    8  A    between atoms: C_50  and  N_21 
REMARK       I    between atoms: N_21  and  C_61 
REMARK    9  A    between atoms: C_58  and  N_22 
REMARK       I    between atoms: N_22  and  C_72 
REMARK   10  A    between atoms: N_23  and  C_71 
REMARK   11  A    between atoms: C_74  and  N_25 
REMARK       I    between atoms: N_26  and  C_77 
REMARK       I    between atoms: N_27  and  C_77 
REMARK   12  A    between atoms: C_28  and  C_34 
REMARK   13  A    between atoms: C_32  and  C_33 
REMARK   14  A    between atoms: C_33  and  C_35 
REMARK   15  A    between atoms: C_35  and  C_40 
REMARK   16  A    between atoms: C_36  and  C_37 
REMARK   17  A    between atoms: C_36  and  C_38 
REMARK   18  A    between atoms: C_37  and  C_41 
REMARK   19  A    between atoms: C_39  and  C_42 
REMARK   20  A    between atoms: C_39  and  C_46 
REMARK   21  A    between atoms: C_42  and  C_49 
REMARK   22  A    between atoms: C_44  and  C_45 
REMARK   23  A    between atoms: C_44  and  C_51 
REMARK   24  A    between atoms: C_50  and  C_52 
REMARK   25  A    between atoms: C_50  and  C_53 
REMARK   26  A    between atoms: C_51  and  C_55 
REMARK   27  A    between atoms: C_58  and  C_61 
REMARK   28  A    between atoms: C_58  and  C_62 
REMARK   29  A    between atoms: C_62  and  C_67 
REMARK   30  A    between atoms: C_67  and  C_71 
REMARK   31  A    between atoms: C_72  and  C_74 
REMARK   32  A    between atoms: C_74  and  C_75 
REMARK   33  A    between atoms: C_75  and  C_76 
ROOT
HETATM    1  C   UNK N   1      23.216  17.503   4.929  0.00  0.00     0.180 C 
ENDROOT
BRANCH   1   2
HETATM    2  N   UNK N   1      24.426  18.155   5.395  0.00  0.00    -0.346 N 
HETATM    3  C   UNK N   1      25.569  18.173   4.677  0.00  0.00     0.241 C 
HETATM    4  O   UNK N   1      25.571  17.832   3.502  0.00  0.00    -0.271 OA
HETATM    5  H   UNK N   1      24.412  18.603   6.271  0.00  0.00     0.163 HD
BRANCH   3   6
HETATM    6  C   UNK N   1      26.879  18.349   5.378  0.00  0.00     0.180 C 
BRANCH   6   7
HETATM    7  N   UNK N   1      26.828  17.928   6.759  0.00  0.00    -0.346 N 
HETATM    8  C   UNK N   1      27.698  17.004   7.222  0.00  0.00     0.241 C 
HETATM    9  O   UNK N   1      27.674  16.687   8.401  0.00  0.00    -0.271 OA
HETATM   10  H   UNK N   1      26.157  18.317   7.366  0.00  0.00     0.163 HD
BRANCH   8  11
HETATM   11  C   UNK N   1      28.713  16.401   6.280  0.00  0.00     0.176 C 
BRANCH  11  12
HETATM   12  N   UNK N   1      28.115  15.773   5.125  0.00  0.00    -0.346 N 
HETATM   13  C   UNK N   1      28.412  14.532   4.679  0.00  0.00     0.241 C 
HETATM   14  O   UNK N   1      29.199  13.818   5.283  0.00  0.00    -0.271 OA
HETATM   15  H   UNK N   1      27.439  16.287   4.627  0.00  0.00     0.163 HD
BRANCH  13  16
HETATM   16  C   UNK N   1      27.803  14.073   3.391  0.00  0.00     0.177 C 
BRANCH  16  17
HETATM   17  N   UNK N   1      26.937  12.927   3.621  0.00  0.00    -0.418 N 
HETATM   18  H   UNK N   1      26.752  12.200   4.311  0.00  0.00     0.150 HD
HETATM   19  H   UNK N   1      26.306  12.814   2.828  0.00  0.00     0.150 HD
ENDBRANCH  16  17
BRANCH  16  20
HETATM   20  C   UNK N   1      27.070  15.184   2.639  0.00  0.00     0.144 C 
BRANCH  20  21
HETATM   21  C   UNK N   1      25.634  14.865   2.353  0.00  0.00     0.141 C 
HETATM   22  O   UNK N   1      25.263  14.663   1.208  0.00  0.00    -0.650 OA
BRANCH  21  23
HETATM   23  O   UNK N   1      24.748  14.814   3.363  0.00  0.00    -0.776 OA
HETATM   24  H   UNK N   1      24.194  14.065   3.468  0.00  0.00     0.167 HD
ENDBRANCH  21  23
ENDBRANCH  20  21
ENDBRANCH  16  20
ENDBRANCH  13  16
ENDBRANCH  11  12
BRANCH  11  25
HETATM   25  C   UNK N   1      29.985  17.200   6.009  0.00  0.00     0.036 C 
BRANCH  25  26
HETATM   26  C   UNK N   1      31.158  16.731   6.840  0.00  0.00     0.023 C 
BRANCH  26  27
HETATM   27  C   UNK N   1      31.567  17.822   7.797  0.00  0.00     0.138 C 
BRANCH  27  28
HETATM   28  N   UNK N   1      32.394  17.242   8.819  0.00  0.00    -0.227 N 
HETATM   29  C   UNK N   1      33.650  17.505   8.906  0.00  0.00     0.665 C 
HETATM   30  N   UNK N   1      34.419  16.886   9.911  0.00  0.00    -0.235 N 
HETATM   31  N   UNK N   1      34.275  18.383   7.987  0.00  0.00    -0.235 N 
HETATM   32  H   UNK N   1      34.381  15.909  10.031  0.00  0.00     0.174 HD
HETATM   33  H   UNK N   1      34.995  17.430  10.496  0.00  0.00     0.174 HD
HETATM   34  H   UNK N   1      35.144  18.822   7.838  0.00  0.00     0.174 HD
HETATM   35  H   UNK N   1      33.643  18.633   7.274  0.00  0.00     0.174 HD
ATOM     36  HN  UNK N   1      31.974  16.604   9.495  1.00  0.00     0.177 HD
ENDBRANCH  27  28
ENDBRANCH  26  27
ENDBRANCH  25  26
ENDBRANCH  11  25
ENDBRANCH   8  11
ENDBRANCH   6   7
BRANCH   6  37
HETATM   37  C   UNK N   1      27.842  19.500   5.131  0.00  0.00     0.009 C 
HETATM   38  C   UNK N   1      27.827  20.544   6.227  0.00  0.00     0.012 C 
HETATM   39  C   UNK N   1      27.436  20.149   3.820  0.00  0.00     0.012 C 
ENDBRANCH   6  37
ENDBRANCH   3   6
ENDBRANCH   1   2
BRANCH   1  40
HETATM   40  C   UNK N   1      22.967  16.381   5.863  0.00  0.00     0.241 C 
HETATM   41  O   UNK N   1      23.915  15.738   6.291  0.00  0.00    -0.271 OA
HETATM   42  N   UNK N   1      21.706  16.083   6.231  0.00  0.00    -0.346 N 
HETATM   43  H   UNK N   1      20.965  16.606   5.847  0.00  0.00     0.163 HD
BRANCH  42  44
HETATM   44  C   UNK N   1      21.400  15.030   7.164  0.00  0.00     0.180 C 
BRANCH  44  45
HETATM   45  C   UNK N   1      20.808  15.511   8.501  0.00  0.00     0.013 C 
HETATM   46  C   UNK N   1      20.498  14.369   9.449  0.00  0.00     0.012 C 
BRANCH  45  47
HETATM   47  C   UNK N   1      19.565  16.360   8.288  0.00  0.00     0.002 C 
HETATM   48  C   UNK N   1      19.755  17.754   8.852  0.00  0.00     0.005 C 
ENDBRANCH  45  47
ENDBRANCH  44  45
BRANCH  44  49
HETATM   49  C   UNK N   1      20.699  13.851   6.509  0.00  0.00     0.241 C 
HETATM   50  O   UNK N   1      19.564  13.963   6.077  0.00  0.00    -0.271 OA
HETATM   51  N   UNK N   1      21.309  12.648   6.442  0.00  0.00    -0.346 N 
HETATM   52  H   UNK N   1      20.808  11.885   6.075  0.00  0.00     0.163 HD
BRANCH  51  53
HETATM   53  C   UNK N   1      22.662  12.437   6.885  0.00  0.00     0.182 C 
BRANCH  53  54
HETATM   54  C   UNK N   1      23.703  11.939   5.884  0.00  0.00     0.243 C 
HETATM   55  O   UNK N   1      24.317  12.789   5.265  0.00  0.00    -0.271 OA
HETATM   56  N   UNK N   1      23.857  10.610   5.535  0.00  0.00    -0.337 N 
HETATM   57  C   UNK N   1      24.463  10.273   4.270  0.00  0.00     0.179 C 
HETATM   58  C   UNK N   1      23.167   9.499   6.126  0.00  0.00     0.127 C 
HETATM   59  C   UNK N   1      24.661   8.769   4.357  0.00  0.00     0.037 C 
HETATM   60  C   UNK N   1      23.601   8.275   5.337  0.00  0.00     0.022 C 
BRANCH  57  61
HETATM   61  C   UNK N   1      23.396  10.582   3.226  0.00  0.00     0.241 C 
HETATM   62  O   UNK N   1      22.536   9.763   2.940  0.00  0.00    -0.271 OA
HETATM   63  N   UNK N   1      23.435  11.811   2.644  0.00  0.00    -0.345 N 
HETATM   64  H   UNK N   1      24.167  12.368   2.998  0.00  0.00     0.163 HD
BRANCH  63  65
HETATM   65  C   UNK N   1      22.668  12.498   1.637  0.00  0.00     0.186 C 
BRANCH  65  66
HETATM   66  C   UNK N   1      21.173  12.684   1.903  0.00  0.00     0.074 C 
BRANCH  66  67
HETATM   67  C   UNK N   1      20.505  13.826   1.208  0.00  0.00    -0.056 A 
HETATM   68  C   UNK N   1      19.247  13.632   0.633  0.00  0.00     0.007 A 
HETATM   69  C   UNK N   1      18.566  14.707   0.058  0.00  0.00     0.001 A 
HETATM   70  C   UNK N   1      19.141  15.982   0.059  0.00  0.00     0.000 A 
HETATM   71  C   UNK N   1      20.396  16.182   0.639  0.00  0.00     0.001 A 
HETATM   72  C   UNK N   1      21.069  15.110   1.224  0.00  0.00     0.007 A 
ENDBRANCH  66  67
ENDBRANCH  65  66
BRANCH  65  73
HETATM   73  C   UNK N   1      23.029  11.978   0.267  0.00  0.00     0.163 C 
HETATM   74  O   UNK N   1      23.463  12.733  -0.591  0.00  0.00    -0.648 OA
BRANCH  73  75
HETATM   75  O   UNK N   1      22.855  10.677  -0.025  0.00  0.00    -0.775 OA
HETATM   76  H   UNK N   1      23.440   9.946   0.014  0.00  0.00     0.167 HD
ENDBRANCH  73  75
ENDBRANCH  65  73
ENDBRANCH  63  65
ENDBRANCH  57  61
ENDBRANCH  53  54
BRANCH  53  77
HETATM   77  C   UNK N   1      22.763  11.871   8.299  0.00  0.00     0.093 C 
BRANCH  77  78
HETATM   78  C   UNK N   1      23.864  12.564   9.038  0.00  0.00     0.028 A 
HETATM   79  N   UNK N   1      24.623  13.550   8.532  0.00  0.00    -0.354 N 
HETATM   80  C   UNK N   1      25.488  13.864   9.518  0.00  0.00     0.180 A 
HETATM   81  H   UNK N   1      24.562  13.954   7.636  0.00  0.00     0.166 HD
HETATM   82  N   UNK N   1      25.291  13.105  10.618  0.00  0.00    -0.360 N 
HETATM   83  C   UNK N   1      24.267  12.283  10.321  0.00  0.00     0.114 A 
ATOM     84  HN  UNK N   1      25.812  13.147  11.493  1.00  0.00     0.166 HD
ENDBRANCH  77  78
ENDBRANCH  53  77
ENDBRANCH  51  53
ENDBRANCH  44  49
ENDBRANCH  42  44
ENDBRANCH   1  40
BRANCH   1  85
HETATM   85  C   UNK N   1      21.975  18.407   5.077  0.00  0.00     0.073 C 
BRANCH  85  86
HETATM   86  C   UNK N   1      21.563  19.112   3.826  0.00  0.00    -0.056 A 
HETATM   87  C   UNK N   1      22.446  19.964   3.141  0.00  0.00     0.010 A 
HETATM   88  C   UNK N   1      22.099  20.471   1.891  0.00  0.00     0.037 A 
HETATM   89  C   UNK N   1      20.858  20.153   1.337  0.00  0.00     0.065 A 
HETATM   90  C   UNK N   1      19.954  19.356   2.045  0.00  0.00     0.037 A 
HETATM   91  C   UNK N   1      20.312  18.827   3.284  0.00  0.00     0.010 A 
BRANCH  89  92
HETATM   92  O   UNK N   1      20.535  20.607   0.117  0.00  0.00    -0.361 OA
HETATM   93  H   UNK N   1      20.967  21.307  -0.332  0.00  0.00     0.217 HD
ENDBRANCH  89  92
ENDBRANCH  85  86
ENDBRANCH   1  85
TORSDOF 33
ENDMDL
MODEL 6
REMARK VINA RESULT:      -7.6      2.461      9.878
REMARK WARNING: 32 MAX_TORS EXCEEDED!!!
REMARK  33 active torsions:
REMARK  status: ('A' for Active; 'I' for Inactive)
REMARK    1  A    between atoms: O_4  and  C_46 
REMARK    2  A    between atoms: O_9  and  C_73 
REMARK    3  A    between atoms: O_11  and  C_76 
REMARK       I    between atoms: N_13  and  C_32 
REMARK    4  A    between atoms: C_33  and  N_14 
REMARK       I    between atoms: N_14  and  C_38 
REMARK       I    between atoms: N_15  and  C_34 
REMARK    5  A    between atoms: C_39  and  N_15 
REMARK    6  A    between atoms: C_36  and  N_16 
REMARK       I    between atoms: N_16  and  C_45 
REMARK    7  A    between atoms: C_44  and  N_18 
REMARK       I    between atoms: N_18  and  C_53 
REMARK    8  A    between atoms: C_50  and  N_21 
REMARK       I    between atoms: N_21  and  C_61 
REMARK    9  A    between atoms: C_58  and  N_22 
REMARK       I    between atoms: N_22  and  C_72 
REMARK   10  A    between atoms: N_23  and  C_71 
REMARK   11  A    between atoms: C_74  and  N_25 
REMARK       I    between atoms: N_26  and  C_77 
REMARK       I    between atoms: N_27  and  C_77 
REMARK   12  A    between atoms: C_28  and  C_34 
REMARK   13  A    between atoms: C_32  and  C_33 
REMARK   14  A    between atoms: C_33  and  C_35 
REMARK   15  A    between atoms: C_35  and  C_40 
REMARK   16  A    between atoms: C_36  and  C_37 
REMARK   17  A    between atoms: C_36  and  C_38 
REMARK   18  A    between atoms: C_37  and  C_41 
REMARK   19  A    between atoms: C_39  and  C_42 
REMARK   20  A    between atoms: C_39  and  C_46 
REMARK   21  A    between atoms: C_42  and  C_49 
REMARK   22  A    between atoms: C_44  and  C_45 
REMARK   23  A    between atoms: C_44  and  C_51 
REMARK   24  A    between atoms: C_50  and  C_52 
REMARK   25  A    between atoms: C_50  and  C_53 
REMARK   26  A    between atoms: C_51  and  C_55 
REMARK   27  A    between atoms: C_58  and  C_61 
REMARK   28  A    between atoms: C_58  and  C_62 
REMARK   29  A    between atoms: C_62  and  C_67 
REMARK   30  A    between atoms: C_67  and  C_71 
REMARK   31  A    between atoms: C_72  and  C_74 
REMARK   32  A    between atoms: C_74  and  C_75 
REMARK   33  A    between atoms: C_75  and  C_76 
ROOT
HETATM    1  C   UNK N   1      23.408  12.620   6.832  0.00  0.00     0.180 C 
ENDROOT
BRANCH   1   2
HETATM    2  N   UNK N   1      22.436  13.442   6.135  0.00  0.00    -0.346 N 
HETATM    3  C   UNK N   1      21.147  13.072   5.974  0.00  0.00     0.241 C 
HETATM    4  O   UNK N   1      20.688  12.128   6.602  0.00  0.00    -0.271 OA
HETATM    5  H   UNK N   1      22.728  14.305   5.764  0.00  0.00     0.163 HD
BRANCH   3   6
HETATM    6  C   UNK N   1      20.354  13.635   4.837  0.00  0.00     0.180 C 
BRANCH   6   7
HETATM    7  N   UNK N   1      19.077  14.162   5.262  0.00  0.00    -0.346 N 
HETATM    8  C   UNK N   1      18.892  15.495   5.371  0.00  0.00     0.241 C 
HETATM    9  O   UNK N   1      17.797  15.931   5.689  0.00  0.00    -0.271 OA
HETATM   10  H   UNK N   1      18.338  13.547   5.471  0.00  0.00     0.163 HD
BRANCH   8  11
HETATM   11  C   UNK N   1      20.037  16.432   5.063  0.00  0.00     0.176 C 
BRANCH  11  12
HETATM   12  N   UNK N   1      19.842  17.188   3.848  0.00  0.00    -0.346 N 
HETATM   13  C   UNK N   1      20.683  17.181   2.789  0.00  0.00     0.241 C 
HETATM   14  O   UNK N   1      21.673  16.463   2.777  0.00  0.00    -0.271 OA
HETATM   15  H   UNK N   1      19.035  17.749   3.785  0.00  0.00     0.163 HD
BRANCH  13  16
HETATM   16  C   UNK N   1      20.411  18.120   1.656  0.00  0.00     0.177 C 
BRANCH  16  17
HETATM   17  N   UNK N   1      19.560  17.482   0.663  0.00  0.00    -0.418 N 
HETATM   18  H   UNK N   1      18.652  17.027   0.574  0.00  0.00     0.150 HD
HETATM   19  H   UNK N   1      20.027  17.494  -0.243  0.00  0.00     0.150 HD
ENDBRANCH  16  17
BRANCH  16  20
HETATM   20  C   UNK N   1      19.832  19.461   2.107  0.00  0.00     0.144 C 
BRANCH  20  21
HETATM   21  C   UNK N   1      20.765  20.255   2.970  0.00  0.00     0.141 C 
HETATM   22  O   UNK N   1      20.690  20.187   4.186  0.00  0.00    -0.650 OA
BRANCH  21  23
HETATM   23  O   UNK N   1      21.684  21.054   2.400  0.00  0.00    -0.776 OA
HETATM   24  H   UNK N   1      22.395  21.394   2.907  0.00  0.00     0.167 HD
ENDBRANCH  21  23
ENDBRANCH  20  21
ENDBRANCH  16  20
ENDBRANCH  13  16
ENDBRANCH  11  12
BRANCH  11  25
HETATM   25  C   UNK N   1      20.646  17.207   6.228  0.00  0.00     0.036 C 
BRANCH  25  26
HETATM   26  C   UNK N   1      21.288  16.305   7.258  0.00  0.00     0.023 C 
BRANCH  26  27
HETATM   27  C   UNK N   1      20.269  15.931   8.306  0.00  0.00     0.138 C 
BRANCH  27  28
HETATM   28  N   UNK N   1      19.940  17.108   9.060  0.00  0.00    -0.227 N 
HETATM   29  C   UNK N   1      18.727  17.516   9.186  0.00  0.00     0.665 C 
HETATM   30  N   UNK N   1      18.465  18.693   9.913  0.00  0.00    -0.235 N 
HETATM   31  N   UNK N   1      17.656  16.815   8.577  0.00  0.00    -0.235 N 
HETATM   32  H   UNK N   1      18.963  19.519   9.714  0.00  0.00     0.174 HD
HETATM   33  H   UNK N   1      17.781  18.692  10.622  0.00  0.00     0.174 HD
HETATM   34  H   UNK N   1      16.673  16.823   8.549  0.00  0.00     0.174 HD
HETATM   35  H   UNK N   1      18.006  16.095   8.003  0.00  0.00     0.174 HD
ATOM     36  HN  UNK N   1      20.689  17.635   9.508  1.00  0.00     0.177 HD
ENDBRANCH  27  28
ENDBRANCH  26  27
ENDBRANCH  25  26
ENDBRANCH  11  25
ENDBRANCH   8  11
ENDBRANCH   6   7
BRANCH   6  37
HETATM   37  C   UNK N   1      20.333  13.059   3.430  0.00  0.00     0.009 C 
HETATM   38  C   UNK N   1      18.941  12.933   2.851  0.00  0.00     0.012 C 
HETATM   39  C   UNK N   1      20.969  11.683   3.502  0.00  0.00     0.012 C 
ENDBRANCH   6  37
ENDBRANCH   3   6
ENDBRANCH   1   2
BRANCH   1  40
HETATM   40  C   UNK N   1      24.484  12.337   5.856  0.00  0.00     0.241 C 
HETATM   41  O   UNK N   1      25.632  12.666   6.119  0.00  0.00    -0.271 OA
HETATM   42  N   UNK N   1      24.190  11.721   4.695  0.00  0.00    -0.346 N 
HETATM   43  H   UNK N   1      23.251  11.492   4.506  0.00  0.00     0.163 HD
BRANCH  42  44
HETATM   44  C   UNK N   1      25.196  11.383   3.721  0.00  0.00     0.180 C 
BRANCH  44  45
HETATM   45  C   UNK N   1      25.855  10.009   3.932  0.00  0.00     0.013 C 
HETATM   46  C   UNK N   1      25.062   9.115   4.865  0.00  0.00     0.012 C 
BRANCH  45  47
HETATM   47  C   UNK N   1      27.284  10.146   4.435  0.00  0.00     0.002 C 
HETATM   48  C   UNK N   1      28.276   9.677   3.390  0.00  0.00     0.005 C 
ENDBRANCH  45  47
ENDBRANCH  44  45
BRANCH  44  49
HETATM   49  C   UNK N   1      24.768  11.708   2.299  0.00  0.00     0.241 C 
HETATM   50  O   UNK N   1      23.930  11.029   1.731  0.00  0.00    -0.271 OA
HETATM   51  N   UNK N   1      25.349  12.726   1.630  0.00  0.00    -0.346 N 
HETATM   52  H   UNK N   1      25.104  12.873   0.688  0.00  0.00     0.163 HD
BRANCH  51  53
HETATM   53  C   UNK N   1      26.314  13.605   2.237  0.00  0.00     0.182 C 
BRANCH  53  54
HETATM   54  C   UNK N   1      26.082  15.115   2.179  0.00  0.00     0.243 C 
HETATM   55  O   UNK N   1      26.642  15.721   1.285  0.00  0.00    -0.271 OA
HETATM   56  N   UNK N   1      25.421  15.826   3.164  0.00  0.00    -0.337 N 
HETATM   57  C   UNK N   1      25.674  17.240   3.308  0.00  0.00     0.179 C 
HETATM   58  C   UNK N   1      24.762  15.268   4.308  0.00  0.00     0.127 C 
HETATM   59  C   UNK N   1      24.621  17.691   4.307  0.00  0.00     0.037 C 
HETATM   60  C   UNK N   1      24.286  16.452   5.132  0.00  0.00     0.022 C 
BRANCH  57  61
HETATM   61  C   UNK N   1      27.052  17.332   3.952  0.00  0.00     0.241 C 
HETATM   62  O   UNK N   1      28.026  16.801   3.439  0.00  0.00    -0.271 OA
HETATM   63  N   UNK N   1      27.150  18.042   5.109  0.00  0.00    -0.345 N 
HETATM   64  H   UNK N   1      26.287  18.432   5.381  0.00  0.00     0.163 HD
BRANCH  63  65
HETATM   65  C   UNK N   1      28.207  18.364   6.033  0.00  0.00     0.186 C 
BRANCH  65  66
HETATM   66  C   UNK N   1      28.870  17.198   6.769  0.00  0.00     0.074 C 
BRANCH  66  67
HETATM   67  C   UNK N   1      30.354  17.268   6.937  0.00  0.00    -0.056 A 
HETATM   68  C   UNK N   1      31.173  17.157   5.811  0.00  0.00     0.007 A 
HETATM   69  C   UNK N   1      32.556  17.309   5.933  0.00  0.00     0.001 A 
HETATM   70  C   UNK N   1      33.124  17.575   7.183  0.00  0.00     0.000 A 
HETATM   71  C   UNK N   1      32.308  17.693   8.310  0.00  0.00     0.001 A 
HETATM   72  C   UNK N   1      30.926  17.553   8.185  0.00  0.00     0.007 A 
ENDBRANCH  66  67
ENDBRANCH  65  66
BRANCH  65  73
HETATM   73  C   UNK N   1      27.803  19.536   6.894  0.00  0.00     0.163 C 
HETATM   74  O   UNK N   1      27.820  20.673   6.444  0.00  0.00    -0.648 OA
BRANCH  73  75
HETATM   75  O   UNK N   1      27.441  19.336   8.173  0.00  0.00    -0.775 OA
HETATM   76  H   UNK N   1      27.548  18.600   8.743  0.00  0.00     0.167 HD
ENDBRANCH  73  75
ENDBRANCH  65  73
ENDBRANCH  63  65
ENDBRANCH  57  61
ENDBRANCH  53  54
BRANCH  53  77
HETATM   77  C   UNK N   1      27.757  13.139   2.073  0.00  0.00     0.093 C 
BRANCH  77  78
HETATM   78  C   UNK N   1      28.542  13.501   3.295  0.00  0.00     0.028 A 
HETATM   79  N   UNK N   1      28.007  13.735   4.505  0.00  0.00    -0.354 N 
HETATM   80  C   UNK N   1      29.057  14.039   5.296  0.00  0.00     0.180 A 
HETATM   81  H   UNK N   1      27.056  13.696   4.758  0.00  0.00     0.166 HD
HETATM   82  N   UNK N   1      30.224  14.001   4.616  0.00  0.00    -0.360 N 
HETATM   83  C   UNK N   1      29.905  13.661   3.353  0.00  0.00     0.114 A 
ATOM     84  HN  UNK N   1      31.155  14.191   4.984  1.00  0.00     0.166 HD
ENDBRANCH  77  78
ENDBRANCH  53  77
ENDBRANCH  51  53
ENDBRANCH  44  49
ENDBRANCH  42  44
ENDBRANCH   1  40
BRANCH   1  85
HETATM   85  C   UNK N   1      24.112  13.391   7.967  0.00  0.00     0.073 C 
BRANCH  85  86
HETATM   86  C   UNK N   1      23.699  12.989   9.346  0.00  0.00    -0.056 A 
HETATM   87  C   UNK N   1      22.355  13.046   9.752  0.00  0.00     0.010 A 
HETATM   88  C   UNK N   1      21.973  12.507  10.979  0.00  0.00     0.037 A 
HETATM   89  C   UNK N   1      22.936  11.938  11.813  0.00  0.00     0.065 A 
HETATM   90  C   UNK N   1      24.282  11.937  11.437  0.00  0.00     0.037 A 
HETATM   91  C   UNK N   1      24.661  12.452  10.198  0.00  0.00     0.010 A 
BRANCH  89  92
HETATM   92  O   UNK N   1      22.567  11.382  12.976  0.00  0.00    -0.361 OA
HETATM   93  H   UNK N   1      22.411  10.468  13.115  0.00  0.00     0.217 HD
ENDBRANCH  89  92
ENDBRANCH  85  86
ENDBRANCH   1  85
TORSDOF 33
ENDMDL
MODEL 7
REMARK VINA RESULT:      -7.6      1.405      3.112
REMARK WARNING: 32 MAX_TORS EXCEEDED!!!
REMARK  33 active torsions:
REMARK  status: ('A' for Active; 'I' for Inactive)
REMARK    1  A    between atoms: O_4  and  C_46 
REMARK    2  A    between atoms: O_9  and  C_73 
REMARK    3  A    between atoms: O_11  and  C_76 
REMARK       I    between atoms: N_13  and  C_32 
REMARK    4  A    between atoms: C_33  and  N_14 
REMARK       I    between atoms: N_14  and  C_38 
REMARK       I    between atoms: N_15  and  C_34 
REMARK    5  A    between atoms: C_39  and  N_15 
REMARK    6  A    between atoms: C_36  and  N_16 
REMARK       I    between atoms: N_16  and  C_45 
REMARK    7  A    between atoms: C_44  and  N_18 
REMARK       I    between atoms: N_18  and  C_53 
REMARK    8  A    between atoms: C_50  and  N_21 
REMARK       I    between atoms: N_21  and  C_61 
REMARK    9  A    between atoms: C_58  and  N_22 
REMARK       I    between atoms: N_22  and  C_72 
REMARK   10  A    between atoms: N_23  and  C_71 
REMARK   11  A    between atoms: C_74  and  N_25 
REMARK       I    between atoms: N_26  and  C_77 
REMARK       I    between atoms: N_27  and  C_77 
REMARK   12  A    between atoms: C_28  and  C_34 
REMARK   13  A    between atoms: C_32  and  C_33 
REMARK   14  A    between atoms: C_33  and  C_35 
REMARK   15  A    between atoms: C_35  and  C_40 
REMARK   16  A    between atoms: C_36  and  C_37 
REMARK   17  A    between atoms: C_36  and  C_38 
REMARK   18  A    between atoms: C_37  and  C_41 
REMARK   19  A    between atoms: C_39  and  C_42 
REMARK   20  A    between atoms: C_39  and  C_46 
REMARK   21  A    between atoms: C_42  and  C_49 
REMARK   22  A    between atoms: C_44  and  C_45 
REMARK   23  A    between atoms: C_44  and  C_51 
REMARK   24  A    between atoms: C_50  and  C_52 
REMARK   25  A    between atoms: C_50  and  C_53 
REMARK   26  A    between atoms: C_51  and  C_55 
REMARK   27  A    between atoms: C_58  and  C_61 
REMARK   28  A    between atoms: C_58  and  C_62 
REMARK   29  A    between atoms: C_62  and  C_67 
REMARK   30  A    between atoms: C_67  and  C_71 
REMARK   31  A    between atoms: C_72  and  C_74 
REMARK   32  A    between atoms: C_74  and  C_75 
REMARK   33  A    between atoms: C_75  and  C_76 
ROOT
HETATM    1  C   UNK N   1      23.976  16.539   4.701  0.00  0.00     0.180 C 
ENDROOT
BRANCH   1   2
HETATM    2  N   UNK N   1      25.386  16.243   4.528  0.00  0.00    -0.346 N 
HETATM    3  C   UNK N   1      25.884  15.689   3.401  0.00  0.00     0.241 C 
HETATM    4  O   UNK N   1      25.200  15.617   2.390  0.00  0.00    -0.271 OA
HETATM    5  H   UNK N   1      26.006  16.455   5.262  0.00  0.00     0.163 HD
BRANCH   3   6
HETATM    6  C   UNK N   1      27.167  14.922   3.460  0.00  0.00     0.180 C 
BRANCH   6   7
HETATM    7  N   UNK N   1      28.266  15.635   2.851  0.00  0.00    -0.346 N 
HETATM    8  C   UNK N   1      29.219  16.203   3.621  0.00  0.00     0.241 C 
HETATM    9  O   UNK N   1      30.166  16.767   3.096  0.00  0.00    -0.271 OA
HETATM   10  H   UNK N   1      28.321  15.706   1.871  0.00  0.00     0.163 HD
BRANCH   8  11
HETATM   11  C   UNK N   1      29.118  16.103   5.126  0.00  0.00     0.176 C 
BRANCH  11  12
HETATM   12  N   UNK N   1      30.404  16.014   5.777  0.00  0.00    -0.346 N 
HETATM   13  C   UNK N   1      31.073  14.864   6.016  0.00  0.00     0.241 C 
HETATM   14  O   UNK N   1      30.635  13.790   5.629  0.00  0.00    -0.271 OA
HETATM   15  H   UNK N   1      30.826  16.855   6.068  0.00  0.00     0.163 HD
BRANCH  13  16
HETATM   16  C   UNK N   1      32.334  14.926   6.819  0.00  0.00     0.177 C 
BRANCH  16  17
HETATM   17  N   UNK N   1      33.326  15.748   6.143  0.00  0.00    -0.418 N 
HETATM   18  H   UNK N   1      33.413  16.630   5.640  0.00  0.00     0.150 HD
HETATM   19  H   UNK N   1      34.235  15.289   6.188  0.00  0.00     0.150 HD
ENDBRANCH  16  17
BRANCH  16  20
HETATM   20  C   UNK N   1      32.111  15.391   8.258  0.00  0.00     0.144 C 
BRANCH  20  21
HETATM   21  C   UNK N   1      32.526  16.811   8.499  0.00  0.00     0.141 C 
HETATM   22  O   UNK N   1      31.905  17.730   7.991  0.00  0.00    -0.650 OA
BRANCH  21  23
HETATM   23  O   UNK N   1      33.596  17.072   9.271  0.00  0.00    -0.776 OA
HETATM   24  H   UNK N   1      34.197  16.388   9.492  0.00  0.00     0.167 HD
ENDBRANCH  21  23
ENDBRANCH  20  21
ENDBRANCH  16  20
ENDBRANCH  13  16
ENDBRANCH  11  12
BRANCH  11  25
HETATM   25  C   UNK N   1      28.088  16.986   5.823  0.00  0.00     0.036 C 
BRANCH  25  26
HETATM   26  C   UNK N   1      28.412  18.459   5.716  0.00  0.00     0.023 C 
BRANCH  26  27
HETATM   27  C   UNK N   1      27.944  19.172   6.959  0.00  0.00     0.138 C 
BRANCH  27  28
HETATM   28  N   UNK N   1      28.971  19.064   7.959  0.00  0.00    -0.227 N 
HETATM   29  C   UNK N   1      28.767  18.466   9.079  0.00  0.00     0.665 C 
HETATM   30  N   UNK N   1      29.801  18.415  10.034  0.00  0.00    -0.235 N 
HETATM   31  N   UNK N   1      27.508  17.886   9.377  0.00  0.00    -0.235 N 
HETATM   32  H   UNK N   1      30.271  19.239  10.298  0.00  0.00     0.174 HD
HETATM   33  H   UNK N   1      30.054  17.554  10.439  0.00  0.00     0.174 HD
HETATM   34  H   UNK N   1      27.082  17.328  10.066  0.00  0.00     0.174 HD
HETATM   35  H   UNK N   1      26.857  18.112   8.673  0.00  0.00     0.174 HD
ATOM     36  HN  UNK N   1      29.886  19.473   7.775  1.00  0.00     0.177 HD
ENDBRANCH  27  28
ENDBRANCH  26  27
ENDBRANCH  25  26
ENDBRANCH  11  25
ENDBRANCH   8  11
ENDBRANCH   6   7
BRANCH   6  37
HETATM   37  C   UNK N   1      27.276  13.411   3.324  0.00  0.00     0.009 C 
HETATM   38  C   UNK N   1      27.790  12.729   4.573  0.00  0.00     0.012 C 
HETATM   39  C   UNK N   1      28.230  13.134   2.176  0.00  0.00     0.012 C 
ENDBRANCH   6  37
ENDBRANCH   3   6
ENDBRANCH   1   2
BRANCH   1  40
HETATM   40  C   UNK N   1      23.530  15.751   5.873  0.00  0.00     0.241 C 
HETATM   41  O   UNK N   1      24.356  15.389   6.699  0.00  0.00    -0.271 OA
HETATM   42  N   UNK N   1      22.227  15.444   6.016  0.00  0.00    -0.346 N 
HETATM   43  H   UNK N   1      21.594  15.730   5.319  0.00  0.00     0.163 HD
BRANCH  42  44
HETATM   44  C   UNK N   1      21.724  14.714   7.152  0.00  0.00     0.180 C 
BRANCH  44  45
HETATM   45  C   UNK N   1      21.161  15.595   8.281  0.00  0.00     0.013 C 
HETATM   46  C   UNK N   1      20.401  14.798   9.323  0.00  0.00     0.012 C 
BRANCH  45  47
HETATM   47  C   UNK N   1      20.279  16.707   7.734  0.00  0.00     0.002 C 
HETATM   48  C   UNK N   1      19.140  17.015   8.685  0.00  0.00     0.005 C 
ENDBRANCH  45  47
ENDBRANCH  44  45
BRANCH  44  49
HETATM   49  C   UNK N   1      20.877  13.518   6.751  0.00  0.00     0.241 C 
HETATM   50  O   UNK N   1      19.697  13.655   6.475  0.00  0.00    -0.271 OA
HETATM   51  N   UNK N   1      21.410  12.277   6.745  0.00  0.00    -0.346 N 
HETATM   52  H   UNK N   1      20.823  11.512   6.549  0.00  0.00     0.163 HD
BRANCH  51  53
HETATM   53  C   UNK N   1      22.802  12.028   7.014  0.00  0.00     0.182 C 
BRANCH  53  54
HETATM   54  C   UNK N   1      23.710  11.579   5.871  0.00  0.00     0.243 C 
HETATM   55  O   UNK N   1      24.472  12.413   5.417  0.00  0.00    -0.271 OA
HETATM   56  N   UNK N   1      23.594  10.357   5.234  0.00  0.00    -0.337 N 
HETATM   57  C   UNK N   1      24.105  10.203   3.894  0.00  0.00     0.179 C 
HETATM   58  C   UNK N   1      22.706   9.294   5.608  0.00  0.00     0.127 C 
HETATM   59  C   UNK N   1      24.003   8.708   3.642  0.00  0.00     0.037 C 
HETATM   60  C   UNK N   1      22.879   8.218   4.550  0.00  0.00     0.022 C 
BRANCH  57  61
HETATM   61  C   UNK N   1      23.106  10.934   3.004  0.00  0.00     0.241 C 
HETATM   62  O   UNK N   1      22.163  10.346   2.497  0.00  0.00    -0.271 OA
HETATM   63  N   UNK N   1      23.302  12.267   2.816  0.00  0.00    -0.345 N 
HETATM   64  H   UNK N   1      24.086  12.601   3.311  0.00  0.00     0.163 HD
BRANCH  63  65
HETATM   65  C   UNK N   1      22.645  13.309   2.071  0.00  0.00     0.186 C 
BRANCH  65  66
HETATM   66  C   UNK N   1      21.138  13.473   2.279  0.00  0.00     0.074 C 
BRANCH  66  67
HETATM   67  C   UNK N   1      20.440  14.448   1.387  0.00  0.00    -0.056 A 
HETATM   68  C   UNK N   1      19.318  14.030   0.668  0.00  0.00     0.007 A 
HETATM   69  C   UNK N   1      18.597  14.947  -0.102  0.00  0.00     0.001 A 
HETATM   70  C   UNK N   1      18.996  16.286  -0.152  0.00  0.00     0.000 A 
HETATM   71  C   UNK N   1      20.114  16.709   0.571  0.00  0.00     0.001 A 
HETATM   72  C   UNK N   1      20.824  15.795   1.349  0.00  0.00     0.007 A 
ENDBRANCH  66  67
ENDBRANCH  65  66
BRANCH  65  73
HETATM   73  C   UNK N   1      23.108  13.290   0.635  0.00  0.00     0.163 C 
HETATM   74  O   UNK N   1      22.839  12.345  -0.093  0.00  0.00    -0.648 OA
BRANCH  73  75
HETATM   75  O   UNK N   1      23.840  14.308   0.151  0.00  0.00    -0.775 OA
HETATM   76  H   UNK N   1      23.752  15.237   0.241  0.00  0.00     0.167 HD
ENDBRANCH  73  75
ENDBRANCH  65  73
ENDBRANCH  63  65
ENDBRANCH  57  61
ENDBRANCH  53  54
BRANCH  53  77
HETATM   77  C   UNK N   1      23.058  11.382   8.372  0.00  0.00     0.093 C 
BRANCH  77  78
HETATM   78  C   UNK N   1      24.028  12.215   9.149  0.00  0.00     0.028 A 
HETATM   79  N   UNK N   1      24.736  13.237   8.640  0.00  0.00    -0.354 N 
HETATM   80  C   UNK N   1      25.485  13.686   9.668  0.00  0.00     0.180 A 
HETATM   81  H   UNK N   1      24.714  13.581   7.718  0.00  0.00     0.166 HD
HETATM   82  N   UNK N   1      25.265  12.977  10.796  0.00  0.00    -0.360 N 
HETATM   83  C   UNK N   1      24.346  12.047  10.474  0.00  0.00     0.114 A 
ATOM     84  HN  UNK N   1      25.706  13.116  11.705  1.00  0.00     0.166 HD
ENDBRANCH  77  78
ENDBRANCH  53  77
ENDBRANCH  51  53
ENDBRANCH  44  49
ENDBRANCH  42  44
ENDBRANCH   1  40
BRANCH   1  85
HETATM   85  C   UNK N   1      23.737  18.006   5.112  0.00  0.00     0.073 C 
BRANCH  85  86
HETATM   86  C   UNK N   1      22.769  18.748   4.248  0.00  0.00    -0.056 A 
HETATM   87  C   UNK N   1      23.203  19.726   3.337  0.00  0.00     0.010 A 
HETATM   88  C   UNK N   1      22.306  20.279   2.425  0.00  0.00     0.037 A 
HETATM   89  C   UNK N   1      20.970  19.877   2.441  0.00  0.00     0.065 A 
HETATM   90  C   UNK N   1      20.525  18.949   3.387  0.00  0.00     0.037 A 
HETATM   91  C   UNK N   1      21.428  18.376   4.282  0.00  0.00     0.010 A 
BRANCH  89  92
HETATM   92  O   UNK N   1      20.112  20.376   1.540  0.00  0.00    -0.361 OA
HETATM   93  H   UNK N   1      20.287  21.095   0.965  0.00  0.00     0.217 HD
ENDBRANCH  89  92
ENDBRANCH  85  86
ENDBRANCH   1  85
TORSDOF 33
ENDMDL
MODEL 8
REMARK VINA RESULT:      -7.4      1.906      3.660
REMARK WARNING: 32 MAX_TORS EXCEEDED!!!
REMARK  33 active torsions:
REMARK  status: ('A' for Active; 'I' for Inactive)
REMARK    1  A    between atoms: O_4  and  C_46 
REMARK    2  A    between atoms: O_9  and  C_73 
REMARK    3  A    between atoms: O_11  and  C_76 
REMARK       I    between atoms: N_13  and  C_32 
REMARK    4  A    between atoms: C_33  and  N_14 
REMARK       I    between atoms: N_14  and  C_38 
REMARK       I    between atoms: N_15  and  C_34 
REMARK    5  A    between atoms: C_39  and  N_15 
REMARK    6  A    between atoms: C_36  and  N_16 
REMARK       I    between atoms: N_16  and  C_45 
REMARK    7  A    between atoms: C_44  and  N_18 
REMARK       I    between atoms: N_18  and  C_53 
REMARK    8  A    between atoms: C_50  and  N_21 
REMARK       I    between atoms: N_21  and  C_61 
REMARK    9  A    between atoms: C_58  and  N_22 
REMARK       I    between atoms: N_22  and  C_72 
REMARK   10  A    between atoms: N_23  and  C_71 
REMARK   11  A    between atoms: C_74  and  N_25 
REMARK       I    between atoms: N_26  and  C_77 
REMARK       I    between atoms: N_27  and  C_77 
REMARK   12  A    between atoms: C_28  and  C_34 
REMARK   13  A    between atoms: C_32  and  C_33 
REMARK   14  A    between atoms: C_33  and  C_35 
REMARK   15  A    between atoms: C_35  and  C_40 
REMARK   16  A    between atoms: C_36  and  C_37 
REMARK   17  A    between atoms: C_36  and  C_38 
REMARK   18  A    between atoms: C_37  and  C_41 
REMARK   19  A    between atoms: C_39  and  C_42 
REMARK   20  A    between atoms: C_39  and  C_46 
REMARK   21  A    between atoms: C_42  and  C_49 
REMARK   22  A    between atoms: C_44  and  C_45 
REMARK   23  A    between atoms: C_44  and  C_51 
REMARK   24  A    between atoms: C_50  and  C_52 
REMARK   25  A    between atoms: C_50  and  C_53 
REMARK   26  A    between atoms: C_51  and  C_55 
REMARK   27  A    between atoms: C_58  and  C_61 
REMARK   28  A    between atoms: C_58  and  C_62 
REMARK   29  A    between atoms: C_62  and  C_67 
REMARK   30  A    between atoms: C_67  and  C_71 
REMARK   31  A    between atoms: C_72  and  C_74 
REMARK   32  A    between atoms: C_74  and  C_75 
REMARK   33  A    between atoms: C_75  and  C_76 
ROOT
HETATM    1  C   UNK N   1      23.850  16.013   4.567  0.00  0.00     0.180 C 
ENDROOT
BRANCH   1   2
HETATM    2  N   UNK N   1      25.286  15.867   4.721  0.00  0.00    -0.346 N 
HETATM    3  C   UNK N   1      26.128  15.770   3.669  0.00  0.00     0.241 C 
HETATM    4  O   UNK N   1      25.740  16.026   2.538  0.00  0.00    -0.271 OA
HETATM    5  H   UNK N   1      25.662  15.837   5.630  0.00  0.00     0.163 HD
BRANCH   3   6
HETATM    6  C   UNK N   1      27.451  15.095   3.843  0.00  0.00     0.180 C 
BRANCH   6   7
HETATM    7  N   UNK N   1      28.421  15.520   2.859  0.00  0.00    -0.346 N 
HETATM    8  C   UNK N   1      29.375  16.418   3.186  0.00  0.00     0.241 C 
HETATM    9  O   UNK N   1      30.216  16.737   2.360  0.00  0.00    -0.271 OA
HETATM   10  H   UNK N   1      28.387  15.151   1.947  0.00  0.00     0.163 HD
BRANCH   8  11
HETATM   11  C   UNK N   1      29.410  16.990   4.584  0.00  0.00     0.176 C 
BRANCH  11  12
HETATM   12  N   UNK N   1      30.676  16.786   5.250  0.00  0.00    -0.346 N 
HETATM   13  C   UNK N   1      30.823  16.270   6.491  0.00  0.00     0.241 C 
HETATM   14  O   UNK N   1      29.855  15.879   7.128  0.00  0.00    -0.271 OA
HETATM   15  H   UNK N   1      31.493  17.040   4.763  0.00  0.00     0.163 HD
BRANCH  13  16
HETATM   16  C   UNK N   1      32.191  16.244   7.096  0.00  0.00     0.177 C 
BRANCH  16  17
HETATM   17  N   UNK N   1      32.921  15.068   6.647  0.00  0.00    -0.418 N 
HETATM   18  H   UNK N   1      33.048  14.082   6.871  0.00  0.00     0.150 HD
HETATM   19  H   UNK N   1      33.496  15.312   5.842  0.00  0.00     0.150 HD
ENDBRANCH  16  17
BRANCH  16  20
HETATM   20  C   UNK N   1      32.988  17.524   6.843  0.00  0.00     0.144 C 
BRANCH  20  21
HETATM   21  C   UNK N   1      34.141  17.707   7.782  0.00  0.00     0.141 C 
HETATM   22  O   UNK N   1      34.844  18.701   7.710  0.00  0.00    -0.650 OA
BRANCH  21  23
HETATM   23  O   UNK N   1      34.407  16.764   8.703  0.00  0.00    -0.776 OA
HETATM   24  H   UNK N   1      33.762  16.530   9.341  0.00  0.00     0.167 HD
ENDBRANCH  21  23
ENDBRANCH  20  21
ENDBRANCH  16  20
ENDBRANCH  13  16
ENDBRANCH  11  12
BRANCH  11  25
HETATM   25  C   UNK N   1      28.765  18.355   4.803  0.00  0.00     0.036 C 
BRANCH  25  26
HETATM   26  C   UNK N   1      27.689  18.328   5.866  0.00  0.00     0.023 C 
BRANCH  26  27
HETATM   27  C   UNK N   1      27.955  19.412   6.881  0.00  0.00     0.138 C 
BRANCH  27  28
HETATM   28  N   UNK N   1      29.048  18.995   7.714  0.00  0.00    -0.227 N 
HETATM   29  C   UNK N   1      28.856  18.409   8.843  0.00  0.00     0.665 C 
HETATM   30  N   UNK N   1      29.965  18.048   9.633  0.00  0.00    -0.235 N 
HETATM   31  N   UNK N   1      27.545  18.150   9.315  0.00  0.00    -0.235 N 
HETATM   32  H   UNK N   1      30.664  18.711   9.836  0.00  0.00     0.174 HD
HETATM   33  H   UNK N   1      30.042  17.131   9.982  0.00  0.00     0.174 HD
HETATM   34  H   UNK N   1      27.090  17.682  10.051  0.00  0.00     0.174 HD
HETATM   35  H   UNK N   1      26.882  18.571   8.720  0.00  0.00     0.174 HD
ATOM     36  HN  UNK N   1      30.003  19.169   7.403  1.00  0.00     0.177 HD
ENDBRANCH  27  28
ENDBRANCH  26  27
ENDBRANCH  25  26
ENDBRANCH  11  25
ENDBRANCH   8  11
ENDBRANCH   6   7
BRANCH   6  37
HETATM   37  C   UNK N   1      27.633  13.653   4.289  0.00  0.00     0.009 C 
HETATM   38  C   UNK N   1      29.078  13.273   4.526  0.00  0.00     0.012 C 
HETATM   39  C   UNK N   1      27.059  12.771   3.195  0.00  0.00     0.012 C 
ENDBRANCH   6  37
ENDBRANCH   3   6
ENDBRANCH   1   2
BRANCH   1  40
HETATM   40  C   UNK N   1      23.239  15.346   5.740  0.00  0.00     0.241 C 
HETATM   41  O   UNK N   1      23.867  15.288   6.788  0.00  0.00    -0.271 OA
HETATM   42  N   UNK N   1      22.006  14.815   5.640  0.00  0.00    -0.346 N 
HETATM   43  H   UNK N   1      21.541  14.858   4.774  0.00  0.00     0.163 HD
BRANCH  42  44
HETATM   44  C   UNK N   1      21.343  14.186   6.753  0.00  0.00     0.180 C 
BRANCH  44  45
HETATM   45  C   UNK N   1      20.365  15.099   7.513  0.00  0.00     0.013 C 
HETATM   46  C   UNK N   1      20.179  16.447   6.844  0.00  0.00     0.012 C 
BRANCH  45  47
HETATM   47  C   UNK N   1      20.792  15.294   8.960  0.00  0.00     0.002 C 
HETATM   48  C   UNK N   1      20.422  14.091   9.804  0.00  0.00     0.005 C 
ENDBRANCH  45  47
ENDBRANCH  44  45
BRANCH  44  49
HETATM   49  C   UNK N   1      20.836  12.792   6.423  0.00  0.00     0.241 C 
HETATM   50  O   UNK N   1      19.743  12.634   5.904  0.00  0.00    -0.271 OA
HETATM   51  N   UNK N   1      21.570  11.706   6.746  0.00  0.00    -0.346 N 
HETATM   52  H   UNK N   1      21.189  10.813   6.584  0.00  0.00     0.163 HD
BRANCH  51  53
HETATM   53  C   UNK N   1      22.887  11.802   7.320  0.00  0.00     0.182 C 
BRANCH  53  54
HETATM   54  C   UNK N   1      24.081  11.267   6.530  0.00  0.00     0.243 C 
HETATM   55  O   UNK N   1      24.722  12.080   5.890  0.00  0.00    -0.271 OA
HETATM   56  N   UNK N   1      24.358   9.921   6.377  0.00  0.00    -0.337 N 
HETATM   57  C   UNK N   1      25.148   9.482   5.252  0.00  0.00     0.179 C 
HETATM   58  C   UNK N   1      23.661   8.840   7.013  0.00  0.00     0.127 C 
HETATM   59  C   UNK N   1      25.419   8.018   5.556  0.00  0.00     0.037 C 
HETATM   60  C   UNK N   1      24.267   7.567   6.449  0.00  0.00     0.022 C 
BRANCH  57  61
HETATM   61  C   UNK N   1      24.215   9.583   4.051  0.00  0.00     0.241 C 
HETATM   62  O   UNK N   1      24.612   9.342   2.921  0.00  0.00    -0.271 OA
HETATM   63  N   UNK N   1      22.923   9.934   4.296  0.00  0.00    -0.345 N 
HETATM   64  H   UNK N   1      22.750  10.067   5.257  0.00  0.00     0.163 HD
BRANCH  63  65
HETATM   65  C   UNK N   1      21.748  10.159   3.495  0.00  0.00     0.186 C 
BRANCH  65  66
HETATM   66  C   UNK N   1      21.433  11.604   3.107  0.00  0.00     0.074 C 
BRANCH  66  67
HETATM   67  C   UNK N   1      22.273  12.207   2.028  0.00  0.00    -0.056 A 
HETATM   68  C   UNK N   1      22.654  11.417   0.940  0.00  0.00     0.007 A 
HETATM   69  C   UNK N   1      23.363  11.983  -0.122  0.00  0.00     0.001 A 
HETATM   70  C   UNK N   1      23.690  13.343  -0.101  0.00  0.00     0.000 A 
HETATM   71  C   UNK N   1      23.306  14.137   0.982  0.00  0.00     0.001 A 
HETATM   72  C   UNK N   1      22.587  13.573   2.036  0.00  0.00     0.007 A 
ENDBRANCH  66  67
ENDBRANCH  65  66
BRANCH  65  73
HETATM   73  C   UNK N   1      20.589   9.361   4.041  0.00  0.00     0.163 C 
HETATM   74  O   UNK N   1      20.077   8.471   3.376  0.00  0.00    -0.648 OA
BRANCH  73  75
HETATM   75  O   UNK N   1      20.097   9.640   5.261  0.00  0.00    -0.775 OA
HETATM   76  H   UNK N   1      19.902  10.454   5.683  0.00  0.00     0.167 HD
ENDBRANCH  73  75
ENDBRANCH  65  73
ENDBRANCH  63  65
ENDBRANCH  57  61
ENDBRANCH  53  54
BRANCH  53  77
HETATM   77  C   UNK N   1      22.918  11.569   8.827  0.00  0.00     0.093 C 
BRANCH  77  78
HETATM   78  C   UNK N   1      24.013  12.387   9.437  0.00  0.00     0.028 A 
HETATM   79  N   UNK N   1      24.630  13.413   8.829  0.00  0.00    -0.354 N 
HETATM   80  C   UNK N   1      25.547  13.844   9.720  0.00  0.00     0.180 A 
HETATM   81  H   UNK N   1      24.453  13.771   7.929  0.00  0.00     0.166 HD
HETATM   82  N   UNK N   1      25.518  13.119  10.859  0.00  0.00    -0.360 N 
HETATM   83  C   UNK N   1      24.552  12.198  10.687  0.00  0.00     0.114 A 
ATOM     84  HN  UNK N   1      26.109  13.244  11.681  1.00  0.00     0.166 HD
ENDBRANCH  77  78
ENDBRANCH  53  77
ENDBRANCH  51  53
ENDBRANCH  44  49
ENDBRANCH  42  44
ENDBRANCH   1  40
BRANCH   1  85
HETATM   85  C   UNK N   1      23.401  17.484   4.685  0.00  0.00     0.073 C 
BRANCH  85  86
HETATM   86  C   UNK N   1      22.153  17.819   3.934  0.00  0.00    -0.056 A 
HETATM   87  C   UNK N   1      21.511  16.869   3.122  0.00  0.00     0.010 A 
HETATM   88  C   UNK N   1      20.262  17.149   2.572  0.00  0.00     0.037 A 
HETATM   89  C   UNK N   1      19.667  18.389   2.807  0.00  0.00     0.065 A 
HETATM   90  C   UNK N   1      20.332  19.358   3.565  0.00  0.00     0.037 A 
HETATM   91  C   UNK N   1      21.570  19.067   4.138  0.00  0.00     0.010 A 
BRANCH  89  92
HETATM   92  O   UNK N   1      18.448  18.650   2.313  0.00  0.00    -0.361 OA
HETATM   93  H   UNK N   1      18.121  19.502   2.099  0.00  0.00     0.217 HD
ENDBRANCH  89  92
ENDBRANCH  85  86
ENDBRANCH   1  85
TORSDOF 33
ENDMDL
MODEL 9
REMARK VINA RESULT:      -7.4      1.471      2.459
REMARK WARNING: 32 MAX_TORS EXCEEDED!!!
REMARK  33 active torsions:
REMARK  status: ('A' for Active; 'I' for Inactive)
REMARK    1  A    between atoms: O_4  and  C_46 
REMARK    2  A    between atoms: O_9  and  C_73 
REMARK    3  A    between atoms: O_11  and  C_76 
REMARK       I    between atoms: N_13  and  C_32 
REMARK    4  A    between atoms: C_33  and  N_14 
REMARK       I    between atoms: N_14  and  C_38 
REMARK       I    between atoms: N_15  and  C_34 
REMARK    5  A    between atoms: C_39  and  N_15 
REMARK    6  A    between atoms: C_36  and  N_16 
REMARK       I    between atoms: N_16  and  C_45 
REMARK    7  A    between atoms: C_44  and  N_18 
REMARK       I    between atoms: N_18  and  C_53 
REMARK    8  A    between atoms: C_50  and  N_21 
REMARK       I    between atoms: N_21  and  C_61 
REMARK    9  A    between atoms: C_58  and  N_22 
REMARK       I    between atoms: N_22  and  C_72 
REMARK   10  A    between atoms: N_23  and  C_71 
REMARK   11  A    between atoms: C_74  and  N_25 
REMARK       I    between atoms: N_26  and  C_77 
REMARK       I    between atoms: N_27  and  C_77 
REMARK   12  A    between atoms: C_28  and  C_34 
REMARK   13  A    between atoms: C_32  and  C_33 
REMARK   14  A    between atoms: C_33  and  C_35 
REMARK   15  A    between atoms: C_35  and  C_40 
REMARK   16  A    between atoms: C_36  and  C_37 
REMARK   17  A    between atoms: C_36  and  C_38 
REMARK   18  A    between atoms: C_37  and  C_41 
REMARK   19  A    between atoms: C_39  and  C_42 
REMARK   20  A    between atoms: C_39  and  C_46 
REMARK   21  A    between atoms: C_42  and  C_49 
REMARK   22  A    between atoms: C_44  and  C_45 
REMARK   23  A    between atoms: C_44  and  C_51 
REMARK   24  A    between atoms: C_50  and  C_52 
REMARK   25  A    between atoms: C_50  and  C_53 
REMARK   26  A    between atoms: C_51  and  C_55 
REMARK   27  A    between atoms: C_58  and  C_61 
REMARK   28  A    between atoms: C_58  and  C_62 
REMARK   29  A    between atoms: C_62  and  C_67 
REMARK   30  A    between atoms: C_67  and  C_71 
REMARK   31  A    between atoms: C_72  and  C_74 
REMARK   32  A    between atoms: C_74  and  C_75 
REMARK   33  A    between atoms: C_75  and  C_76 
ROOT
HETATM    1  C   UNK N   1      23.204  17.022   4.943  0.00  0.00     0.180 C 
ENDROOT
BRANCH   1   2
HETATM    2  N   UNK N   1      24.370  17.817   5.282  0.00  0.00    -0.346 N 
HETATM    3  C   UNK N   1      25.403  18.000   4.432  0.00  0.00     0.241 C 
HETATM    4  O   UNK N   1      25.301  17.686   3.254  0.00  0.00    -0.271 OA
HETATM    5  H   UNK N   1      24.409  18.241   6.169  0.00  0.00     0.163 HD
BRANCH   3   6
HETATM    6  C   UNK N   1      26.757  18.332   4.974  0.00  0.00     0.180 C 
BRANCH   6   7
HETATM    7  N   UNK N   1      26.940  17.861   6.328  0.00  0.00    -0.346 N 
HETATM    8  C   UNK N   1      27.764  16.821   6.582  0.00  0.00     0.241 C 
HETATM    9  O   UNK N   1      27.945  16.459   7.733  0.00  0.00    -0.271 OA
HETATM   10  H   UNK N   1      26.464  18.300   7.069  0.00  0.00     0.163 HD
BRANCH   8  11
HETATM   11  C   UNK N   1      28.479  16.142   5.437  0.00  0.00     0.176 C 
BRANCH  11  12
HETATM   12  N   UNK N   1      29.777  16.712   5.158  0.00  0.00    -0.346 N 
HETATM   13  C   UNK N   1      30.907  16.436   5.846  0.00  0.00     0.241 C 
HETATM   14  O   UNK N   1      30.908  15.611   6.750  0.00  0.00    -0.271 OA
HETATM   15  H   UNK N   1      29.843  17.348   4.410  0.00  0.00     0.163 HD
BRANCH  13  16
HETATM   16  C   UNK N   1      32.147  17.208   5.521  0.00  0.00     0.177 C 
BRANCH  16  17
HETATM   17  N   UNK N   1      32.799  17.656   6.742  0.00  0.00    -0.418 N 
HETATM   18  H   UNK N   1      33.728  17.796   7.138  0.00  0.00     0.150 HD
HETATM   19  H   UNK N   1      32.093  17.915   7.429  0.00  0.00     0.150 HD
ENDBRANCH  16  17
BRANCH  16  20
HETATM   20  C   UNK N   1      33.116  16.442   4.620  0.00  0.00     0.144 C 
BRANCH  20  21
HETATM   21  C   UNK N   1      32.843  16.622   3.158  0.00  0.00     0.141 C 
HETATM   22  O   UNK N   1      33.522  16.041   2.327  0.00  0.00    -0.650 OA
BRANCH  21  23
HETATM   23  O   UNK N   1      31.850  17.436   2.760  0.00  0.00    -0.776 OA
HETATM   24  H   UNK N   1      31.173  17.685   3.358  0.00  0.00     0.167 HD
ENDBRANCH  21  23
ENDBRANCH  20  21
ENDBRANCH  16  20
ENDBRANCH  13  16
ENDBRANCH  11  12
BRANCH  11  25
HETATM   25  C   UNK N   1      28.400  14.620   5.360  0.00  0.00     0.036 C 
BRANCH  25  26
HETATM   26  C   UNK N   1      28.836  14.080   4.016  0.00  0.00     0.023 C 
BRANCH  26  27
HETATM   27  C   UNK N   1      27.764  13.174   3.464  0.00  0.00     0.138 C 
BRANCH  27  28
HETATM   28  N   UNK N   1      27.128  13.842   2.363  0.00  0.00    -0.227 N 
HETATM   29  C   UNK N   1      26.014  14.470   2.503  0.00  0.00     0.665 C 
HETATM   30  N   UNK N   1      25.420  15.083   1.382  0.00  0.00    -0.235 N 
HETATM   31  N   UNK N   1      25.362  14.526   3.760  0.00  0.00    -0.235 N 
HETATM   32  H   UNK N   1      25.291  14.572   0.550  0.00  0.00     0.174 HD
HETATM   33  H   UNK N   1      25.132  16.023   1.431  0.00  0.00     0.174 HD
HETATM   34  H   UNK N   1      24.590  14.961   4.187  0.00  0.00     0.174 HD
HETATM   35  H   UNK N   1      25.828  13.949   4.409  0.00  0.00     0.174 HD
ATOM     36  HN  UNK N   1      27.571  13.817   1.445  1.00  0.00     0.177 HD
ENDBRANCH  27  28
ENDBRANCH  26  27
ENDBRANCH  25  26
ENDBRANCH  11  25
ENDBRANCH   8  11
ENDBRANCH   6   7
BRANCH   6  37
HETATM   37  C   UNK N   1      27.518  19.613   4.671  0.00  0.00     0.009 C 
HETATM   38  C   UNK N   1      27.647  20.535   5.864  0.00  0.00     0.012 C 
HETATM   39  C   UNK N   1      26.763  20.330   3.567  0.00  0.00     0.012 C 
ENDBRANCH   6  37
ENDBRANCH   3   6
ENDBRANCH   1   2
BRANCH   1  40
HETATM   40  C   UNK N   1      23.091  15.987   5.996  0.00  0.00     0.241 C 
HETATM   41  O   UNK N   1      24.100  15.611   6.576  0.00  0.00    -0.271 OA
HETATM   42  N   UNK N   1      21.884  15.476   6.304  0.00  0.00    -0.346 N 
HETATM   43  H   UNK N   1      21.096  15.784   5.800  0.00  0.00     0.163 HD
BRANCH  42  44
HETATM   44  C   UNK N   1      21.701  14.495   7.344  0.00  0.00     0.180 C 
BRANCH  44  45
HETATM   45  C   UNK N   1      21.167  15.062   8.671  0.00  0.00     0.013 C 
HETATM   46  C   UNK N   1      21.002  13.999   9.739  0.00  0.00     0.012 C 
BRANCH  45  47
HETATM   47  C   UNK N   1      19.855  15.806   8.473  0.00  0.00     0.002 C 
HETATM   48  C   UNK N   1      20.047  17.301   8.635  0.00  0.00     0.005 C 
ENDBRANCH  45  47
ENDBRANCH  44  45
BRANCH  44  49
HETATM   49  C   UNK N   1      21.033  13.226   6.842  0.00  0.00     0.241 C 
HETATM   50  O   UNK N   1      19.866  13.235   6.489  0.00  0.00    -0.271 OA
HETATM   51  N   UNK N   1      21.712  12.059   6.829  0.00  0.00    -0.346 N 
HETATM   52  H   UNK N   1      21.236  11.239   6.565  0.00  0.00     0.163 HD
BRANCH  51  53
HETATM   53  C   UNK N   1      23.103  11.965   7.186  0.00  0.00     0.182 C 
BRANCH  53  54
HETATM   54  C   UNK N   1      24.109  11.499   6.135  0.00  0.00     0.243 C 
HETATM   55  O   UNK N   1      24.660  12.366   5.483  0.00  0.00    -0.271 OA
HETATM   56  N   UNK N   1      24.294  10.173   5.787  0.00  0.00    -0.337 N 
HETATM   57  C   UNK N   1      24.848   9.850   4.494  0.00  0.00     0.179 C 
HETATM   58  C   UNK N   1      23.676   9.042   6.417  0.00  0.00     0.127 C 
HETATM   59  C   UNK N   1      25.105   8.355   4.578  0.00  0.00     0.037 C 
HETATM   60  C   UNK N   1      24.114   7.830   5.614  0.00  0.00     0.022 C 
BRANCH  57  61
HETATM   61  C   UNK N   1      23.719  10.113   3.504  0.00  0.00     0.241 C 
HETATM   62  O   UNK N   1      22.884   9.256   3.256  0.00  0.00    -0.271 OA
HETATM   63  N   UNK N   1      23.674  11.344   2.926  0.00  0.00    -0.345 N 
HETATM   64  H   UNK N   1      24.396  11.932   3.247  0.00  0.00     0.163 HD
BRANCH  63  65
HETATM   65  C   UNK N   1      22.829  11.998   1.960  0.00  0.00     0.186 C 
BRANCH  65  66
HETATM   66  C   UNK N   1      23.225  11.872   0.488  0.00  0.00     0.074 C 
BRANCH  66  67
HETATM   67  C   UNK N   1      22.820  10.614  -0.211  0.00  0.00    -0.056 A 
HETATM   68  C   UNK N   1      21.574  10.049   0.073  0.00  0.00     0.007 A 
HETATM   69  C   UNK N   1      21.138   8.925  -0.632  0.00  0.00     0.001 A 
HETATM   70  C   UNK N   1      21.946   8.364  -1.626  0.00  0.00     0.000 A 
HETATM   71  C   UNK N   1      23.189   8.930  -1.917  0.00  0.00     0.001 A 
HETATM   72  C   UNK N   1      23.618  10.060  -1.221  0.00  0.00     0.007 A 
ENDBRANCH  66  67
ENDBRANCH  65  66
BRANCH  65  73
HETATM   73  C   UNK N   1      22.489  13.391   2.429  0.00  0.00     0.163 C 
HETATM   74  O   UNK N   1      22.343  14.300   1.624  0.00  0.00    -0.648 OA
BRANCH  73  75
HETATM   75  O   UNK N   1      22.364  13.646   3.742  0.00  0.00    -0.775 OA
HETATM   76  H   UNK N   1      22.716  13.216   4.497  0.00  0.00     0.167 HD
ENDBRANCH  73  75
ENDBRANCH  65  73
ENDBRANCH  63  65
ENDBRANCH  57  61
ENDBRANCH  53  54
BRANCH  53  77
HETATM   77  C   UNK N   1      23.338  11.471   8.610  0.00  0.00     0.093 C 
BRANCH  77  78
HETATM   78  C   UNK N   1      24.292  12.389   9.308  0.00  0.00     0.028 A 
HETATM   79  N   UNK N   1      24.902  13.439   8.732  0.00  0.00    -0.354 N 
HETATM   80  C   UNK N   1      25.675  13.968   9.703  0.00  0.00     0.180 A 
HETATM   81  H   UNK N   1      24.806  13.752   7.803  0.00  0.00     0.166 HD
HETATM   82  N   UNK N   1      25.564  13.281  10.861  0.00  0.00    -0.360 N 
HETATM   83  C   UNK N   1      24.693  12.284  10.617  0.00  0.00     0.114 A 
ATOM     84  HN  UNK N   1      26.043  13.477  11.739  1.00  0.00     0.166 HD
ENDBRANCH  77  78
ENDBRANCH  53  77
ENDBRANCH  51  53
ENDBRANCH  44  49
ENDBRANCH  42  44
ENDBRANCH   1  40
BRANCH   1  85
HETATM   85  C   UNK N   1      21.897  17.831   5.057  0.00  0.00     0.073 C 
BRANCH  85  86
HETATM   86  C   UNK N   1      21.502  18.560   3.814  0.00  0.00    -0.056 A 
HETATM   87  C   UNK N   1      20.324  18.237   3.120  0.00  0.00     0.010 A 
HETATM   88  C   UNK N   1      19.890  19.040   2.067  0.00  0.00     0.037 A 
HETATM   89  C   UNK N   1      20.648  20.149   1.688  0.00  0.00     0.065 A 
HETATM   90  C   UNK N   1      21.852  20.435   2.338  0.00  0.00     0.037 A 
HETATM   91  C   UNK N   1      22.272  19.647   3.409  0.00  0.00     0.010 A 
BRANCH  89  92
HETATM   92  O   UNK N   1      20.216  20.948   0.701  0.00  0.00    -0.361 OA
HETATM   93  H   UNK N   1      20.585  20.996  -0.159  0.00  0.00     0.217 HD
ENDBRANCH  89  92
ENDBRANCH  85  86
ENDBRANCH   1  85
TORSDOF 33
ENDMDL
