MODEL 1
REMARK VINA RESULT:      -7.8      0.000      0.000
REMARK  3 active torsions:
REMARK  status: ('A' for Active; 'I' for Inactive)
REMARK    1  A    between atoms: N_5  and  C_14 
REMARK    2  A    between atoms: C_9  and  C_11 
REMARK       I    between atoms: C_11  and  N_13 
REMARK    3  A    between atoms: C_20  and  C_17 
ROOT
HETATM    1  C   UNK N   1      21.244  12.224  11.598  0.00  0.00     0.002 A 
HETATM    2  C   UNK N   1      20.316  12.955  10.831  0.00  0.00     0.015 A 
HETATM    3  C   UNK N   1      20.801  13.669   9.742  0.00  0.00     0.011 A 
HETATM    4  C   UNK N   1      20.166  14.455   8.800  0.00  0.00     0.130 A 
HETATM    5  N   UNK N   1      21.130  14.905   7.959  0.00  0.00    -0.266 N 
HETATM    6  N   UNK N   1      22.318  14.435   8.328  0.00  0.00    -0.292 N 
ATOM      7  HN  UNK N   1      23.209  14.621   7.869  1.00  0.00     0.187 HD
HETATM    8  C   UNK N   1      22.128  13.673   9.412  0.00  0.00     0.076 A 
HETATM    9  C   UNK N   1      23.082  12.951  10.140  0.00  0.00     0.060 A 
HETATM   10  C   UNK N   1      22.617  12.217  11.253  0.00  0.00     0.019 A 
ENDROOT
BRANCH   5  11
HETATM   11  C   UNK N   1      20.955  15.727   6.797  0.00  0.00     0.056 A 
HETATM   12  C   UNK N   1      21.909  16.690   6.433  0.00  0.00     0.032 A 
HETATM   13  C   UNK N   1      21.676  17.531   5.336  0.00  0.00     0.010 A 
HETATM   14  C   UNK N   1      20.501  17.399   4.576  0.00  0.00    -0.052 A 
HETATM   15  C   UNK N   1      19.565  16.418   4.935  0.00  0.00     0.010 A 
HETATM   16  C   UNK N   1      19.787  15.599   6.037  0.00  0.00     0.032 A 
BRANCH  14  17
HETATM   17  C   UNK N   1      20.223  18.350   3.436  0.00  0.00     0.036 C 
HETATM   18  C   UNK N   1      20.932  19.691   3.608  0.00  0.00     0.012 C 
HETATM   19  C   UNK N   1      20.557  20.612   2.451  0.00  0.00     0.020 C 
HETATM   20  C   UNK N   1      20.921  19.933   1.132  0.00  0.00     0.113 C 
HETATM   21  N   UNK N   1      20.188  18.676   0.992  0.00  0.00    -0.420 N 
HETATM   22  C   UNK N   1      20.592  17.764   2.061  0.00  0.00     0.123 C 
HETATM   23  H   UNK N   1      19.504  18.467   0.264  0.00  0.00     0.153 HD
ENDBRANCH  14  17
ENDBRANCH   5  11
BRANCH   9  24
HETATM   24  C   UNK N   1      24.519  12.930   9.766  0.00  0.00     0.251 C 
HETATM   25  O   UNK N   1      24.843  12.768   8.600  0.00  0.00    -0.268 OA
HETATM   26  N   UNK N   1      25.479  13.104  10.698  0.00  0.00    -0.366 N 
HETATM   27  H   UNK N   1      26.427  13.084  10.438  0.00  0.00     0.159 HD
HETATM   28  H   UNK N   1      25.230  13.249  11.640  0.00  0.00     0.159 HD
ENDBRANCH   9  24
TORSDOF 3
ENDMDL
MODEL 2
REMARK VINA RESULT:      -7.7      6.914     10.914
REMARK  3 active torsions:
REMARK  status: ('A' for Active; 'I' for Inactive)
REMARK    1  A    between atoms: N_5  and  C_14 
REMARK    2  A    between atoms: C_9  and  C_11 
REMARK       I    between atoms: C_11  and  N_13 
REMARK    3  A    between atoms: C_20  and  C_17 
ROOT
HETATM    1  C   UNK N   1      24.578  20.536   2.665  0.00  0.00     0.002 A 
HETATM    2  C   UNK N   1      25.944  20.618   2.995  0.00  0.00     0.015 A 
HETATM    3  C   UNK N   1      26.405  19.819   4.035  0.00  0.00     0.011 A 
HETATM    4  C   UNK N   1      27.663  19.656   4.582  0.00  0.00     0.130 A 
HETATM    5  N   UNK N   1      27.535  18.742   5.577  0.00  0.00    -0.266 N 
HETATM    6  N   UNK N   1      26.274  18.333   5.666  0.00  0.00    -0.292 N 
ATOM      7  HN  UNK N   1      25.906  17.652   6.329  1.00  0.00     0.187 HD
HETATM    8  C   UNK N   1      25.575  18.980   4.724  0.00  0.00     0.076 A 
HETATM    9  C   UNK N   1      24.213  18.858   4.421  0.00  0.00     0.060 A 
HETATM   10  C   UNK N   1      23.718  19.659   3.369  0.00  0.00     0.019 A 
ENDROOT
BRANCH   5  11
HETATM   11  C   UNK N   1      28.576  18.216   6.411  0.00  0.00     0.056 A 
HETATM   12  C   UNK N   1      28.675  18.571   7.766  0.00  0.00     0.032 A 
HETATM   13  C   UNK N   1      29.747  18.101   8.538  0.00  0.00     0.010 A 
HETATM   14  C   UNK N   1      30.712  17.251   7.973  0.00  0.00    -0.052 A 
HETATM   15  C   UNK N   1      30.591  16.884   6.625  0.00  0.00     0.010 A 
HETATM   16  C   UNK N   1      29.539  17.369   5.853  0.00  0.00     0.032 A 
BRANCH  14  17
HETATM   17  C   UNK N   1      31.899  16.801   8.791  0.00  0.00     0.036 C 
HETATM   18  C   UNK N   1      32.260  15.339   8.544  0.00  0.00     0.012 C 
HETATM   19  C   UNK N   1      33.426  14.948   9.445  0.00  0.00     0.020 C 
HETATM   20  C   UNK N   1      34.603  15.884   9.177  0.00  0.00     0.113 C 
HETATM   21  N   UNK N   1      34.225  17.266   9.467  0.00  0.00    -0.420 N 
HETATM   22  C   UNK N   1      33.151  17.668   8.561  0.00  0.00     0.123 C 
HETATM   23  H   UNK N   1      34.645  17.856  10.186  0.00  0.00     0.153 HD
ENDBRANCH  14  17
ENDBRANCH   5  11
BRANCH   9  24
HETATM   24  C   UNK N   1      23.316  17.925   5.149  0.00  0.00     0.251 C 
HETATM   25  O   UNK N   1      23.660  16.768   5.332  0.00  0.00    -0.268 OA
HETATM   26  N   UNK N   1      22.126  18.341   5.628  0.00  0.00    -0.366 N 
HETATM   27  H   UNK N   1      21.539  17.712   6.105  0.00  0.00     0.159 HD
HETATM   28  H   UNK N   1      21.843  19.276   5.498  0.00  0.00     0.159 HD
ENDBRANCH   9  24
TORSDOF 3
ENDMDL
MODEL 3
REMARK VINA RESULT:      -7.7      9.905     14.633
REMARK  3 active torsions:
REMARK  status: ('A' for Active; 'I' for Inactive)
REMARK    1  A    between atoms: N_5  and  C_14 
REMARK    2  A    between atoms: C_9  and  C_11 
REMARK       I    between atoms: C_11  and  N_13 
REMARK    3  A    between atoms: C_20  and  C_17 
ROOT
HETATM    1  C   UNK N   1      29.786  17.722   5.385  0.00  0.00     0.002 A 
HETATM    2  C   UNK N   1      31.000  17.014   5.471  0.00  0.00     0.015 A 
HETATM    3  C   UNK N   1      31.522  16.785   6.739  0.00  0.00     0.011 A 
HETATM    4  C   UNK N   1      32.660  16.124   7.159  0.00  0.00     0.130 A 
HETATM    5  N   UNK N   1      32.674  16.203   8.514  0.00  0.00    -0.266 N 
HETATM    6  N   UNK N   1      31.609  16.869   8.946  0.00  0.00    -0.292 N 
ATOM      7  HN  UNK N   1      31.378  17.072   9.918  1.00  0.00     0.187 HD
HETATM    8  C   UNK N   1      30.894  17.224   7.871  0.00  0.00     0.076 A 
HETATM    9  C   UNK N   1      29.680  17.921   7.831  0.00  0.00     0.060 A 
HETATM   10  C   UNK N   1      29.127  18.168   6.555  0.00  0.00     0.019 A 
ENDROOT
BRANCH   5  11
HETATM   11  C   UNK N   1      33.640  15.631   9.407  0.00  0.00     0.056 A 
HETATM   12  C   UNK N   1      33.636  14.258   9.703  0.00  0.00     0.032 A 
HETATM   13  C   UNK N   1      34.543  13.739  10.638  0.00  0.00     0.010 A 
HETATM   14  C   UNK N   1      35.479  14.581  11.264  0.00  0.00    -0.052 A 
HETATM   15  C   UNK N   1      35.488  15.946  10.943  0.00  0.00     0.010 A 
HETATM   16  C   UNK N   1      34.573  16.464  10.032  0.00  0.00     0.032 A 
BRANCH  14  17
HETATM   17  C   UNK N   1      36.409  14.029  12.318  0.00  0.00     0.036 C 
HETATM   18  C   UNK N   1      35.783  14.032  13.710  0.00  0.00     0.012 C 
HETATM   19  C   UNK N   1      36.801  13.517  14.722  0.00  0.00     0.020 C 
HETATM   20  C   UNK N   1      37.265  12.123  14.302  0.00  0.00     0.113 C 
HETATM   21  N   UNK N   1      37.894  12.176  12.984  0.00  0.00    -0.420 N 
HETATM   22  C   UNK N   1      36.905  12.607  11.998  0.00  0.00     0.123 C 
HETATM   23  H   UNK N   1      38.869  11.948  12.784  0.00  0.00     0.153 HD
ENDBRANCH  14  17
ENDBRANCH   5  11
BRANCH   9  24
HETATM   24  C   UNK N   1      28.981  18.373   9.060  0.00  0.00     0.251 C 
HETATM   25  O   UNK N   1      29.628  18.736  10.030  0.00  0.00    -0.268 OA
HETATM   26  N   UNK N   1      27.634  18.405   9.119  0.00  0.00    -0.366 N 
HETATM   27  H   UNK N   1      27.183  18.703   9.941  0.00  0.00     0.159 HD
HETATM   28  H   UNK N   1      27.101  18.128   8.338  0.00  0.00     0.159 HD
ENDBRANCH   9  24
TORSDOF 3
ENDMDL
MODEL 4
REMARK VINA RESULT:      -7.6     14.727     18.916
REMARK  3 active torsions:
REMARK  status: ('A' for Active; 'I' for Inactive)
REMARK    1  A    between atoms: N_5  and  C_14 
REMARK    2  A    between atoms: C_9  and  C_11 
REMARK       I    between atoms: C_11  and  N_13 
REMARK    3  A    between atoms: C_20  and  C_17 
ROOT
HETATM    1  C   UNK N   1      37.824  13.561   9.517  0.00  0.00     0.002 A 
HETATM    2  C   UNK N   1      38.193  12.704  10.573  0.00  0.00     0.015 A 
HETATM    3  C   UNK N   1      37.478  12.801  11.761  0.00  0.00     0.011 A 
HETATM    4  C   UNK N   1      37.576  12.109  12.953  0.00  0.00     0.130 A 
HETATM    5  N   UNK N   1      36.621  12.616  13.773  0.00  0.00    -0.266 N 
HETATM    6  N   UNK N   1      35.941  13.573  13.149  0.00  0.00    -0.292 N 
ATOM      7  HN  UNK N   1      35.172  14.117  13.539  1.00  0.00     0.187 HD
HETATM    8  C   UNK N   1      36.452  13.691  11.918  0.00  0.00     0.076 A 
HETATM    9  C   UNK N   1      36.045  14.552  10.891  0.00  0.00     0.060 A 
HETATM   10  C   UNK N   1      36.755  14.475   9.673  0.00  0.00     0.019 A 
ENDROOT
BRANCH   5  11
HETATM   11  C   UNK N   1      36.306  12.191  15.106  0.00  0.00     0.056 A 
HETATM   12  C   UNK N   1      36.686  10.923  15.576  0.00  0.00     0.032 A 
HETATM   13  C   UNK N   1      36.300  10.506  16.857  0.00  0.00     0.010 A 
HETATM   14  C   UNK N   1      35.556  11.359  17.690  0.00  0.00    -0.052 A 
HETATM   15  C   UNK N   1      35.202  12.631  17.218  0.00  0.00     0.010 A 
HETATM   16  C   UNK N   1      35.566  13.037  15.938  0.00  0.00     0.032 A 
BRANCH  14  17
HETATM   17  C   UNK N   1      35.086  10.880  19.042  0.00  0.00     0.036 C 
HETATM   18  C   UNK N   1      34.376   9.531  18.971  0.00  0.00     0.012 C 
HETATM   19  C   UNK N   1      33.884   9.145  20.362  0.00  0.00     0.020 C 
HETATM   20  C   UNK N   1      35.070   9.121  21.325  0.00  0.00     0.113 C 
HETATM   21  N   UNK N   1      35.691  10.442  21.393  0.00  0.00    -0.420 N 
HETATM   22  C   UNK N   1      36.223  10.789  20.076  0.00  0.00     0.123 C 
HETATM   23  H   UNK N   1      35.746  11.028  22.227  0.00  0.00     0.153 HD
ENDBRANCH  14  17
ENDBRANCH   5  11
BRANCH   9  24
HETATM   24  C   UNK N   1      34.912  15.498  11.049  0.00  0.00     0.251 C 
HETATM   25  O   UNK N   1      33.797  15.075  11.314  0.00  0.00    -0.268 OA
HETATM   26  N   UNK N   1      35.097  16.828  10.918  0.00  0.00    -0.366 N 
HETATM   27  H   UNK N   1      34.336  17.444  11.021  0.00  0.00     0.159 HD
HETATM   28  H   UNK N   1      35.994  17.182  10.718  0.00  0.00     0.159 HD
ENDBRANCH   9  24
TORSDOF 3
ENDMDL
MODEL 5
REMARK VINA RESULT:      -7.5     13.799     15.857
REMARK  3 active torsions:
REMARK  status: ('A' for Active; 'I' for Inactive)
REMARK    1  A    between atoms: N_5  and  C_14 
REMARK    2  A    between atoms: C_9  and  C_11 
REMARK       I    between atoms: C_11  and  N_13 
REMARK    3  A    between atoms: C_20  and  C_17 
ROOT
HETATM    1  C   UNK N   1      35.315   9.517  18.399  0.00  0.00     0.002 A 
HETATM    2  C   UNK N   1      35.392   9.458  16.994  0.00  0.00     0.015 A 
HETATM    3  C   UNK N   1      35.386  10.661  16.298  0.00  0.00     0.011 A 
HETATM    4  C   UNK N   1      35.465  10.943  14.948  0.00  0.00     0.130 A 
HETATM    5  N   UNK N   1      35.419  12.295  14.833  0.00  0.00    -0.266 N 
HETATM    6  N   UNK N   1      35.323  12.855  16.034  0.00  0.00    -0.292 N 
ATOM      7  HN  UNK N   1      35.270  13.853  16.231  1.00  0.00     0.187 HD
HETATM    8  C   UNK N   1      35.308  11.867  16.937  0.00  0.00     0.076 A 
HETATM    9  C   UNK N   1      35.242  11.971  18.333  0.00  0.00     0.060 A 
HETATM   10  C   UNK N   1      35.245  10.764  19.065  0.00  0.00     0.019 A 
ENDROOT
BRANCH   5  11
HETATM   11  C   UNK N   1      35.508  13.067  13.628  0.00  0.00     0.056 A 
HETATM   12  C   UNK N   1      36.092  14.344  13.621  0.00  0.00     0.032 A 
HETATM   13  C   UNK N   1      36.097  15.107  12.445  0.00  0.00     0.010 A 
HETATM   14  C   UNK N   1      35.545  14.591  11.260  0.00  0.00    -0.052 A 
HETATM   15  C   UNK N   1      34.985  13.306  11.273  0.00  0.00     0.010 A 
HETATM   16  C   UNK N   1      34.960  12.557  12.446  0.00  0.00     0.032 A 
BRANCH  14  17
HETATM   17  C   UNK N   1      35.494  15.443  10.013  0.00  0.00     0.036 C 
HETATM   18  C   UNK N   1      34.800  14.738   8.851  0.00  0.00     0.012 C 
HETATM   19  C   UNK N   1      34.840  15.636   7.619  0.00  0.00     0.020 C 
HETATM   20  C   UNK N   1      34.186  16.975   7.954  0.00  0.00     0.113 C 
HETATM   21  N   UNK N   1      34.908  17.632   9.041  0.00  0.00    -0.420 N 
HETATM   22  C   UNK N   1      34.817  16.806  10.244  0.00  0.00     0.123 C 
HETATM   23  H   UNK N   1      35.397  18.525   8.973  0.00  0.00     0.153 HD
ENDBRANCH  14  17
ENDBRANCH   5  11
BRANCH   9  24
HETATM   24  C   UNK N   1      35.187  13.280  19.031  0.00  0.00     0.251 C 
HETATM   25  O   UNK N   1      35.485  14.303  18.433  0.00  0.00    -0.268 OA
HETATM   26  N   UNK N   1      34.797  13.362  20.320  0.00  0.00    -0.366 N 
HETATM   27  H   UNK N   1      34.769  14.235  20.772  0.00  0.00     0.159 HD
HETATM   28  H   UNK N   1      34.542  12.546  20.809  0.00  0.00     0.159 HD
ENDBRANCH   9  24
TORSDOF 3
ENDMDL
MODEL 6
REMARK VINA RESULT:      -7.5     10.652     13.286
REMARK  3 active torsions:
REMARK  status: ('A' for Active; 'I' for Inactive)
REMARK    1  A    between atoms: N_5  and  C_14 
REMARK    2  A    between atoms: C_9  and  C_11 
REMARK       I    between atoms: C_11  and  N_13 
REMARK    3  A    between atoms: C_20  and  C_17 
ROOT
HETATM    1  C   UNK N   1      36.703  13.431  15.339  0.00  0.00     0.002 A 
HETATM    2  C   UNK N   1      36.779  14.529  14.461  0.00  0.00     0.015 A 
HETATM    3  C   UNK N   1      36.008  14.484  13.305  0.00  0.00     0.011 A 
HETATM    4  C   UNK N   1      35.847  15.386  12.271  0.00  0.00     0.130 A 
HETATM    5  N   UNK N   1      34.966  14.826  11.404  0.00  0.00    -0.266 N 
HETATM    6  N   UNK N   1      34.576  13.636  11.851  0.00  0.00    -0.292 N 
ATOM      7  HN  UNK N   1      33.921  13.005  11.391  1.00  0.00     0.187 HD
HETATM    8  C   UNK N   1      35.201  13.420  13.015  0.00  0.00     0.076 A 
HETATM    9  C   UNK N   1      35.086  12.313  13.866  0.00  0.00     0.060 A 
HETATM   10  C   UNK N   1      35.860  12.332  15.047  0.00  0.00     0.019 A 
ENDROOT
BRANCH   5  11
HETATM   11  C   UNK N   1      34.454  15.400  10.194  0.00  0.00     0.056 A 
HETATM   12  C   UNK N   1      34.767  16.718   9.823  0.00  0.00     0.032 A 
HETATM   13  C   UNK N   1      34.191  17.279   8.674  0.00  0.00     0.010 A 
HETATM   14  C   UNK N   1      33.321  16.521   7.872  0.00  0.00    -0.052 A 
HETATM   15  C   UNK N   1      33.034  15.199   8.240  0.00  0.00     0.010 A 
HETATM   16  C   UNK N   1      33.588  14.649   9.392  0.00  0.00     0.032 A 
BRANCH  14  17
HETATM   17  C   UNK N   1      32.653  17.150   6.673  0.00  0.00     0.036 C 
HETATM   18  C   UNK N   1      33.457  16.963   5.389  0.00  0.00     0.012 C 
HETATM   19  C   UNK N   1      32.747  17.673   4.241  0.00  0.00     0.020 C 
HETATM   20  C   UNK N   1      31.326  17.127   4.116  0.00  0.00     0.113 C 
HETATM   21  N   UNK N   1      30.582  17.367   5.351  0.00  0.00    -0.420 N 
HETATM   22  C   UNK N   1      31.220  16.635   6.444  0.00  0.00     0.123 C 
HETATM   23  H   UNK N   1      29.750  17.951   5.437  0.00  0.00     0.153 HD
ENDBRANCH  14  17
ENDBRANCH   5  11
BRANCH   9  24
HETATM   24  C   UNK N   1      34.188  11.170  13.567  0.00  0.00     0.251 C 
HETATM   25  O   UNK N   1      34.162  10.693  12.442  0.00  0.00    -0.268 OA
HETATM   26  N   UNK N   1      33.406  10.634  14.527  0.00  0.00    -0.366 N 
HETATM   27  H   UNK N   1      32.812   9.879  14.314  0.00  0.00     0.159 HD
HETATM   28  H   UNK N   1      33.429  11.001  15.441  0.00  0.00     0.159 HD
ENDBRANCH   9  24
TORSDOF 3
ENDMDL
MODEL 7
REMARK VINA RESULT:      -7.2      8.764     10.746
REMARK  3 active torsions:
REMARK  status: ('A' for Active; 'I' for Inactive)
REMARK    1  A    between atoms: N_5  and  C_14 
REMARK    2  A    between atoms: C_9  and  C_11 
REMARK       I    between atoms: C_11  and  N_13 
REMARK    3  A    between atoms: C_20  and  C_17 
ROOT
HETATM    1  C   UNK N   1      35.819  13.047   8.674  0.00  0.00     0.002 A 
HETATM    2  C   UNK N   1      34.630  13.095   7.922  0.00  0.00     0.015 A 
HETATM    3  C   UNK N   1      33.788  14.184   8.116  0.00  0.00     0.011 A 
HETATM    4  C   UNK N   1      32.583  14.531   7.536  0.00  0.00     0.130 A 
HETATM    5  N   UNK N   1      32.206  15.705   8.102  0.00  0.00    -0.266 N 
HETATM    6  N   UNK N   1      33.113  16.099   8.990  0.00  0.00    -0.292 N 
ATOM      7  HN  UNK N   1      33.074  16.945   9.558  1.00  0.00     0.187 HD
HETATM    8  C   UNK N   1      34.087  15.181   9.003  0.00  0.00     0.076 A 
HETATM    9  C   UNK N   1      35.264  15.178   9.762  0.00  0.00     0.060 A 
HETATM   10  C   UNK N   1      36.137  14.083   9.585  0.00  0.00     0.019 A 
ENDROOT
BRANCH   5  11
HETATM   11  C   UNK N   1      31.040  16.481   7.796  0.00  0.00     0.056 A 
HETATM   12  C   UNK N   1      30.341  16.304   6.591  0.00  0.00     0.032 A 
HETATM   13  C   UNK N   1      29.250  17.129   6.284  0.00  0.00     0.010 A 
HETATM   14  C   UNK N   1      28.830  18.119   7.189  0.00  0.00    -0.052 A 
HETATM   15  C   UNK N   1      29.522  18.272   8.399  0.00  0.00     0.010 A 
HETATM   16  C   UNK N   1      30.619  17.468   8.693  0.00  0.00     0.032 A 
BRANCH  14  17
HETATM   17  C   UNK N   1      27.697  19.048   6.825  0.00  0.00     0.036 C 
HETATM   18  C   UNK N   1      28.180  20.454   6.479  0.00  0.00     0.012 C 
HETATM   19  C   UNK N   1      26.977  21.342   6.180  0.00  0.00     0.020 C 
HETATM   20  C   UNK N   1      26.162  20.719   5.049  0.00  0.00     0.113 C 
HETATM   21  N   UNK N   1      25.685  19.394   5.440  0.00  0.00    -0.420 N 
HETATM   22  C   UNK N   1      26.834  18.518   5.665  0.00  0.00     0.123 C 
HETATM   23  H   UNK N   1      24.707  19.122   5.541  0.00  0.00     0.153 HD
ENDBRANCH  14  17
ENDBRANCH   5  11
BRANCH   9  24
HETATM   24  C   UNK N   1      35.605  16.274  10.704  0.00  0.00     0.251 C 
HETATM   25  O   UNK N   1      35.474  17.438  10.358  0.00  0.00    -0.268 OA
HETATM   26  N   UNK N   1      36.047  16.004  11.950  0.00  0.00    -0.366 N 
HETATM   27  H   UNK N   1      36.273  16.740  12.563  0.00  0.00     0.159 HD
HETATM   28  H   UNK N   1      36.143  15.069  12.245  0.00  0.00     0.159 HD
ENDBRANCH   9  24
TORSDOF 3
ENDMDL
MODEL 8
REMARK VINA RESULT:      -7.1     16.238     17.929
REMARK  3 active torsions:
REMARK  status: ('A' for Active; 'I' for Inactive)
REMARK    1  A    between atoms: N_5  and  C_14 
REMARK    2  A    between atoms: C_9  and  C_11 
REMARK       I    between atoms: C_11  and  N_13 
REMARK    3  A    between atoms: C_20  and  C_17 
ROOT
HETATM    1  C   UNK N   1      24.819  26.865  -5.431  0.00  0.00     0.002 A 
HETATM    2  C   UNK N   1      25.317  25.575  -5.693  0.00  0.00     0.015 A 
HETATM    3  C   UNK N   1      26.574  25.255  -5.191  0.00  0.00     0.011 A 
HETATM    4  C   UNK N   1      27.323  24.096  -5.256  0.00  0.00     0.130 A 
HETATM    5  N   UNK N   1      28.476  24.344  -4.586  0.00  0.00    -0.266 N 
HETATM    6  N   UNK N   1      28.473  25.585  -4.111  0.00  0.00    -0.292 N 
ATOM      7  HN  UNK N   1      29.218  26.026  -3.572  1.00  0.00     0.187 HD
HETATM    8  C   UNK N   1      27.313  26.149  -4.469  0.00  0.00     0.076 A 
HETATM    9  C   UNK N   1      26.851  27.438  -4.175  0.00  0.00     0.060 A 
HETATM   10  C   UNK N   1      25.578  27.790  -4.674  0.00  0.00     0.019 A 
ENDROOT
BRANCH   5  11
HETATM   11  C   UNK N   1      29.555  23.430  -4.347  0.00  0.00     0.056 A 
HETATM   12  C   UNK N   1      30.308  23.484  -3.163  0.00  0.00     0.032 A 
HETATM   13  C   UNK N   1      31.405  22.628  -2.989  0.00  0.00     0.010 A 
HETATM   14  C   UNK N   1      31.743  21.694  -3.983  0.00  0.00    -0.052 A 
HETATM   15  C   UNK N   1      30.970  21.633  -5.151  0.00  0.00     0.010 A 
HETATM   16  C   UNK N   1      29.895  22.498  -5.333  0.00  0.00     0.032 A 
BRANCH  14  17
HETATM   17  C   UNK N   1      32.964  20.820  -3.819  0.00  0.00     0.036 C 
HETATM   18  C   UNK N   1      32.811  19.466  -4.506  0.00  0.00     0.012 C 
HETATM   19  C   UNK N   1      34.056  18.625  -4.247  0.00  0.00     0.020 C 
HETATM   20  C   UNK N   1      35.286  19.385  -4.741  0.00  0.00     0.113 C 
HETATM   21  N   UNK N   1      35.416  20.654  -4.027  0.00  0.00    -0.420 N 
HETATM   22  C   UNK N   1      34.254  21.491  -4.324  0.00  0.00     0.123 C 
HETATM   23  H   UNK N   1      36.193  20.914  -3.420  0.00  0.00     0.153 HD
ENDBRANCH  14  17
ENDBRANCH   5  11
BRANCH   9  24
HETATM   24  C   UNK N   1      27.640  28.401  -3.366  0.00  0.00     0.251 C 
HETATM   25  O   UNK N   1      28.846  28.496  -3.535  0.00  0.00    -0.268 OA
HETATM   26  N   UNK N   1      27.041  29.190  -2.450  0.00  0.00    -0.366 N 
HETATM   27  H   UNK N   1      27.575  29.821  -1.918  0.00  0.00     0.159 HD
HETATM   28  H   UNK N   1      26.067  29.133  -2.314  0.00  0.00     0.159 HD
ENDBRANCH   9  24
TORSDOF 3
ENDMDL
MODEL 9
REMARK VINA RESULT:      -6.9     13.794     17.500
REMARK  3 active torsions:
REMARK  status: ('A' for Active; 'I' for Inactive)
REMARK    1  A    between atoms: N_5  and  C_14 
REMARK    2  A    between atoms: C_9  and  C_11 
REMARK       I    between atoms: C_11  and  N_13 
REMARK    3  A    between atoms: C_20  and  C_17 
ROOT
HETATM    1  C   UNK N   1      34.445  13.608   7.659  0.00  0.00     0.002 A 
HETATM    2  C   UNK N   1      34.584  12.492   8.506  0.00  0.00     0.015 A 
HETATM    3  C   UNK N   1      34.783  12.732   9.861  0.00  0.00     0.011 A 
HETATM    4  C   UNK N   1      34.936  11.876  10.935  0.00  0.00     0.130 A 
HETATM    5  N   UNK N   1      35.093  12.659  12.032  0.00  0.00    -0.266 N 
HETATM    6  N   UNK N   1      35.040  13.942  11.692  0.00  0.00    -0.292 N 
ATOM      7  HN  UNK N   1      35.131  14.737  12.324  1.00  0.00     0.187 HD
HETATM    8  C   UNK N   1      34.844  14.000  10.369  0.00  0.00     0.076 A 
HETATM    9  C   UNK N   1      34.698  15.137   9.565  0.00  0.00     0.060 A 
HETATM   10  C   UNK N   1      34.496  14.921   8.184  0.00  0.00     0.019 A 
ENDROOT
BRANCH   5  11
HETATM   11  C   UNK N   1      35.248  12.227  13.391  0.00  0.00     0.056 A 
HETATM   12  C   UNK N   1      34.284  11.419  14.014  0.00  0.00     0.032 A 
HETATM   13  C   UNK N   1      34.424  11.075  15.366  0.00  0.00     0.010 A 
HETATM   14  C   UNK N   1      35.541  11.511  16.099  0.00  0.00    -0.052 A 
HETATM   15  C   UNK N   1      36.509  12.299  15.460  0.00  0.00     0.010 A 
HETATM   16  C   UNK N   1      36.359  12.659  14.124  0.00  0.00     0.032 A 
BRANCH  14  17
HETATM   17  C   UNK N   1      35.653  11.193  17.571  0.00  0.00     0.036 C 
HETATM   18  C   UNK N   1      35.229  12.361  18.456  0.00  0.00     0.012 C 
HETATM   19  C   UNK N   1      35.425  11.983  19.921  0.00  0.00     0.020 C 
HETATM   20  C   UNK N   1      34.630  10.714  20.222  0.00  0.00     0.113 C 
HETATM   21  N   UNK N   1      35.099   9.613  19.382  0.00  0.00    -0.420 N 
HETATM   22  C   UNK N   1      34.853   9.943  17.979  0.00  0.00     0.123 C 
HETATM   23  H   UNK N   1      35.529   8.752  19.721  0.00  0.00     0.153 HD
ENDBRANCH  14  17
ENDBRANCH   5  11
BRANCH   9  24
HETATM   24  C   UNK N   1      34.734  16.514  10.119  0.00  0.00     0.251 C 
HETATM   25  O   UNK N   1      35.294  16.728  11.183  0.00  0.00    -0.268 OA
HETATM   26  N   UNK N   1      34.168  17.542   9.456  0.00  0.00    -0.366 N 
HETATM   27  H   UNK N   1      34.195  18.449   9.836  0.00  0.00     0.159 HD
HETATM   28  H   UNK N   1      33.724  17.385   8.590  0.00  0.00     0.159 HD
ENDBRANCH   9  24
TORSDOF 3
ENDMDL
