MODEL 1
REMARK VINA RESULT:      -6.9      0.000      0.000
REMARK  15 active torsions:
REMARK  status: ('A' for Active; 'I' for Inactive)
REMARK    1  A    between atoms: C_2  and  C_3 
REMARK    2  A    between atoms: C_3  and  C_4 
REMARK    3  A    between atoms: C_5  and  C_4 
REMARK    4  A    between atoms: C_5  and  C_37 
REMARK    5  A    between atoms: C_12  and  C_26 
REMARK    6  A    between atoms: C_13  and  O_24 
REMARK    7  A    between atoms: C_16  and  C_18 
REMARK    8  A    between atoms: C_26  and  N_27 
REMARK    9  A    between atoms: N_27  and  C_28 
REMARK   10  A    between atoms: C_28  and  C_29 
REMARK   11  A    between atoms: C_28  and  C_33 
REMARK   12  A    between atoms: C_29  and  C_30 
REMARK   13  A    between atoms: C_30  and  O_32 
REMARK   14  A    between atoms: C_33  and  C_34 
REMARK   15  A    between atoms: C_34  and  O_36 
ROOT
HETATM    1  C   UNK N   1      29.741  14.869   4.724  0.00  0.00     0.039 C 
HETATM    2  C   UNK N   1      28.392  14.112   4.782  0.00  0.00     0.176 C 
HETATM    3  S   UNK N   1      27.073  15.003   3.930  0.00  0.00     0.178 S 
HETATM    4  O   UNK N   1      27.161  14.806   2.409  0.00  0.00    -0.223 OA
HETATM    5  O   UNK N   1      25.762  14.261   4.230  0.00  0.00    -0.223 OA
HETATM    6  C   UNK N   1      26.789  16.710   4.324  0.00  0.00     0.068 A 
HETATM    7  C   UNK N   1      25.829  17.408   3.607  0.00  0.00     0.035 A 
HETATM    8  C   UNK N   1      25.540  18.733   3.919  0.00  0.00    -0.006 A 
HETATM    9  C   UNK N   1      26.209  19.374   4.970  0.00  0.00     0.076 A 
HETATM   10  C   UNK N   1      27.183  18.665   5.694  0.00  0.00     0.048 A 
HETATM   11  C   UNK N   1      27.488  17.327   5.378  0.00  0.00    -0.007 A 
HETATM   12  C   UNK N   1      28.544  16.543   6.148  0.00  0.00     0.145 C 
HETATM   13  N   UNK N   1      29.681  16.246   5.268  0.00  0.00    -0.400 N 
HETATM   14  H   UNK N   1      30.387  16.947   5.044  0.00  0.00     0.155 HD
ENDROOT
BRANCH   8  15
HETATM   15  C   UNK N   1      24.465  19.416   3.164  0.00  0.00     0.156 C 
BRANCH  15  16
HETATM   16  N   UNK N   1      23.262  19.379   3.989  0.00  0.00    -0.412 N 
HETATM   17  H   UNK N   1      23.154  19.890   4.866  0.00  0.00     0.153 HD
BRANCH  16  18
HETATM   18  C   UNK N   1      22.229  18.521   3.408  0.00  0.00     0.096 C 
BRANCH  18  19
HETATM   19  C   UNK N   1      21.483  17.692   4.463  0.00  0.00     0.135 C 
BRANCH  19  20
HETATM   20  C   UNK N   1      22.094  17.774   5.833  0.00  0.00     0.141 C 
HETATM   21  O   UNK N   1      21.583  18.463   6.701  0.00  0.00    -0.650 OA
BRANCH  20  22
HETATM   22  O   UNK N   1      23.197  17.054   6.110  0.00  0.00    -0.776 OA
HETATM   23  H   UNK N   1      23.497  16.276   6.539  0.00  0.00     0.167 HD
ENDBRANCH  20  22
ENDBRANCH  19  20
ENDBRANCH  18  19
BRANCH  18  24
HETATM   24  C   UNK N   1      21.226  19.318   2.562  0.00  0.00     0.135 C 
BRANCH  24  25
HETATM   25  C   UNK N   1      20.938  20.716   3.050  0.00  0.00     0.141 C 
HETATM   26  O   UNK N   1      20.046  20.936   3.855  0.00  0.00    -0.650 OA
BRANCH  25  27
HETATM   27  O   UNK N   1      21.666  21.741   2.571  0.00  0.00    -0.776 OA
HETATM   28  H   UNK N   1      22.035  22.437   3.080  0.00  0.00     0.167 HD
ENDBRANCH  25  27
ENDBRANCH  24  25
ENDBRANCH  18  24
ENDBRANCH  16  18
ENDBRANCH  15  16
ENDBRANCH   8  15
BRANCH   9  29
HETATM   29  O   UNK N   1      25.888  20.655   5.282  0.00  0.00    -0.355 OA
HETATM   30  C   UNK N   1      26.633  21.434   6.136  0.00  0.00     0.210 C 
ENDBRANCH   9  29
BRANCH  12  31
HETATM   31  C   UNK N   1      29.013  17.181   7.427  0.00  0.00    -0.031 A 
HETATM   32  C   UNK N   1      30.314  17.696   7.562  0.00  0.00     0.009 A 
HETATM   33  C   UNK N   1      30.708  18.304   8.757  0.00  0.00     0.001 A 
HETATM   34  C   UNK N   1      29.813  18.387   9.828  0.00  0.00     0.000 A 
HETATM   35  C   UNK N   1      28.524  17.862   9.704  0.00  0.00     0.001 A 
HETATM   36  C   UNK N   1      28.124  17.266   8.504  0.00  0.00     0.009 A 
ENDBRANCH  12  31
BRANCH   1  37
HETATM   37  C   UNK N   1      30.771  14.086   5.559  0.00  0.00     0.031 C 
BRANCH  37  38
HETATM   38  C   UNK N   1      31.976  14.911   6.015  0.00  0.00     0.002 C 
BRANCH  38  39
HETATM   39  C   UNK N   1      32.326  14.610   7.457  0.00  0.00    -0.004 C 
HETATM   40  C   UNK N   1      33.369  15.602   7.931  0.00  0.00     0.005 C 
ENDBRANCH  38  39
ENDBRANCH  37  38
ENDBRANCH   1  37
BRANCH   1  41
HETATM   41  C   UNK N   1      30.220  15.020   3.267  0.00  0.00     0.027 C 
HETATM   42  C   UNK N   1      30.377  16.452   2.773  0.00  0.00     0.007 C 
ENDBRANCH   1  41
TORSDOF 15
ENDMDL
MODEL 2
REMARK VINA RESULT:      -6.7      2.311      4.875
REMARK  15 active torsions:
REMARK  status: ('A' for Active; 'I' for Inactive)
REMARK    1  A    between atoms: C_2  and  C_3 
REMARK    2  A    between atoms: C_3  and  C_4 
REMARK    3  A    between atoms: C_5  and  C_4 
REMARK    4  A    between atoms: C_5  and  C_37 
REMARK    5  A    between atoms: C_12  and  C_26 
REMARK    6  A    between atoms: C_13  and  O_24 
REMARK    7  A    between atoms: C_16  and  C_18 
REMARK    8  A    between atoms: C_26  and  N_27 
REMARK    9  A    between atoms: N_27  and  C_28 
REMARK   10  A    between atoms: C_28  and  C_29 
REMARK   11  A    between atoms: C_28  and  C_33 
REMARK   12  A    between atoms: C_29  and  C_30 
REMARK   13  A    between atoms: C_30  and  O_32 
REMARK   14  A    between atoms: C_33  and  C_34 
REMARK   15  A    between atoms: C_34  and  O_36 
ROOT
HETATM    1  C   UNK N   1      29.275  17.373   5.967  0.00  0.00     0.039 C 
HETATM    2  C   UNK N   1      29.048  18.602   5.052  0.00  0.00     0.176 C 
HETATM    3  S   UNK N   1      27.333  19.165   5.078  0.00  0.00     0.178 S 
HETATM    4  O   UNK N   1      27.041  19.999   6.334  0.00  0.00    -0.223 OA
HETATM    5  O   UNK N   1      27.197  20.242   3.992  0.00  0.00    -0.223 OA
HETATM    6  C   UNK N   1      26.034  17.990   4.790  0.00  0.00     0.068 A 
HETATM    7  C   UNK N   1      24.718  18.414   4.893  0.00  0.00     0.035 A 
HETATM    8  C   UNK N   1      23.671  17.539   4.625  0.00  0.00    -0.006 A 
HETATM    9  C   UNK N   1      23.935  16.218   4.237  0.00  0.00     0.076 A 
HETATM   10  C   UNK N   1      25.270  15.790   4.137  0.00  0.00     0.048 A 
HETATM   11  C   UNK N   1      26.335  16.667   4.415  0.00  0.00    -0.007 A 
HETATM   12  C   UNK N   1      27.789  16.221   4.315  0.00  0.00     0.145 C 
HETATM   13  N   UNK N   1      28.400  16.220   5.650  0.00  0.00    -0.400 N 
HETATM   14  H   UNK N   1      28.232  15.469   6.320  0.00  0.00     0.155 HD
ENDROOT
BRANCH   8  15
HETATM   15  C   UNK N   1      22.285  18.056   4.690  0.00  0.00     0.156 C 
BRANCH  15  16
HETATM   16  N   UNK N   1      21.810  18.203   3.319  0.00  0.00    -0.412 N 
HETATM   17  H   UNK N   1      22.378  18.006   2.493  0.00  0.00     0.153 HD
BRANCH  16  18
HETATM   18  C   UNK N   1      20.422  18.664   3.269  0.00  0.00     0.096 C 
BRANCH  18  19
HETATM   19  C   UNK N   1      20.301  20.137   2.856  0.00  0.00     0.135 C 
BRANCH  19  20
HETATM   20  C   UNK N   1      21.492  20.648   2.096  0.00  0.00     0.141 C 
HETATM   21  O   UNK N   1      21.555  20.525   0.884  0.00  0.00    -0.650 OA
BRANCH  20  22
HETATM   22  O   UNK N   1      22.481  21.275   2.760  0.00  0.00    -0.776 OA
HETATM   23  H   UNK N   1      22.729  22.097   3.134  0.00  0.00     0.167 HD
ENDBRANCH  20  22
ENDBRANCH  19  20
ENDBRANCH  18  19
BRANCH  18  24
HETATM   24  C   UNK N   1      19.557  17.788   2.351  0.00  0.00     0.135 C 
BRANCH  24  25
HETATM   25  C   UNK N   1      20.277  17.176   1.176  0.00  0.00     0.141 C 
HETATM   26  O   UNK N   1      20.840  16.096   1.270  0.00  0.00    -0.650 OA
BRANCH  25  27
HETATM   27  O   UNK N   1      20.315  17.843   0.009  0.00  0.00    -0.776 OA
HETATM   28  H   UNK N   1      21.087  18.164  -0.415  0.00  0.00     0.167 HD
ENDBRANCH  25  27
ENDBRANCH  24  25
ENDBRANCH  18  24
ENDBRANCH  16  18
ENDBRANCH  15  16
ENDBRANCH   8  15
BRANCH   9  29
HETATM   29  O   UNK N   1      22.901  15.389   3.947  0.00  0.00    -0.355 OA
HETATM   30  C   UNK N   1      22.570  14.296   4.714  0.00  0.00     0.210 C 
ENDBRANCH   9  29
BRANCH  12  31
HETATM   31  C   UNK N   1      28.010  14.901   3.627  0.00  0.00    -0.031 A 
HETATM   32  C   UNK N   1      28.153  14.809   2.233  0.00  0.00     0.009 A 
HETATM   33  C   UNK N   1      28.381  13.569   1.630  0.00  0.00     0.001 A 
HETATM   34  C   UNK N   1      28.452  12.413   2.413  0.00  0.00     0.000 A 
HETATM   35  C   UNK N   1      28.294  12.497   3.799  0.00  0.00     0.001 A 
HETATM   36  C   UNK N   1      28.079  13.739   4.404  0.00  0.00     0.009 A 
ENDBRANCH  12  31
BRANCH   1  37
HETATM   37  C   UNK N   1      30.732  16.908   5.799  0.00  0.00     0.031 C 
BRANCH  37  38
HETATM   38  C   UNK N   1      31.412  17.401   4.520  0.00  0.00     0.002 C 
BRANCH  38  39
HETATM   39  C   UNK N   1      32.920  17.381   4.663  0.00  0.00    -0.004 C 
HETATM   40  C   UNK N   1      33.280  17.497   6.131  0.00  0.00     0.005 C 
ENDBRANCH  38  39
ENDBRANCH  37  38
ENDBRANCH   1  37
BRANCH   1  41
HETATM   41  C   UNK N   1      28.978  17.727   7.437  0.00  0.00     0.027 C 
HETATM   42  C   UNK N   1      30.200  17.892   8.330  0.00  0.00     0.007 C 
ENDBRANCH   1  41
TORSDOF 15
ENDMDL
MODEL 3
REMARK VINA RESULT:      -6.5      4.276      8.851
REMARK  15 active torsions:
REMARK  status: ('A' for Active; 'I' for Inactive)
REMARK    1  A    between atoms: C_2  and  C_3 
REMARK    2  A    between atoms: C_3  and  C_4 
REMARK    3  A    between atoms: C_5  and  C_4 
REMARK    4  A    between atoms: C_5  and  C_37 
REMARK    5  A    between atoms: C_12  and  C_26 
REMARK    6  A    between atoms: C_13  and  O_24 
REMARK    7  A    between atoms: C_16  and  C_18 
REMARK    8  A    between atoms: C_26  and  N_27 
REMARK    9  A    between atoms: N_27  and  C_28 
REMARK   10  A    between atoms: C_28  and  C_29 
REMARK   11  A    between atoms: C_28  and  C_33 
REMARK   12  A    between atoms: C_29  and  C_30 
REMARK   13  A    between atoms: C_30  and  O_32 
REMARK   14  A    between atoms: C_33  and  C_34 
REMARK   15  A    between atoms: C_34  and  O_36 
ROOT
HETATM    1  C   UNK N   1      28.004  14.818   3.091  0.00  0.00     0.039 C 
HETATM    2  C   UNK N   1      29.473  15.052   2.660  0.00  0.00     0.176 C 
HETATM    3  S   UNK N   1      30.629  14.830   4.029  0.00  0.00     0.178 S 
HETATM    4  O   UNK N   1      30.903  13.341   4.289  0.00  0.00    -0.223 OA
HETATM    5  O   UNK N   1      32.009  15.283   3.531  0.00  0.00    -0.223 OA
HETATM    6  C   UNK N   1      30.336  15.688   5.555  0.00  0.00     0.068 A 
HETATM    7  C   UNK N   1      31.182  15.447   6.627  0.00  0.00     0.035 A 
HETATM    8  C   UNK N   1      31.019  16.137   7.824  0.00  0.00    -0.006 A 
HETATM    9  C   UNK N   1      30.002  17.092   7.957  0.00  0.00     0.076 A 
HETATM   10  C   UNK N   1      29.143  17.332   6.869  0.00  0.00     0.048 A 
HETATM   11  C   UNK N   1      29.297  16.631   5.658  0.00  0.00    -0.007 A 
HETATM   12  C   UNK N   1      28.374  16.874   4.470  0.00  0.00     0.145 C 
HETATM   13  N   UNK N   1      27.565  15.675   4.217  0.00  0.00    -0.400 N 
HETATM   14  H   UNK N   1      26.748  15.446   4.784  0.00  0.00     0.155 HD
ENDROOT
BRANCH   8  15
HETATM   15  C   UNK N   1      31.985  15.889   8.918  0.00  0.00     0.156 C 
BRANCH  15  16
HETATM   16  N   UNK N   1      32.936  16.995   8.918  0.00  0.00    -0.412 N 
HETATM   17  H   UNK N   1      32.669  17.979   8.861  0.00  0.00     0.153 HD
BRANCH  16  18
HETATM   18  C   UNK N   1      34.319  16.525   9.011  0.00  0.00     0.096 C 
BRANCH  18  19
HETATM   19  C   UNK N   1      34.532  15.533  10.163  0.00  0.00     0.135 C 
BRANCH  19  20
HETATM   20  C   UNK N   1      35.979  15.248  10.450  0.00  0.00     0.141 C 
HETATM   21  O   UNK N   1      36.419  14.114  10.353  0.00  0.00    -0.650 OA
BRANCH  20  22
HETATM   22  O   UNK N   1      36.799  16.261  10.786  0.00  0.00    -0.776 OA
HETATM   23  H   UNK N   1      37.557  16.736  10.506  0.00  0.00     0.167 HD
ENDBRANCH  20  22
ENDBRANCH  19  20
ENDBRANCH  18  19
BRANCH  18  24
HETATM   24  C   UNK N   1      34.808  15.911   7.692  0.00  0.00     0.135 C 
BRANCH  24  25
HETATM   25  C   UNK N   1      34.498  16.711   6.452  0.00  0.00     0.141 C 
HETATM   26  O   UNK N   1      34.409  17.929   6.489  0.00  0.00    -0.650 OA
BRANCH  25  27
HETATM   27  O   UNK N   1      34.298  16.067   5.289  0.00  0.00    -0.776 OA
HETATM   28  H   UNK N   1      34.287  16.461   4.438  0.00  0.00     0.167 HD
ENDBRANCH  25  27
ENDBRANCH  24  25
ENDBRANCH  18  24
ENDBRANCH  16  18
ENDBRANCH  15  16
ENDBRANCH   8  15
BRANCH   9  29
HETATM   29  O   UNK N   1      29.880  17.780   9.120  0.00  0.00    -0.355 OA
HETATM   30  C   UNK N   1      28.675  17.994   9.749  0.00  0.00     0.210 C 
ENDBRANCH   9  29
BRANCH  12  31
HETATM   31  C   UNK N   1      27.500  18.095   4.573  0.00  0.00    -0.031 A 
HETATM   32  C   UNK N   1      26.110  17.994   4.753  0.00  0.00     0.009 A 
HETATM   33  C   UNK N   1      25.332  19.150   4.869  0.00  0.00     0.001 A 
HETATM   34  C   UNK N   1      25.934  20.409   4.790  0.00  0.00     0.000 A 
HETATM   35  C   UNK N   1      27.313  20.513   4.596  0.00  0.00     0.001 A 
HETATM   36  C   UNK N   1      28.095  19.359   4.493  0.00  0.00     0.009 A 
ENDBRANCH  12  31
BRANCH   1  37
HETATM   37  C   UNK N   1      27.093  15.129   1.890  0.00  0.00     0.031 C 
BRANCH  37  38
HETATM   38  C   UNK N   1      25.618  15.324   2.247  0.00  0.00     0.002 C 
BRANCH  38  39
HETATM   39  C   UNK N   1      24.722  14.571   1.286  0.00  0.00    -0.004 C 
HETATM   40  C   UNK N   1      24.497  13.169   1.815  0.00  0.00     0.005 C 
ENDBRANCH  38  39
ENDBRANCH  37  38
ENDBRANCH   1  37
BRANCH   1  41
HETATM   41  C   UNK N   1      27.801  13.368   3.571  0.00  0.00     0.027 C 
HETATM   42  C   UNK N   1      27.160  13.215   4.943  0.00  0.00     0.007 C 
ENDBRANCH   1  41
TORSDOF 15
ENDMDL
MODEL 4
REMARK VINA RESULT:      -6.4      4.674      9.828
REMARK  15 active torsions:
REMARK  status: ('A' for Active; 'I' for Inactive)
REMARK    1  A    between atoms: C_2  and  C_3 
REMARK    2  A    between atoms: C_3  and  C_4 
REMARK    3  A    between atoms: C_5  and  C_4 
REMARK    4  A    between atoms: C_5  and  C_37 
REMARK    5  A    between atoms: C_12  and  C_26 
REMARK    6  A    between atoms: C_13  and  O_24 
REMARK    7  A    between atoms: C_16  and  C_18 
REMARK    8  A    between atoms: C_26  and  N_27 
REMARK    9  A    between atoms: N_27  and  C_28 
REMARK   10  A    between atoms: C_28  and  C_29 
REMARK   11  A    between atoms: C_28  and  C_33 
REMARK   12  A    between atoms: C_29  and  C_30 
REMARK   13  A    between atoms: C_30  and  O_32 
REMARK   14  A    between atoms: C_33  and  C_34 
REMARK   15  A    between atoms: C_34  and  O_36 
ROOT
HETATM    1  C   UNK N   1      27.723  17.806   6.270  0.00  0.00     0.039 C 
HETATM    2  C   UNK N   1      27.789  17.246   7.712  0.00  0.00     0.176 C 
HETATM    3  S   UNK N   1      29.332  17.681   8.542  0.00  0.00     0.178 S 
HETATM    4  O   UNK N   1      29.294  19.126   9.065  0.00  0.00    -0.223 OA
HETATM    5  O   UNK N   1      29.363  16.908   9.869  0.00  0.00    -0.223 OA
HETATM    6  C   UNK N   1      30.874  17.351   7.728  0.00  0.00     0.068 A 
HETATM    7  C   UNK N   1      32.050  17.763   8.337  0.00  0.00     0.035 A 
HETATM    8  C   UNK N   1      33.282  17.478   7.757  0.00  0.00    -0.006 A 
HETATM    9  C   UNK N   1      33.350  16.761   6.554  0.00  0.00     0.076 A 
HETATM   10  C   UNK N   1      32.156  16.347   5.939  0.00  0.00     0.048 A 
HETATM   11  C   UNK N   1      30.905  16.639   6.514  0.00  0.00    -0.007 A 
HETATM   12  C   UNK N   1      29.600  16.202   5.859  0.00  0.00     0.145 C 
HETATM   13  N   UNK N   1      28.852  17.383   5.409  0.00  0.00    -0.400 N 
HETATM   14  H   UNK N   1      29.095  17.882   4.553  0.00  0.00     0.155 HD
ENDROOT
BRANCH   8  15
HETATM   15  C   UNK N   1      34.511  17.886   8.476  0.00  0.00     0.156 C 
BRANCH  15  16
HETATM   16  N   UNK N   1      34.440  17.317   9.817  0.00  0.00    -0.412 N 
HETATM   17  H   UNK N   1      34.062  17.809  10.628  0.00  0.00     0.153 HD
BRANCH  16  18
HETATM   18  C   UNK N   1      34.973  15.955   9.860  0.00  0.00     0.096 C 
BRANCH  18  19
HETATM   19  C   UNK N   1      36.196  15.825  10.778  0.00  0.00     0.135 C 
BRANCH  19  20
HETATM   20  C   UNK N   1      36.997  14.577  10.539  0.00  0.00     0.141 C 
HETATM   21  O   UNK N   1      37.292  14.236   9.405  0.00  0.00    -0.650 OA
BRANCH  20  22
HETATM   22  O   UNK N   1      37.417  13.849  11.590  0.00  0.00    -0.776 OA
HETATM   23  H   UNK N   1      37.802  13.915  12.442  0.00  0.00     0.167 HD
ENDBRANCH  20  22
ENDBRANCH  19  20
ENDBRANCH  18  19
BRANCH  18  24
HETATM   24  C   UNK N   1      33.903  14.930  10.263  0.00  0.00     0.135 C 
BRANCH  24  25
HETATM   25  C   UNK N   1      33.473  13.982   9.172  0.00  0.00     0.141 C 
HETATM   26  O   UNK N   1      34.187  13.760   8.206  0.00  0.00    -0.650 OA
BRANCH  25  27
HETATM   27  O   UNK N   1      32.270  13.386   9.257  0.00  0.00    -0.776 OA
HETATM   28  H   UNK N   1      31.495  13.765   9.623  0.00  0.00     0.167 HD
ENDBRANCH  25  27
ENDBRANCH  24  25
ENDBRANCH  18  24
ENDBRANCH  16  18
ENDBRANCH  15  16
ENDBRANCH   8  15
BRANCH   9  29
HETATM   29  O   UNK N   1      34.562  16.462   6.023  0.00  0.00    -0.355 OA
HETATM   30  C   UNK N   1      34.792  15.355   5.240  0.00  0.00     0.210 C 
ENDBRANCH   9  29
BRANCH  12  31
HETATM   31  C   UNK N   1      29.743  15.205   4.742  0.00  0.00    -0.031 A 
HETATM   32  C   UNK N   1      29.892  13.831   4.994  0.00  0.00     0.009 A 
HETATM   33  C   UNK N   1      29.999  12.929   3.930  0.00  0.00     0.001 A 
HETATM   34  C   UNK N   1      29.974  13.396   2.613  0.00  0.00     0.000 A 
HETATM   35  C   UNK N   1      29.842  14.764   2.359  0.00  0.00     0.001 A 
HETATM   36  C   UNK N   1      29.722  15.665   3.421  0.00  0.00     0.009 A 
ENDBRANCH  12  31
BRANCH   1  37
HETATM   37  C   UNK N   1      26.425  17.299   5.614  0.00  0.00     0.031 C 
BRANCH  37  38
HETATM   38  C   UNK N   1      26.507  17.131   4.096  0.00  0.00     0.002 C 
BRANCH  38  39
HETATM   39  C   UNK N   1      26.026  15.757   3.675  0.00  0.00    -0.004 C 
HETATM   40  C   UNK N   1      26.085  14.825   4.868  0.00  0.00     0.005 C 
ENDBRANCH  38  39
ENDBRANCH  37  38
ENDBRANCH   1  37
BRANCH   1  41
HETATM   41  C   UNK N   1      27.765  19.347   6.281  0.00  0.00     0.027 C 
HETATM   42  C   UNK N   1      28.098  20.003   4.948  0.00  0.00     0.007 C 
ENDBRANCH   1  41
TORSDOF 15
ENDMDL
MODEL 5
REMARK VINA RESULT:      -6.3      3.933      8.634
REMARK  15 active torsions:
REMARK  status: ('A' for Active; 'I' for Inactive)
REMARK    1  A    between atoms: C_2  and  C_3 
REMARK    2  A    between atoms: C_3  and  C_4 
REMARK    3  A    between atoms: C_5  and  C_4 
REMARK    4  A    between atoms: C_5  and  C_37 
REMARK    5  A    between atoms: C_12  and  C_26 
REMARK    6  A    between atoms: C_13  and  O_24 
REMARK    7  A    between atoms: C_16  and  C_18 
REMARK    8  A    between atoms: C_26  and  N_27 
REMARK    9  A    between atoms: N_27  and  C_28 
REMARK   10  A    between atoms: C_28  and  C_29 
REMARK   11  A    between atoms: C_28  and  C_33 
REMARK   12  A    between atoms: C_29  and  C_30 
REMARK   13  A    between atoms: C_30  and  O_32 
REMARK   14  A    between atoms: C_33  and  C_34 
REMARK   15  A    between atoms: C_34  and  O_36 
ROOT
HETATM    1  C   UNK N   1      27.386  14.663   3.079  0.00  0.00     0.039 C 
HETATM    2  C   UNK N   1      28.825  14.830   2.534  0.00  0.00     0.176 C 
HETATM    3  S   UNK N   1      30.062  14.794   3.849  0.00  0.00     0.178 S 
HETATM    4  O   UNK N   1      30.357  13.354   4.295  0.00  0.00    -0.223 OA
HETATM    5  O   UNK N   1      31.408  15.169   3.211  0.00  0.00    -0.223 OA
HETATM    6  C   UNK N   1      29.856  15.855   5.256  0.00  0.00     0.068 A 
HETATM    7  C   UNK N   1      30.766  15.762   6.299  0.00  0.00     0.035 A 
HETATM    8  C   UNK N   1      30.671  16.611   7.397  0.00  0.00    -0.006 A 
HETATM    9  C   UNK N   1      29.659  17.579   7.457  0.00  0.00     0.076 A 
HETATM   10  C   UNK N   1      28.736  17.669   6.400  0.00  0.00     0.048 A 
HETATM   11  C   UNK N   1      28.821  16.808   5.290  0.00  0.00    -0.007 A 
HETATM   12  C   UNK N   1      27.828  16.888   4.137  0.00  0.00     0.145 C 
HETATM   13  N   UNK N   1      27.010  15.668   4.101  0.00  0.00    -0.400 N 
HETATM   14  H   UNK N   1      26.230  15.523   4.741  0.00  0.00     0.155 HD
ENDROOT
BRANCH   8  15
HETATM   15  C   UNK N   1      31.702  16.512   8.455  0.00  0.00     0.156 C 
BRANCH  15  16
HETATM   16  N   UNK N   1      32.835  15.787   7.893  0.00  0.00    -0.412 N 
HETATM   17  H   UNK N   1      32.804  14.807   7.610  0.00  0.00     0.153 HD
BRANCH  16  18
HETATM   18  C   UNK N   1      34.023  16.635   7.781  0.00  0.00     0.096 C 
BRANCH  18  19
HETATM   19  C   UNK N   1      33.947  17.611   6.600  0.00  0.00     0.135 C 
BRANCH  19  20
HETATM   20  C   UNK N   1      33.771  16.934   5.271  0.00  0.00     0.141 C 
HETATM   21  O   UNK N   1      34.239  15.825   5.072  0.00  0.00    -0.650 OA
BRANCH  20  22
HETATM   22  O   UNK N   1      33.063  17.547   4.304  0.00  0.00    -0.776 OA
HETATM   23  H   UNK N   1      32.238  17.955   4.122  0.00  0.00     0.167 HD
ENDBRANCH  20  22
ENDBRANCH  19  20
ENDBRANCH  18  19
BRANCH  18  24
HETATM   24  C   UNK N   1      34.306  17.403   9.080  0.00  0.00     0.135 C 
BRANCH  24  25
HETATM   25  C   UNK N   1      34.945  16.596  10.182  0.00  0.00     0.141 C 
HETATM   26  O   UNK N   1      36.090  16.814  10.546  0.00  0.00    -0.650 OA
BRANCH  25  27
HETATM   27  O   UNK N   1      34.243  15.605  10.761  0.00  0.00    -0.776 OA
HETATM   28  H   UNK N   1      33.685  15.693  11.509  0.00  0.00     0.167 HD
ENDBRANCH  25  27
ENDBRANCH  24  25
ENDBRANCH  18  24
ENDBRANCH  16  18
ENDBRANCH  15  16
ENDBRANCH   8  15
BRANCH   9  29
HETATM   29  O   UNK N   1      29.604  18.421   8.520  0.00  0.00    -0.355 OA
HETATM   30  C   UNK N   1      28.764  18.229   9.593  0.00  0.00     0.210 C 
ENDBRANCH   9  29
BRANCH  12  31
HETATM   31  C   UNK N   1      26.956  18.114   4.123  0.00  0.00    -0.031 A 
HETATM   32  C   UNK N   1      27.481  19.390   3.862  0.00  0.00     0.009 A 
HETATM   33  C   UNK N   1      26.636  20.505   3.833  0.00  0.00     0.001 A 
HETATM   34  C   UNK N   1      25.269  20.353   4.081  0.00  0.00     0.000 A 
HETATM   35  C   UNK N   1      24.746  19.087   4.358  0.00  0.00     0.001 A 
HETATM   36  C   UNK N   1      25.586  17.970   4.373  0.00  0.00     0.009 A 
ENDBRANCH  12  31
BRANCH   1  37
HETATM   37  C   UNK N   1      26.403  14.809   1.903  0.00  0.00     0.031 C 
BRANCH  37  38
HETATM   38  C   UNK N   1      25.351  13.702   1.816  0.00  0.00     0.002 C 
BRANCH  38  39
HETATM   39  C   UNK N   1      23.961  14.285   1.661  0.00  0.00    -0.004 C 
HETATM   40  C   UNK N   1      23.633  15.117   2.884  0.00  0.00     0.005 C 
ENDBRANCH  38  39
ENDBRANCH  37  38
ENDBRANCH   1  37
BRANCH   1  41
HETATM   41  C   UNK N   1      27.219  13.293   3.766  0.00  0.00     0.027 C 
HETATM   42  C   UNK N   1      26.757  13.339   5.216  0.00  0.00     0.007 C 
ENDBRANCH   1  41
TORSDOF 15
ENDMDL
MODEL 6
REMARK VINA RESULT:      -6.3     11.850     14.106
REMARK  15 active torsions:
REMARK  status: ('A' for Active; 'I' for Inactive)
REMARK    1  A    between atoms: C_2  and  C_3 
REMARK    2  A    between atoms: C_3  and  C_4 
REMARK    3  A    between atoms: C_5  and  C_4 
REMARK    4  A    between atoms: C_5  and  C_37 
REMARK    5  A    between atoms: C_12  and  C_26 
REMARK    6  A    between atoms: C_13  and  O_24 
REMARK    7  A    between atoms: C_16  and  C_18 
REMARK    8  A    between atoms: C_26  and  N_27 
REMARK    9  A    between atoms: N_27  and  C_28 
REMARK   10  A    between atoms: C_28  and  C_29 
REMARK   11  A    between atoms: C_28  and  C_33 
REMARK   12  A    between atoms: C_29  and  C_30 
REMARK   13  A    between atoms: C_30  and  O_32 
REMARK   14  A    between atoms: C_33  and  C_34 
REMARK   15  A    between atoms: C_34  and  O_36 
ROOT
HETATM    1  C   UNK N   1      27.398  22.538  -7.766  0.00  0.00     0.039 C 
HETATM    2  C   UNK N   1      26.396  22.810  -6.618  0.00  0.00     0.176 C 
HETATM    3  S   UNK N   1      26.557  24.481  -5.953  0.00  0.00     0.178 S 
HETATM    4  O   UNK N   1      25.859  25.508  -6.856  0.00  0.00    -0.223 OA
HETATM    5  O   UNK N   1      25.665  24.557  -4.705  0.00  0.00    -0.223 OA
HETATM    6  C   UNK N   1      28.160  25.064  -5.464  0.00  0.00     0.068 A 
HETATM    7  C   UNK N   1      28.288  26.376  -5.031  0.00  0.00     0.035 A 
HETATM    8  C   UNK N   1      29.516  26.857  -4.590  0.00  0.00    -0.006 A 
HETATM    9  C   UNK N   1      30.639  26.018  -4.568  0.00  0.00     0.076 A 
HETATM   10  C   UNK N   1      30.507  24.690  -5.010  0.00  0.00     0.048 A 
HETATM   11  C   UNK N   1      29.269  24.198  -5.466  0.00  0.00    -0.007 A 
HETATM   12  C   UNK N   1      29.108  22.762  -5.952  0.00  0.00     0.145 C 
HETATM   13  N   UNK N   1      28.815  22.757  -7.391  0.00  0.00    -0.400 N 
HETATM   14  H   UNK N   1      29.544  22.894  -8.090  0.00  0.00     0.155 HD
ENDROOT
BRANCH   8  15
HETATM   15  C   UNK N   1      29.588  28.246  -4.082  0.00  0.00     0.156 C 
BRANCH  15  16
HETATM   16  N   UNK N   1      28.443  28.446  -3.201  0.00  0.00    -0.412 N 
HETATM   17  H   UNK N   1      28.114  27.756  -2.524  0.00  0.00     0.153 HD
BRANCH  16  18
HETATM   18  C   UNK N   1      27.823  29.757  -3.401  0.00  0.00     0.096 C 
BRANCH  18  19
HETATM   19  C   UNK N   1      26.339  29.660  -3.781  0.00  0.00     0.135 C 
BRANCH  19  20
HETATM   20  C   UNK N   1      25.783  28.268  -3.680  0.00  0.00     0.141 C 
HETATM   21  O   UNK N   1      25.812  27.662  -2.621  0.00  0.00    -0.650 OA
BRANCH  20  22
HETATM   22  O   UNK N   1      25.222  27.700  -4.764  0.00  0.00    -0.776 OA
HETATM   23  H   UNK N   1      24.937  26.880  -5.118  0.00  0.00     0.167 HD
ENDBRANCH  20  22
ENDBRANCH  19  20
ENDBRANCH  18  19
BRANCH  18  24
HETATM   24  C   UNK N   1      27.993  30.668  -2.178  0.00  0.00     0.135 C 
BRANCH  24  25
HETATM   25  C   UNK N   1      28.527  29.994  -0.939  0.00  0.00     0.141 C 
HETATM   26  O   UNK N   1      27.780  29.454  -0.138  0.00  0.00    -0.650 OA
BRANCH  25  27
HETATM   27  O   UNK N   1      29.851  30.007  -0.704  0.00  0.00    -0.776 OA
HETATM   28  H   UNK N   1      30.324  29.380  -0.190  0.00  0.00     0.167 HD
ENDBRANCH  25  27
ENDBRANCH  24  25
ENDBRANCH  18  24
ENDBRANCH  16  18
ENDBRANCH  15  16
ENDBRANCH   8  15
BRANCH   9  29
HETATM   29  O   UNK N   1      31.820  26.496  -4.102  0.00  0.00    -0.355 OA
HETATM   30  C   UNK N   1      32.921  26.698  -4.901  0.00  0.00     0.210 C 
ENDBRANCH   9  29
BRANCH  12  31
HETATM   31  C   UNK N   1      30.258  21.844  -5.639  0.00  0.00    -0.031 A 
HETATM   32  C   UNK N   1      30.342  21.157  -4.417  0.00  0.00     0.009 A 
HETATM   33  C   UNK N   1      31.413  20.292  -4.170  0.00  0.00     0.001 A 
HETATM   34  C   UNK N   1      32.412  20.123  -5.133  0.00  0.00     0.000 A 
HETATM   35  C   UNK N   1      32.340  20.818  -6.344  0.00  0.00     0.001 A 
HETATM   36  C   UNK N   1      31.262  21.671  -6.598  0.00  0.00     0.009 A 
ENDBRANCH  12  31
BRANCH   1  37
HETATM   37  C   UNK N   1      27.254  21.067  -8.195  0.00  0.00     0.031 C 
BRANCH  37  38
HETATM   38  C   UNK N   1      28.555  20.414  -8.665  0.00  0.00     0.002 C 
BRANCH  38  39
HETATM   39  C   UNK N   1      28.890  19.200  -7.823  0.00  0.00    -0.004 C 
HETATM   40  C   UNK N   1      30.101  18.506  -8.413  0.00  0.00     0.005 C 
ENDBRANCH  38  39
ENDBRANCH  37  38
ENDBRANCH   1  37
BRANCH   1  41
HETATM   41  C   UNK N   1      27.134  23.483  -8.955  0.00  0.00     0.027 C 
HETATM   42  C   UNK N   1      25.827  23.249  -9.700  0.00  0.00     0.007 C 
ENDBRANCH   1  41
TORSDOF 15
ENDMDL
MODEL 7
REMARK VINA RESULT:      -6.2      3.970      8.992
REMARK  15 active torsions:
REMARK  status: ('A' for Active; 'I' for Inactive)
REMARK    1  A    between atoms: C_2  and  C_3 
REMARK    2  A    between atoms: C_3  and  C_4 
REMARK    3  A    between atoms: C_5  and  C_4 
REMARK    4  A    between atoms: C_5  and  C_37 
REMARK    5  A    between atoms: C_12  and  C_26 
REMARK    6  A    between atoms: C_13  and  O_24 
REMARK    7  A    between atoms: C_16  and  C_18 
REMARK    8  A    between atoms: C_26  and  N_27 
REMARK    9  A    between atoms: N_27  and  C_28 
REMARK   10  A    between atoms: C_28  and  C_29 
REMARK   11  A    between atoms: C_28  and  C_33 
REMARK   12  A    between atoms: C_29  and  C_30 
REMARK   13  A    between atoms: C_30  and  O_32 
REMARK   14  A    between atoms: C_33  and  C_34 
REMARK   15  A    between atoms: C_34  and  O_36 
ROOT
HETATM    1  C   UNK N   1      25.131  18.460   4.433  0.00  0.00     0.039 C 
HETATM    2  C   UNK N   1      25.659  19.296   5.624  0.00  0.00     0.176 C 
HETATM    3  S   UNK N   1      27.462  19.375   5.655  0.00  0.00     0.178 S 
HETATM    4  O   UNK N   1      27.991  20.407   4.647  0.00  0.00    -0.223 OA
HETATM    5  O   UNK N   1      27.861  20.050   6.976  0.00  0.00    -0.223 OA
HETATM    6  C   UNK N   1      28.394  17.869   5.556  0.00  0.00     0.068 A 
HETATM    7  C   UNK N   1      29.778  17.944   5.497  0.00  0.00     0.035 A 
HETATM    8  C   UNK N   1      30.548  16.786   5.471  0.00  0.00    -0.006 A 
HETATM    9  C   UNK N   1      29.934  15.526   5.514  0.00  0.00     0.076 A 
HETATM   10  C   UNK N   1      28.531  15.453   5.570  0.00  0.00     0.048 A 
HETATM   11  C   UNK N   1      27.744  16.621   5.588  0.00  0.00    -0.007 A 
HETATM   12  C   UNK N   1      26.223  16.561   5.645  0.00  0.00     0.145 C 
HETATM   13  N   UNK N   1      25.659  17.076   4.390  0.00  0.00    -0.400 N 
HETATM   14  H   UNK N   1      25.633  16.514   3.540  0.00  0.00     0.155 HD
ENDROOT
BRANCH   8  15
HETATM   15  C   UNK N   1      32.023  16.919   5.470  0.00  0.00     0.156 C 
BRANCH  15  16
HETATM   16  N   UNK N   1      32.424  17.321   6.814  0.00  0.00    -0.412 N 
HETATM   17  H   UNK N   1      32.283  18.256   7.197  0.00  0.00     0.153 HD
BRANCH  16  18
HETATM   18  C   UNK N   1      33.053  16.221   7.546  0.00  0.00     0.096 C 
BRANCH  18  19
HETATM   19  C   UNK N   1      34.540  16.472   7.832  0.00  0.00     0.135 C 
BRANCH  19  20
HETATM   20  C   UNK N   1      34.793  17.689   8.676  0.00  0.00     0.141 C 
HETATM   21  O   UNK N   1      34.577  18.806   8.235  0.00  0.00    -0.650 OA
BRANCH  20  22
HETATM   22  O   UNK N   1      35.231  17.538   9.939  0.00  0.00    -0.776 OA
HETATM   23  H   UNK N   1      34.944  17.404  10.822  0.00  0.00     0.167 HD
ENDBRANCH  20  22
ENDBRANCH  19  20
ENDBRANCH  18  19
BRANCH  18  24
HETATM   24  C   UNK N   1      32.314  15.901   8.853  0.00  0.00     0.135 C 
BRANCH  24  25
HETATM   25  C   UNK N   1      32.935  14.817   9.698  0.00  0.00     0.141 C 
HETATM   26  O   UNK N   1      33.096  13.687   9.262  0.00  0.00    -0.650 OA
BRANCH  25  27
HETATM   27  O   UNK N   1      33.297  15.097  10.962  0.00  0.00    -0.776 OA
HETATM   28  H   UNK N   1      33.985  15.679  11.219  0.00  0.00     0.167 HD
ENDBRANCH  25  27
ENDBRANCH  24  25
ENDBRANCH  18  24
ENDBRANCH  16  18
ENDBRANCH  15  16
ENDBRANCH   8  15
BRANCH   9  29
HETATM   29  O   UNK N   1      30.703  14.409   5.522  0.00  0.00    -0.355 OA
HETATM   30  C   UNK N   1      30.679  13.468   4.519  0.00  0.00     0.210 C 
ENDBRANCH   9  29
BRANCH  12  31
HETATM   31  C   UNK N   1      25.644  15.212   5.974  0.00  0.00    -0.031 A 
HETATM   32  C   UNK N   1      25.142  14.360   4.976  0.00  0.00     0.009 A 
HETATM   33  C   UNK N   1      24.634  13.103   5.316  0.00  0.00     0.001 A 
HETATM   34  C   UNK N   1      24.608  12.697   6.654  0.00  0.00     0.000 A 
HETATM   35  C   UNK N   1      25.091  13.548   7.652  0.00  0.00     0.001 A 
HETATM   36  C   UNK N   1      25.613  14.800   7.311  0.00  0.00     0.009 A 
ENDBRANCH  12  31
BRANCH   1  37
HETATM   37  C   UNK N   1      23.598  18.366   4.551  0.00  0.00     0.031 C 
BRANCH  37  38
HETATM   38  C   UNK N   1      22.979  17.172   3.822  0.00  0.00     0.002 C 
BRANCH  38  39
HETATM   39  C   UNK N   1      22.007  16.433   4.718  0.00  0.00    -0.004 C 
HETATM   40  C   UNK N   1      22.334  16.742   6.165  0.00  0.00     0.005 C 
ENDBRANCH  38  39
ENDBRANCH  37  38
ENDBRANCH   1  37
BRANCH   1  41
HETATM   41  C   UNK N   1      25.538  19.101   3.093  0.00  0.00     0.027 C 
HETATM   42  C   UNK N   1      24.891  20.444   2.785  0.00  0.00     0.007 C 
ENDBRANCH   1  41
TORSDOF 15
ENDMDL
MODEL 8
REMARK VINA RESULT:      -6.1      3.259      5.042
REMARK  15 active torsions:
REMARK  status: ('A' for Active; 'I' for Inactive)
REMARK    1  A    between atoms: C_2  and  C_3 
REMARK    2  A    between atoms: C_3  and  C_4 
REMARK    3  A    between atoms: C_5  and  C_4 
REMARK    4  A    between atoms: C_5  and  C_37 
REMARK    5  A    between atoms: C_12  and  C_26 
REMARK    6  A    between atoms: C_13  and  O_24 
REMARK    7  A    between atoms: C_16  and  C_18 
REMARK    8  A    between atoms: C_26  and  N_27 
REMARK    9  A    between atoms: N_27  and  C_28 
REMARK   10  A    between atoms: C_28  and  C_29 
REMARK   11  A    between atoms: C_28  and  C_33 
REMARK   12  A    between atoms: C_29  and  C_30 
REMARK   13  A    between atoms: C_30  and  O_32 
REMARK   14  A    between atoms: C_33  and  C_34 
REMARK   15  A    between atoms: C_34  and  O_36 
ROOT
HETATM    1  C   UNK N   1      24.882  12.373   2.248  0.00  0.00     0.039 C 
HETATM    2  C   UNK N   1      24.207  12.030   3.599  0.00  0.00     0.176 C 
HETATM    3  S   UNK N   1      23.029  13.297   4.114  0.00  0.00     0.178 S 
HETATM    4  O   UNK N   1      21.694  13.152   3.367  0.00  0.00    -0.223 OA
HETATM    5  O   UNK N   1      22.587  12.947   5.542  0.00  0.00    -0.223 OA
HETATM    6  C   UNK N   1      23.546  14.995   4.147  0.00  0.00     0.068 A 
HETATM    7  C   UNK N   1      22.611  15.969   4.464  0.00  0.00     0.035 A 
HETATM    8  C   UNK N   1      22.987  17.306   4.552  0.00  0.00    -0.006 A 
HETATM    9  C   UNK N   1      24.319  17.682   4.330  0.00  0.00     0.076 A 
HETATM   10  C   UNK N   1      25.263  16.693   4.006  0.00  0.00     0.048 A 
HETATM   11  C   UNK N   1      24.889  15.339   3.906  0.00  0.00    -0.007 A 
HETATM   12  C   UNK N   1      25.898  14.253   3.552  0.00  0.00     0.145 C 
HETATM   13  N   UNK N   1      25.572  13.685   2.238  0.00  0.00    -0.400 N 
HETATM   14  H   UNK N   1      25.808  14.164   1.370  0.00  0.00     0.155 HD
ENDROOT
BRANCH   8  15
HETATM   15  C   UNK N   1      21.966  18.300   4.953  0.00  0.00     0.156 C 
BRANCH  15  16
HETATM   16  N   UNK N   1      20.713  17.922   4.309  0.00  0.00    -0.412 N 
HETATM   17  H   UNK N   1      19.953  17.430   4.781  0.00  0.00     0.153 HD
BRANCH  16  18
HETATM   18  C   UNK N   1      20.677  18.333   2.905  0.00  0.00     0.096 C 
BRANCH  18  19
HETATM   19  C   UNK N   1      19.730  17.471   2.059  0.00  0.00     0.135 C 
BRANCH  19  20
HETATM   20  C   UNK N   1      20.301  17.083   0.725  0.00  0.00     0.141 C 
HETATM   21  O   UNK N   1      20.724  15.953   0.535  0.00  0.00    -0.650 OA
BRANCH  20  22
HETATM   22  O   UNK N   1      20.317  17.983  -0.276  0.00  0.00    -0.776 OA
HETATM   23  H   UNK N   1      19.825  18.678  -0.667  0.00  0.00     0.167 HD
ENDBRANCH  20  22
ENDBRANCH  19  20
ENDBRANCH  18  19
BRANCH  18  24
HETATM   24  C   UNK N   1      20.316  19.817   2.749  0.00  0.00     0.135 C 
BRANCH  24  25
HETATM   25  C   UNK N   1      21.341  20.659   2.032  0.00  0.00     0.141 C 
HETATM   26  O   UNK N   1      22.129  21.360   2.648  0.00  0.00    -0.650 OA
BRANCH  25  27
HETATM   27  O   UNK N   1      21.371  20.652   0.687  0.00  0.00    -0.776 OA
HETATM   28  H   UNK N   1      20.680  20.939   0.121  0.00  0.00     0.167 HD
ENDBRANCH  25  27
ENDBRANCH  24  25
ENDBRANCH  18  24
ENDBRANCH  16  18
ENDBRANCH  15  16
ENDBRANCH   8  15
BRANCH   9  29
HETATM   29  O   UNK N   1      24.673  18.986   4.454  0.00  0.00    -0.355 OA
HETATM   30  C   UNK N   1      25.193  19.729   3.420  0.00  0.00     0.210 C 
ENDBRANCH   9  29
BRANCH  12  31
HETATM   31  C   UNK N   1      27.341  14.673   3.608  0.00  0.00    -0.031 A 
HETATM   32  C   UNK N   1      27.969  15.306   2.523  0.00  0.00     0.009 A 
HETATM   33  C   UNK N   1      29.305  15.705   2.619  0.00  0.00     0.001 A 
HETATM   34  C   UNK N   1      30.026  15.458   3.791  0.00  0.00     0.000 A 
HETATM   35  C   UNK N   1      29.410  14.814   4.868  0.00  0.00     0.001 A 
HETATM   36  C   UNK N   1      28.070  14.428   4.778  0.00  0.00     0.009 A 
ENDBRANCH  12  31
BRANCH   1  37
HETATM   37  C   UNK N   1      25.937  11.293   1.947  0.00  0.00     0.031 C 
BRANCH  37  38
HETATM   38  C   UNK N   1      27.200  11.815   1.259  0.00  0.00     0.002 C 
BRANCH  38  39
HETATM   39  C   UNK N   1      28.433  11.508   2.083  0.00  0.00    -0.004 C 
HETATM   40  C   UNK N   1      29.637  12.162   1.435  0.00  0.00     0.005 C 
ENDBRANCH  38  39
ENDBRANCH  37  38
ENDBRANCH   1  37
BRANCH   1  41
HETATM   41  C   UNK N   1      23.836  12.447   1.119  0.00  0.00     0.027 C 
HETATM   42  C   UNK N   1      23.710  13.799   0.430  0.00  0.00     0.007 C 
ENDBRANCH   1  41
TORSDOF 15
ENDMDL
MODEL 9
REMARK VINA RESULT:      -6.1      6.586     10.799
REMARK  15 active torsions:
REMARK  status: ('A' for Active; 'I' for Inactive)
REMARK    1  A    between atoms: C_2  and  C_3 
REMARK    2  A    between atoms: C_3  and  C_4 
REMARK    3  A    between atoms: C_5  and  C_4 
REMARK    4  A    between atoms: C_5  and  C_37 
REMARK    5  A    between atoms: C_12  and  C_26 
REMARK    6  A    between atoms: C_13  and  O_24 
REMARK    7  A    between atoms: C_16  and  C_18 
REMARK    8  A    between atoms: C_26  and  N_27 
REMARK    9  A    between atoms: N_27  and  C_28 
REMARK   10  A    between atoms: C_28  and  C_29 
REMARK   11  A    between atoms: C_28  and  C_33 
REMARK   12  A    between atoms: C_29  and  C_30 
REMARK   13  A    between atoms: C_30  and  O_32 
REMARK   14  A    between atoms: C_33  and  C_34 
REMARK   15  A    between atoms: C_34  and  O_36 
ROOT
HETATM    1  C   UNK N   1      36.296  12.531  12.209  0.00  0.00     0.039 C 
HETATM    2  C   UNK N   1      37.502  12.798  11.276  0.00  0.00     0.176 C 
HETATM    3  S   UNK N   1      37.092  13.942   9.940  0.00  0.00     0.178 S 
HETATM    4  O   UNK N   1      37.104  15.397  10.432  0.00  0.00    -0.223 OA
HETATM    5  O   UNK N   1      38.293  13.964   8.982  0.00  0.00    -0.223 OA
HETATM    6  C   UNK N   1      35.657  13.629   8.945  0.00  0.00     0.068 A 
HETATM    7  C   UNK N   1      35.304  14.557   7.976  0.00  0.00     0.035 A 
HETATM    8  C   UNK N   1      34.216  14.325   7.140  0.00  0.00    -0.006 A 
HETATM    9  C   UNK N   1      33.469  13.144   7.262  0.00  0.00     0.076 A 
HETATM   10  C   UNK N   1      33.828  12.208   8.247  0.00  0.00     0.048 A 
HETATM   11  C   UNK N   1      34.922  12.439   9.102  0.00  0.00    -0.007 A 
HETATM   12  C   UNK N   1      35.324  11.437  10.178  0.00  0.00     0.145 C 
HETATM   13  N   UNK N   1      35.095  12.020  11.507  0.00  0.00    -0.400 N 
HETATM   14  H   UNK N   1      34.165  12.068  11.922  0.00  0.00     0.155 HD
ENDROOT
BRANCH   8  15
HETATM   15  C   UNK N   1      33.916  15.316   6.082  0.00  0.00     0.156 C 
BRANCH  15  16
HETATM   16  N   UNK N   1      32.564  15.808   6.318  0.00  0.00    -0.412 N 
HETATM   17  H   UNK N   1      31.743  15.496   5.797  0.00  0.00     0.153 HD
BRANCH  16  18
HETATM   18  C   UNK N   1      32.524  16.802   7.391  0.00  0.00     0.096 C 
BRANCH  18  19
HETATM   19  C   UNK N   1      33.550  17.927   7.195  0.00  0.00     0.135 C 
BRANCH  19  20
HETATM   20  C   UNK N   1      34.386  18.197   8.413  0.00  0.00     0.141 C 
HETATM   21  O   UNK N   1      35.211  19.096   8.414  0.00  0.00    -0.650 OA
BRANCH  20  22
HETATM   22  O   UNK N   1      34.197  17.458   9.522  0.00  0.00    -0.776 OA
HETATM   23  H   UNK N   1      34.579  17.234  10.349  0.00  0.00     0.167 HD
ENDBRANCH  20  22
ENDBRANCH  19  20
ENDBRANCH  18  19
BRANCH  18  24
HETATM   24  C   UNK N   1      31.121  17.397   7.573  0.00  0.00     0.135 C 
BRANCH  24  25
HETATM   25  C   UNK N   1      30.152  17.124   6.451  0.00  0.00     0.141 C 
HETATM   26  O   UNK N   1      29.114  16.510   6.645  0.00  0.00    -0.650 OA
BRANCH  25  27
HETATM   27  O   UNK N   1      30.449  17.548   5.210  0.00  0.00    -0.776 OA
HETATM   28  H   UNK N   1      30.660  17.000   4.479  0.00  0.00     0.167 HD
ENDBRANCH  25  27
ENDBRANCH  24  25
ENDBRANCH  18  24
ENDBRANCH  16  18
ENDBRANCH  15  16
ENDBRANCH   8  15
BRANCH   9  29
HETATM   29  O   UNK N   1      32.434  12.920   6.414  0.00  0.00    -0.355 OA
HETATM   30  C   UNK N   1      32.483  12.010   5.384  0.00  0.00     0.210 C 
ENDBRANCH   9  29
BRANCH  12  31
HETATM   31  C   UNK N   1      34.675  10.084  10.071  0.00  0.00    -0.031 A 
HETATM   32  C   UNK N   1      35.294   9.020   9.394  0.00  0.00     0.009 A 
HETATM   33  C   UNK N   1      34.673   7.769   9.335  0.00  0.00     0.001 A 
HETATM   34  C   UNK N   1      33.426   7.579   9.937  0.00  0.00     0.000 A 
HETATM   35  C   UNK N   1      32.799   8.638  10.598  0.00  0.00     0.001 A 
HETATM   36  C   UNK N   1      33.426   9.886  10.669  0.00  0.00     0.009 A 
ENDBRANCH  12  31
BRANCH   1  37
HETATM   37  C   UNK N   1      36.712  11.473  13.246  0.00  0.00     0.031 C 
BRANCH  37  38
HETATM   38  C   UNK N   1      35.723  10.317  13.403  0.00  0.00     0.002 C 
BRANCH  38  39
HETATM   39  C   UNK N   1      35.060  10.349  14.765  0.00  0.00    -0.004 C 
HETATM   40  C   UNK N   1      33.652  10.890  14.617  0.00  0.00     0.005 C 
ENDBRANCH  38  39
ENDBRANCH  37  38
ENDBRANCH   1  37
BRANCH   1  41
HETATM   41  C   UNK N   1      35.847  13.832  12.903  0.00  0.00     0.027 C 
HETATM   42  C   UNK N   1      36.320  14.004  14.340  0.00  0.00     0.007 C 
ENDBRANCH   1  41
TORSDOF 15
ENDMDL
