REMARK  6 active torsions:
REMARK  status: ('A' for Active; 'I' for Inactive)
REMARK    1  A    between atoms: C_5  and  C_2 
REMARK    2  A    between atoms: O_19  and  C_2 
REMARK    3  A    between atoms: C_7  and  C_4 
REMARK    4  A    between atoms: C_9  and  O_20 
REMARK    5  A    between atoms: C_10  and  O_21 
REMARK    6  A    between atoms: N_12  and  C_11 
ROOT
HETATM    1  C   UNK N   1       1.198  -0.679   0.717  0.00  0.00     0.100 A 
HETATM    2  C   UNK N   1       5.158   0.715  -0.869  0.00  0.00     0.182 A 
HETATM    3  C   UNK N   1       1.763   0.581   0.512  0.00  0.00     0.011 A 
HETATM    4  C   UNK N   1       3.012   0.347  -0.011  0.00  0.00     0.073 A 
HETATM    5  C   UNK N   1       3.167  -0.992  -0.118  0.00  0.00     0.103 A 
HETATM    6  C   UNK N   1       4.351  -1.513  -0.625  0.00  0.00     0.129 A 
HETATM    7  N   UNK N   1       2.071  -1.643   0.318  0.00  0.00    -0.360 N 
HETATM    8  N   UNK N   1       3.985   1.218  -0.377  0.00  0.00    -0.350 N 
ATOM      9  HN  UNK N   1       3.845   2.224  -0.288  1.00  0.00     0.166 HD
HETATM   10  N   UNK N   1       5.334  -0.640  -0.993  0.00  0.00    -0.337 N 
HETATM   11  H   UNK N   1       1.931  -2.617   0.343  0.00  0.00     0.165 HD
HETATM   12  H   UNK N   1       6.182  -0.988  -1.352  0.00  0.00     0.168 HD
ENDROOT
BRANCH   3  13
HETATM   13  C   UNK N   1       1.116   1.912   0.798  0.00  0.00     0.145 C 
HETATM   14  C   UNK N   1      -0.231   2.060   0.083  0.00  0.00     0.175 C 
HETATM   15  C   UNK N   1      -0.327   3.560  -0.022  0.00  0.00     0.173 C 
HETATM   16  C   UNK N   1       1.083   3.846  -0.515  0.00  0.00     0.132 C 
HETATM   17  N   UNK N   1       1.956   3.033   0.336  0.00  0.00    -0.402 N 
HETATM   18  H   UNK N   1       2.936   3.206   0.560  0.00  0.00     0.154 HD
BRANCH  14  19
HETATM   19  O   UNK N   1      -1.290   1.496   0.799  0.00  0.00    -0.391 OA
HETATM   20  H   UNK N   1      -1.997   1.937   1.296  0.00  0.00     0.210 HD
ENDBRANCH  14  19
BRANCH  15  21
HETATM   21  O   UNK N   1      -1.310   3.975  -0.923  0.00  0.00    -0.391 OA
HETATM   22  H   UNK N   1      -1.402   4.711  -1.548  0.00  0.00     0.210 HD
ENDBRANCH  15  21
BRANCH  16  23
HETATM   23  C   UNK N   1       1.471   5.321  -0.495  0.00  0.00     0.191 C 
BRANCH  23  24
HETATM   24  O   UNK N   1       1.430   5.835   0.801  0.00  0.00    -0.399 OA
HETATM   25  H   UNK N   1       1.725   6.039   1.702  0.00  0.00     0.209 HD
ENDBRANCH  23  24
ENDBRANCH  16  23
ENDBRANCH   3  13
BRANCH   6  26
HETATM   26  N   UNK N   1       4.523  -2.775  -0.745  0.00  0.00    -0.384 N 
HETATM   27  H   UNK N   1       3.749  -3.375  -0.839  0.00  0.00     0.157 HD
ATOM     28  HN  UNK N   1       5.467  -3.160  -0.745  1.00  0.00     0.157 HD
ENDBRANCH   6  26
TORSDOF 6
