REMARK  2 active torsions:
REMARK  status: ('A' for Active; 'I' for Inactive)
REMARK    1  A    between atoms: C_5  and  C_11 
REMARK       I    between atoms: C_11  and  N_13 
REMARK    2  A    between atoms: C_14  and  N_13 
ROOT
HETATM    1  C   UNK N   1      -3.115   2.102   0.637  0.00  0.00     0.259 C 
HETATM    2  O   UNK N   1      -2.090   1.445   0.652  0.00  0.00    -0.267 OA
HETATM    3  N   UNK N   1      -3.088   3.449   0.817  0.00  0.00    -0.350 N 
HETATM    4  H   UNK N   1      -3.944   3.931   0.748  0.00  0.00     0.163 HD
ENDROOT
BRANCH   1   5
HETATM    5  C   UNK N   1      -4.417   1.455   0.422  0.00  0.00     0.074 A 
HETATM    6  C   UNK N   1      -5.657   2.108   0.484  0.00  0.00     0.037 A 
HETATM    7  C   UNK N   1      -6.741   1.220   0.268  0.00  0.00    -0.016 A 
HETATM    8  C   UNK N   1      -8.088   1.575   0.284  0.00  0.00     0.013 A 
HETATM    9  C   UNK N   1      -6.361  -0.100   0.034  0.00  0.00     0.037 A 
HETATM   10  C   UNK N   1      -9.051   0.577   0.058  0.00  0.00     0.003 A 
HETATM   11  C   UNK N   1      -8.659  -0.756  -0.184  0.00  0.00     0.025 A 
HETATM   12  C   UNK N   1      -7.298  -1.105  -0.199  0.00  0.00     0.052 A 
HETATM   13 Cl   UNK N   1      -6.816  -2.763  -0.502  0.00  0.00    -0.083 Cl
HETATM   14  S   UNK N   1      -4.705  -0.159   0.103  0.00  0.00    -0.082 SA
ENDBRANCH   1   5
BRANCH   3  15
HETATM   15  C   UNK N   1      -1.906   4.231   1.103  0.00  0.00     0.117 C 
HETATM   16  C   UNK N   1      -2.318   5.721   1.073  0.00  0.00     0.297 C 
HETATM   17  N   UNK N   1      -1.601   6.462   0.018  0.00  0.00     0.090 N 
HETATM   18  C   UNK N   1      -0.160   6.429   0.323  0.00  0.00     0.273 C 
HETATM   19  C   UNK N   1      -1.834   5.817  -1.290  0.00  0.00     0.273 C 
HETATM   20  C   UNK N   1       0.360   4.976   0.420  0.00  0.00     0.037 C 
HETATM   21  C   UNK N   1      -0.776   4.001   0.079  0.00  0.00     0.013 C 
HETATM   22  C   UNK N   1      -1.293   4.372  -1.314  0.00  0.00     0.037 C 
ENDBRANCH   3  15
TORSDOF 2
