MODEL 1
REMARK VINA RESULT:      -5.0      0.000      0.000
REMARK  23 active torsions:
REMARK  status: ('A' for Active; 'I' for Inactive)
REMARK    1  A    between atoms: C_7  and  C_4 
REMARK    2  A    between atoms: C_8  and  C_5 
REMARK    3  A    between atoms: C_9  and  C_6 
REMARK    4  A    between atoms: C_10  and  C_7 
REMARK    5  A    between atoms: C_11  and  C_8 
REMARK    6  A    between atoms: C_12  and  C_9 
REMARK    7  A    between atoms: C_13  and  C_10 
REMARK    8  A    between atoms: C_14  and  C_11 
REMARK    9  A    between atoms: C_15  and  C_12 
REMARK   10  A    between atoms: C_16  and  C_13 
REMARK   11  A    between atoms: C_17  and  C_14 
REMARK   12  A    between atoms: C_18  and  C_15 
REMARK   13  A    between atoms: C_22  and  C_16 
REMARK   14  A    between atoms: C_23  and  C_17 
REMARK   15  A    between atoms: C_24  and  C_18 
REMARK   16  A    between atoms: C_21  and  C_19 
REMARK   17  A    between atoms: O_28  and  C_19 
REMARK   18  A    between atoms: C_21  and  C_20 
REMARK   19  A    between atoms: O_29  and  C_20 
REMARK   20  A    between atoms: O_30  and  C_21 
REMARK   21  A    between atoms: O_28  and  C_22 
REMARK   22  A    between atoms: O_29  and  C_23 
REMARK   23  A    between atoms: O_30  and  C_24 
ROOT
HETATM    1  C   UNK N   1      21.533  19.315   3.306  0.00  0.00     0.180 C 
ENDROOT
BRANCH   1   2
HETATM    2  C   UNK N   1      22.351  20.517   2.827  0.00  0.00     0.213 C 
BRANCH   2   3
HETATM    3  O   UNK N   1      23.595  20.452   3.404  0.00  0.00    -0.319 OA
BRANCH   3   4
HETATM    4  C   UNK N   1      24.771  20.435   2.743  0.00  0.00     0.258 C 
HETATM    5  O   UNK N   1      24.816  20.556   1.526  0.00  0.00    -0.265 OA
BRANCH   4   6
HETATM    6  C   UNK N   1      26.014  20.279   3.563  0.00  0.00     0.111 C 
BRANCH   6   7
HETATM    7  C   UNK N   1      25.837  20.397   5.062  0.00  0.00     0.010 C 
BRANCH   7   8
HETATM    8  C   UNK N   1      27.001  19.657   5.689  0.00  0.00     0.000 C 
BRANCH   8   9
HETATM    9  C   UNK N   1      27.993  19.200   4.644  0.00  0.00    -0.000 C 
BRANCH   9  10
HETATM   10  C   UNK N   1      28.685  17.954   5.156  0.00  0.00    -0.005 C 
HETATM   11  C   UNK N   1      27.856  17.319   6.250  0.00  0.00     0.005 C 
ENDBRANCH   9  10
ENDBRANCH   8   9
ENDBRANCH   7   8
ENDBRANCH   6   7
ENDBRANCH   4   6
ENDBRANCH   3   4
ENDBRANCH   2   3
ENDBRANCH   1   2
BRANCH   1  12
HETATM   12  C   UNK N   1      20.255  19.203   2.498  0.00  0.00     0.213 C 
BRANCH  12  13
HETATM   13  O   UNK N   1      20.538  18.734   1.233  0.00  0.00    -0.319 OA
BRANCH  13  14
HETATM   14  C   UNK N   1      20.312  17.452   0.870  0.00  0.00     0.258 C 
HETATM   15  O   UNK N   1      20.263  17.144  -0.317  0.00  0.00    -0.265 OA
BRANCH  14  16
HETATM   16  C   UNK N   1      20.110  16.412   1.936  0.00  0.00     0.111 C 
BRANCH  16  17
HETATM   17  C   UNK N   1      20.715  15.075   1.540  0.00  0.00     0.010 C 
BRANCH  17  18
HETATM   18  C   UNK N   1      21.588  14.520   2.643  0.00  0.00     0.000 C 
BRANCH  18  19
HETATM   19  C   UNK N   1      22.540  13.522   2.020  0.00  0.00    -0.000 C 
BRANCH  19  20
HETATM   20  C   UNK N   1      23.127  14.073   0.740  0.00  0.00    -0.005 C 
HETATM   21  C   UNK N   1      23.652  12.925  -0.095  0.00  0.00     0.005 C 
ENDBRANCH  19  20
ENDBRANCH  18  19
ENDBRANCH  17  18
ENDBRANCH  16  17
ENDBRANCH  14  16
ENDBRANCH  13  14
ENDBRANCH  12  13
ENDBRANCH   1  12
BRANCH   1  22
HETATM   22  O   UNK N   1      21.233  19.402   4.656  0.00  0.00    -0.312 OA
BRANCH  22  23
HETATM   23  C   UNK N   1      21.594  18.449   5.554  0.00  0.00     0.259 C 
HETATM   24  O   UNK N   1      21.306  18.573   6.738  0.00  0.00    -0.265 OA
BRANCH  23  25
HETATM   25  C   UNK N   1      22.374  17.249   5.091  0.00  0.00     0.111 C 
BRANCH  25  26
HETATM   26  C   UNK N   1      23.863  17.468   5.307  0.00  0.00     0.010 C 
BRANCH  26  27
HETATM   27  C   UNK N   1      24.690  16.264   4.924  0.00  0.00     0.000 C 
BRANCH  27  28
HETATM   28  C   UNK N   1      24.695  16.202   3.411  0.00  0.00    -0.000 C 
BRANCH  28  29
HETATM   29  C   UNK N   1      26.072  16.495   2.861  0.00  0.00    -0.005 C 
HETATM   30  C   UNK N   1      26.435  15.415   1.863  0.00  0.00     0.005 C 
ENDBRANCH  28  29
ENDBRANCH  27  28
ENDBRANCH  26  27
ENDBRANCH  25  26
ENDBRANCH  23  25
ENDBRANCH  22  23
ENDBRANCH   1  22
TORSDOF 23
ENDMDL
MODEL 2
REMARK VINA RESULT:      -4.8      1.390      5.883
REMARK  23 active torsions:
REMARK  status: ('A' for Active; 'I' for Inactive)
REMARK    1  A    between atoms: C_7  and  C_4 
REMARK    2  A    between atoms: C_8  and  C_5 
REMARK    3  A    between atoms: C_9  and  C_6 
REMARK    4  A    between atoms: C_10  and  C_7 
REMARK    5  A    between atoms: C_11  and  C_8 
REMARK    6  A    between atoms: C_12  and  C_9 
REMARK    7  A    between atoms: C_13  and  C_10 
REMARK    8  A    between atoms: C_14  and  C_11 
REMARK    9  A    between atoms: C_15  and  C_12 
REMARK   10  A    between atoms: C_16  and  C_13 
REMARK   11  A    between atoms: C_17  and  C_14 
REMARK   12  A    between atoms: C_18  and  C_15 
REMARK   13  A    between atoms: C_22  and  C_16 
REMARK   14  A    between atoms: C_23  and  C_17 
REMARK   15  A    between atoms: C_24  and  C_18 
REMARK   16  A    between atoms: C_21  and  C_19 
REMARK   17  A    between atoms: O_28  and  C_19 
REMARK   18  A    between atoms: C_21  and  C_20 
REMARK   19  A    between atoms: O_29  and  C_20 
REMARK   20  A    between atoms: O_30  and  C_21 
REMARK   21  A    between atoms: O_28  and  C_22 
REMARK   22  A    between atoms: O_29  and  C_23 
REMARK   23  A    between atoms: O_30  and  C_24 
ROOT
HETATM    1  C   UNK N   1      21.195  18.871   2.776  0.00  0.00     0.180 C 
ENDROOT
BRANCH   1   2
HETATM    2  C   UNK N   1      20.705  18.971   4.223  0.00  0.00     0.213 C 
BRANCH   2   3
HETATM    3  O   UNK N   1      21.500  18.171   5.006  0.00  0.00    -0.319 OA
BRANCH   3   4
HETATM    4  C   UNK N   1      21.338  17.952   6.328  0.00  0.00     0.258 C 
HETATM    5  O   UNK N   1      20.966  18.846   7.078  0.00  0.00    -0.265 OA
BRANCH   4   6
HETATM    6  C   UNK N   1      21.614  16.569   6.831  0.00  0.00     0.111 C 
BRANCH   6   7
HETATM    7  C   UNK N   1      21.964  15.540   5.777  0.00  0.00     0.010 C 
BRANCH   7   8
HETATM    8  C   UNK N   1      23.399  15.130   6.040  0.00  0.00     0.000 C 
BRANCH   8   9
HETATM    9  C   UNK N   1      24.371  15.997   5.272  0.00  0.00    -0.000 C 
BRANCH   9  10
HETATM   10  C   UNK N   1      23.977  15.974   3.810  0.00  0.00    -0.005 C 
HETATM   11  C   UNK N   1      25.121  15.439   2.978  0.00  0.00     0.005 C 
ENDBRANCH   9  10
ENDBRANCH   8   9
ENDBRANCH   7   8
ENDBRANCH   6   7
ENDBRANCH   4   6
ENDBRANCH   3   4
ENDBRANCH   2   3
ENDBRANCH   1   2
BRANCH   1  12
HETATM   12  C   UNK N   1      21.604  20.241   2.272  0.00  0.00     0.213 C 
BRANCH  12  13
HETATM   13  O   UNK N   1      22.561  20.781   3.104  0.00  0.00    -0.319 OA
BRANCH  13  14
HETATM   14  C   UNK N   1      23.872  20.469   2.998  0.00  0.00     0.258 C 
HETATM   15  O   UNK N   1      24.546  20.927   2.080  0.00  0.00    -0.265 OA
BRANCH  14  16
HETATM   16  C   UNK N   1      24.491  19.545   4.009  0.00  0.00     0.111 C 
BRANCH  16  17
HETATM   17  C   UNK N   1      25.930  19.208   3.656  0.00  0.00     0.010 C 
BRANCH  17  18
HETATM   18  C   UNK N   1      26.800  19.155   4.892  0.00  0.00     0.000 C 
BRANCH  18  19
HETATM   19  C   UNK N   1      27.738  20.342   4.846  0.00  0.00    -0.000 C 
BRANCH  19  20
HETATM   20  C   UNK N   1      27.769  21.047   6.183  0.00  0.00    -0.005 C 
HETATM   21  C   UNK N   1      26.354  21.410   6.581  0.00  0.00     0.005 C 
ENDBRANCH  19  20
ENDBRANCH  18  19
ENDBRANCH  17  18
ENDBRANCH  16  17
ENDBRANCH  14  16
ENDBRANCH  13  14
ENDBRANCH  12  13
ENDBRANCH   1  12
BRANCH   1  22
HETATM   22  O   UNK N   1      20.230  18.328   1.942  0.00  0.00    -0.312 OA
BRANCH  22  23
HETATM   23  C   UNK N   1      20.487  17.306   1.086  0.00  0.00     0.259 C 
HETATM   24  O   UNK N   1      20.318  17.451  -0.119  0.00  0.00    -0.265 OA
BRANCH  23  25
HETATM   25  C   UNK N   1      20.960  15.984   1.625  0.00  0.00     0.111 C 
BRANCH  25  26
HETATM   26  C   UNK N   1      19.949  15.422   2.612  0.00  0.00     0.010 C 
BRANCH  26  27
HETATM   27  C   UNK N   1      20.269  14.007   3.030  0.00  0.00     0.000 C 
BRANCH  27  28
HETATM   28  C   UNK N   1      21.563  13.630   2.342  0.00  0.00    -0.000 C 
BRANCH  28  29
HETATM   29  C   UNK N   1      21.968  12.215   2.683  0.00  0.00    -0.005 C 
HETATM   30  C   UNK N   1      23.124  12.264   3.661  0.00  0.00     0.005 C 
ENDBRANCH  28  29
ENDBRANCH  27  28
ENDBRANCH  26  27
ENDBRANCH  25  26
ENDBRANCH  23  25
ENDBRANCH  22  23
ENDBRANCH   1  22
TORSDOF 23
ENDMDL
MODEL 3
REMARK VINA RESULT:      -4.8     10.246     13.187
REMARK  23 active torsions:
REMARK  status: ('A' for Active; 'I' for Inactive)
REMARK    1  A    between atoms: C_7  and  C_4 
REMARK    2  A    between atoms: C_8  and  C_5 
REMARK    3  A    between atoms: C_9  and  C_6 
REMARK    4  A    between atoms: C_10  and  C_7 
REMARK    5  A    between atoms: C_11  and  C_8 
REMARK    6  A    between atoms: C_12  and  C_9 
REMARK    7  A    between atoms: C_13  and  C_10 
REMARK    8  A    between atoms: C_14  and  C_11 
REMARK    9  A    between atoms: C_15  and  C_12 
REMARK   10  A    between atoms: C_16  and  C_13 
REMARK   11  A    between atoms: C_17  and  C_14 
REMARK   12  A    between atoms: C_18  and  C_15 
REMARK   13  A    between atoms: C_22  and  C_16 
REMARK   14  A    between atoms: C_23  and  C_17 
REMARK   15  A    between atoms: C_24  and  C_18 
REMARK   16  A    between atoms: C_21  and  C_19 
REMARK   17  A    between atoms: O_28  and  C_19 
REMARK   18  A    between atoms: C_21  and  C_20 
REMARK   19  A    between atoms: O_29  and  C_20 
REMARK   20  A    between atoms: O_30  and  C_21 
REMARK   21  A    between atoms: O_28  and  C_22 
REMARK   22  A    between atoms: O_29  and  C_23 
REMARK   23  A    between atoms: O_30  and  C_24 
ROOT
HETATM    1  C   UNK N   1      26.952  24.543  -3.438  0.00  0.00     0.180 C 
ENDROOT
BRANCH   1   2
HETATM    2  C   UNK N   1      27.732  25.674  -4.114  0.00  0.00     0.213 C 
BRANCH   2   3
HETATM    3  O   UNK N   1      27.354  26.864  -3.541  0.00  0.00    -0.319 OA
BRANCH   3   4
HETATM    4  C   UNK N   1      26.316  27.632  -3.932  0.00  0.00     0.258 C 
HETATM    5  O   UNK N   1      25.441  27.964  -3.143  0.00  0.00    -0.265 OA
BRANCH   4   6
HETATM    6  C   UNK N   1      26.292  28.074  -5.362  0.00  0.00     0.111 C 
BRANCH   6   7
HETATM    7  C   UNK N   1      27.420  28.990  -5.790  0.00  0.00     0.010 C 
BRANCH   7   8
HETATM    8  C   UNK N   1      27.924  28.455  -7.115  0.00  0.00     0.000 C 
BRANCH   8   9
HETATM    9  C   UNK N   1      27.453  27.039  -7.355  0.00  0.00    -0.000 C 
BRANCH   9  10
HETATM   10  C   UNK N   1      27.528  26.756  -8.841  0.00  0.00    -0.005 C 
HETATM   11  C   UNK N   1      26.211  26.190  -9.323  0.00  0.00     0.005 C 
ENDBRANCH   9  10
ENDBRANCH   8   9
ENDBRANCH   7   8
ENDBRANCH   6   7
ENDBRANCH   4   6
ENDBRANCH   3   4
ENDBRANCH   2   3
ENDBRANCH   1   2
BRANCH   1  12
HETATM   12  C   UNK N   1      27.857  23.788  -2.484  0.00  0.00     0.213 C 
BRANCH  12  13
HETATM   13  O   UNK N   1      29.088  23.583  -3.069  0.00  0.00    -0.319 OA
BRANCH  13  14
HETATM   14  C   UNK N   1      30.012  22.752  -2.536  0.00  0.00     0.258 C 
HETATM   15  O   UNK N   1      30.517  23.004  -1.446  0.00  0.00    -0.265 OA
BRANCH  14  16
HETATM   16  C   UNK N   1      30.421  21.524  -3.300  0.00  0.00     0.111 C 
BRANCH  16  17
HETATM   17  C   UNK N   1      30.875  21.864  -4.710  0.00  0.00     0.010 C 
BRANCH  17  18
HETATM   18  C   UNK N   1      32.080  22.778  -4.693  0.00  0.00     0.000 C 
BRANCH  18  19
HETATM   19  C   UNK N   1      31.992  23.679  -5.906  0.00  0.00    -0.000 C 
BRANCH  19  20
HETATM   20  C   UNK N   1      31.112  24.874  -5.618  0.00  0.00    -0.005 C 
HETATM   21  C   UNK N   1      31.637  25.586  -4.389  0.00  0.00     0.005 C 
ENDBRANCH  19  20
ENDBRANCH  18  19
ENDBRANCH  17  18
ENDBRANCH  16  17
ENDBRANCH  14  16
ENDBRANCH  13  14
ENDBRANCH  12  13
ENDBRANCH   1  12
BRANCH   1  22
HETATM   22  O   UNK N   1      26.407  23.669  -4.365  0.00  0.00    -0.312 OA
BRANCH  22  23
HETATM   23  C   UNK N   1      25.858  24.085  -5.536  0.00  0.00     0.259 C 
HETATM   24  O   UNK N   1      24.940  24.897  -5.535  0.00  0.00    -0.265 OA
BRANCH  23  25
HETATM   25  C   UNK N   1      26.365  23.525  -6.836  0.00  0.00     0.111 C 
BRANCH  25  26
HETATM   26  C   UNK N   1      27.772  22.974  -6.663  0.00  0.00     0.010 C 
BRANCH  26  27
HETATM   27  C   UNK N   1      28.633  23.182  -7.886  0.00  0.00     0.000 C 
BRANCH  27  28
HETATM   28  C   UNK N   1      29.452  21.921  -8.063  0.00  0.00    -0.000 C 
BRANCH  28  29
HETATM   29  C   UNK N   1      28.736  20.723  -7.484  0.00  0.00    -0.005 C 
HETATM   30  C   UNK N   1      29.408  19.464  -7.992  0.00  0.00     0.005 C 
ENDBRANCH  28  29
ENDBRANCH  27  28
ENDBRANCH  26  27
ENDBRANCH  25  26
ENDBRANCH  23  25
ENDBRANCH  22  23
ENDBRANCH   1  22
TORSDOF 23
ENDMDL
MODEL 4
REMARK VINA RESULT:      -4.8      3.318      6.207
REMARK  23 active torsions:
REMARK  status: ('A' for Active; 'I' for Inactive)
REMARK    1  A    between atoms: C_7  and  C_4 
REMARK    2  A    between atoms: C_8  and  C_5 
REMARK    3  A    between atoms: C_9  and  C_6 
REMARK    4  A    between atoms: C_10  and  C_7 
REMARK    5  A    between atoms: C_11  and  C_8 
REMARK    6  A    between atoms: C_12  and  C_9 
REMARK    7  A    between atoms: C_13  and  C_10 
REMARK    8  A    between atoms: C_14  and  C_11 
REMARK    9  A    between atoms: C_15  and  C_12 
REMARK   10  A    between atoms: C_16  and  C_13 
REMARK   11  A    between atoms: C_17  and  C_14 
REMARK   12  A    between atoms: C_18  and  C_15 
REMARK   13  A    between atoms: C_22  and  C_16 
REMARK   14  A    between atoms: C_23  and  C_17 
REMARK   15  A    between atoms: C_24  and  C_18 
REMARK   16  A    between atoms: C_21  and  C_19 
REMARK   17  A    between atoms: O_28  and  C_19 
REMARK   18  A    between atoms: C_21  and  C_20 
REMARK   19  A    between atoms: O_29  and  C_20 
REMARK   20  A    between atoms: O_30  and  C_21 
REMARK   21  A    between atoms: O_28  and  C_22 
REMARK   22  A    between atoms: O_29  and  C_23 
REMARK   23  A    between atoms: O_30  and  C_24 
ROOT
HETATM    1  C   UNK N   1      21.061  17.869   4.425  0.00  0.00     0.180 C 
ENDROOT
BRANCH   1   2
HETATM    2  C   UNK N   1      21.742  17.002   3.362  0.00  0.00     0.213 C 
BRANCH   2   3
HETATM    3  O   UNK N   1      22.294  15.909   3.983  0.00  0.00    -0.319 OA
BRANCH   3   4
HETATM    4  C   UNK N   1      23.612  15.637   4.074  0.00  0.00     0.258 C 
HETATM    5  O   UNK N   1      24.435  16.259   3.415  0.00  0.00    -0.265 OA
BRANCH   4   6
HETATM    6  C   UNK N   1      24.024  14.557   5.025  0.00  0.00     0.111 C 
BRANCH   6   7
HETATM    7  C   UNK N   1      24.063  14.945   6.489  0.00  0.00     0.010 C 
BRANCH   7   8
HETATM    8  C   UNK N   1      25.253  14.224   7.090  0.00  0.00     0.000 C 
BRANCH   8   9
HETATM    9  C   UNK N   1      24.815  13.119   8.024  0.00  0.00    -0.000 C 
BRANCH   9  10
HETATM   10  C   UNK N   1      25.100  13.556   9.446  0.00  0.00    -0.005 C 
HETATM   11  C   UNK N   1      24.789  12.427  10.403  0.00  0.00     0.005 C 
ENDBRANCH   9  10
ENDBRANCH   8   9
ENDBRANCH   7   8
ENDBRANCH   6   7
ENDBRANCH   4   6
ENDBRANCH   3   4
ENDBRANCH   2   3
ENDBRANCH   1   2
BRANCH   1  12
HETATM   12  C   UNK N   1      21.155  19.332   4.039  0.00  0.00     0.213 C 
BRANCH  12  13
HETATM   13  O   UNK N   1      22.062  19.489   3.013  0.00  0.00    -0.319 OA
BRANCH  13  14
HETATM   14  C   UNK N   1      23.147  20.288   3.122  0.00  0.00     0.258 C 
HETATM   15  O   UNK N   1      23.094  21.458   2.754  0.00  0.00    -0.265 OA
BRANCH  14  16
HETATM   16  C   UNK N   1      24.420  19.723   3.688  0.00  0.00     0.111 C 
BRANCH  16  17
HETATM   17  C   UNK N   1      25.628  20.115   2.853  0.00  0.00     0.010 C 
BRANCH  17  18
HETATM   18  C   UNK N   1      26.807  20.473   3.729  0.00  0.00     0.000 C 
BRANCH  18  19
HETATM   19  C   UNK N   1      26.308  20.580   5.154  0.00  0.00    -0.000 C 
BRANCH  19  20
HETATM   20  C   UNK N   1      27.445  20.913   6.093  0.00  0.00    -0.005 C 
HETATM   21  C   UNK N   1      27.802  19.676   6.890  0.00  0.00     0.005 C 
ENDBRANCH  19  20
ENDBRANCH  18  19
ENDBRANCH  17  18
ENDBRANCH  16  17
ENDBRANCH  14  16
ENDBRANCH  13  14
ENDBRANCH  12  13
ENDBRANCH   1  12
BRANCH   1  22
HETATM   22  O   UNK N   1      21.616  17.674   5.680  0.00  0.00    -0.312 OA
BRANCH  22  23
HETATM   23  C   UNK N   1      20.893  17.759   6.827  0.00  0.00     0.259 C 
HETATM   24  O   UNK N   1      20.850  18.809   7.456  0.00  0.00    -0.265 OA
BRANCH  23  25
HETATM   25  C   UNK N   1      20.162  16.547   7.336  0.00  0.00     0.111 C 
BRANCH  25  26
HETATM   26  C   UNK N   1      20.602  16.219   8.755  0.00  0.00     0.010 C 
BRANCH  26  27
HETATM   27  C   UNK N   1      20.241  14.812   9.165  0.00  0.00     0.000 C 
BRANCH  27  28
HETATM   28  C   UNK N   1      20.969  13.881   8.219  0.00  0.00    -0.000 C 
BRANCH  28  29
HETATM   29  C   UNK N   1      21.413  12.623   8.929  0.00  0.00    -0.005 C 
HETATM   30  C   UNK N   1      21.072  12.751  10.399  0.00  0.00     0.005 C 
ENDBRANCH  28  29
ENDBRANCH  27  28
ENDBRANCH  26  27
ENDBRANCH  25  26
ENDBRANCH  23  25
ENDBRANCH  22  23
ENDBRANCH   1  22
TORSDOF 23
ENDMDL
MODEL 5
REMARK VINA RESULT:      -4.8     10.068     14.127
REMARK  23 active torsions:
REMARK  status: ('A' for Active; 'I' for Inactive)
REMARK    1  A    between atoms: C_7  and  C_4 
REMARK    2  A    between atoms: C_8  and  C_5 
REMARK    3  A    between atoms: C_9  and  C_6 
REMARK    4  A    between atoms: C_10  and  C_7 
REMARK    5  A    between atoms: C_11  and  C_8 
REMARK    6  A    between atoms: C_12  and  C_9 
REMARK    7  A    between atoms: C_13  and  C_10 
REMARK    8  A    between atoms: C_14  and  C_11 
REMARK    9  A    between atoms: C_15  and  C_12 
REMARK   10  A    between atoms: C_16  and  C_13 
REMARK   11  A    between atoms: C_17  and  C_14 
REMARK   12  A    between atoms: C_18  and  C_15 
REMARK   13  A    between atoms: C_22  and  C_16 
REMARK   14  A    between atoms: C_23  and  C_17 
REMARK   15  A    between atoms: C_24  and  C_18 
REMARK   16  A    between atoms: C_21  and  C_19 
REMARK   17  A    between atoms: O_28  and  C_19 
REMARK   18  A    between atoms: C_21  and  C_20 
REMARK   19  A    between atoms: O_29  and  C_20 
REMARK   20  A    between atoms: O_30  and  C_21 
REMARK   21  A    between atoms: O_28  and  C_22 
REMARK   22  A    between atoms: O_29  and  C_23 
REMARK   23  A    between atoms: O_30  and  C_24 
ROOT
HETATM    1  C   UNK N   1      35.555  15.471  10.730  0.00  0.00     0.180 C 
ENDROOT
BRANCH   1   2
HETATM    2  C   UNK N   1      36.457  14.692   9.768  0.00  0.00     0.213 C 
BRANCH   2   3
HETATM    3  O   UNK N   1      35.695  13.745   9.131  0.00  0.00    -0.319 OA
BRANCH   3   4
HETATM    4  C   UNK N   1      35.643  13.541   7.798  0.00  0.00     0.258 C 
HETATM    5  O   UNK N   1      36.403  12.755   7.247  0.00  0.00    -0.265 OA
BRANCH   4   6
HETATM    6  C   UNK N   1      34.608  14.302   7.029  0.00  0.00     0.111 C 
BRANCH   6   7
HETATM    7  C   UNK N   1      35.135  15.273   5.993  0.00  0.00     0.010 C 
BRANCH   7   8
HETATM    8  C   UNK N   1      34.312  15.050   4.741  0.00  0.00     0.000 C 
BRANCH   8   9
HETATM    9  C   UNK N   1      32.950  15.697   4.853  0.00  0.00    -0.000 C 
BRANCH   9  10
HETATM   10  C   UNK N   1      32.991  17.025   4.126  0.00  0.00    -0.005 C 
HETATM   11  C   UNK N   1      32.070  16.984   2.927  0.00  0.00     0.005 C 
ENDBRANCH   9  10
ENDBRANCH   8   9
ENDBRANCH   7   8
ENDBRANCH   6   7
ENDBRANCH   4   6
ENDBRANCH   3   4
ENDBRANCH   2   3
ENDBRANCH   1   2
BRANCH   1  12
HETATM   12  C   UNK N   1      35.415  16.906  10.261  0.00  0.00     0.213 C 
BRANCH  12  13
HETATM   13  O   UNK N   1      34.677  16.950   9.099  0.00  0.00    -0.319 OA
BRANCH  13  14
HETATM   14  C   UNK N   1      34.448  18.103   8.430  0.00  0.00     0.258 C 
HETATM   15  O   UNK N   1      35.249  19.030   8.503  0.00  0.00    -0.265 OA
BRANCH  14  16
HETATM   16  C   UNK N   1      33.198  18.239   7.607  0.00  0.00     0.111 C 
BRANCH  16  17
HETATM   17  C   UNK N   1      31.952  17.935   8.423  0.00  0.00     0.010 C 
BRANCH  17  18
HETATM   18  C   UNK N   1      31.150  16.813   7.802  0.00  0.00     0.000 C 
BRANCH  18  19
HETATM   19  C   UNK N   1      29.863  17.407   7.271  0.00  0.00    -0.000 C 
BRANCH  19  20
HETATM   20  C   UNK N   1      29.250  18.344   8.286  0.00  0.00    -0.005 C 
HETATM   21  C   UNK N   1      28.348  17.549   9.207  0.00  0.00     0.005 C 
ENDBRANCH  19  20
ENDBRANCH  18  19
ENDBRANCH  17  18
ENDBRANCH  16  17
ENDBRANCH  14  16
ENDBRANCH  13  14
ENDBRANCH  12  13
ENDBRANCH   1  12
BRANCH   1  22
HETATM   22  O   UNK N   1      36.041  15.442  12.028  0.00  0.00    -0.312 OA
BRANCH  22  23
HETATM   23  C   UNK N   1      35.735  14.453  12.907  0.00  0.00     0.259 C 
HETATM   24  O   UNK N   1      34.762  13.733  12.715  0.00  0.00    -0.265 OA
BRANCH  23  25
HETATM   25  C   UNK N   1      36.582  14.260  14.134  0.00  0.00     0.111 C 
BRANCH  25  26
HETATM   26  C   UNK N   1      36.580  12.799  14.557  0.00  0.00     0.010 C 
BRANCH  26  27
HETATM   27  C   UNK N   1      36.023  12.596  15.945  0.00  0.00     0.000 C 
BRANCH  27  28
HETATM   28  C   UNK N   1      34.518  12.504  15.803  0.00  0.00    -0.000 C 
BRANCH  28  29
HETATM   29  C   UNK N   1      34.115  11.222  15.113  0.00  0.00    -0.005 C 
HETATM   30  C   UNK N   1      34.568  10.052  15.961  0.00  0.00     0.005 C 
ENDBRANCH  28  29
ENDBRANCH  27  28
ENDBRANCH  26  27
ENDBRANCH  25  26
ENDBRANCH  23  25
ENDBRANCH  22  23
ENDBRANCH   1  22
TORSDOF 23
ENDMDL
MODEL 6
REMARK VINA RESULT:      -4.7     10.632     13.389
REMARK  23 active torsions:
REMARK  status: ('A' for Active; 'I' for Inactive)
REMARK    1  A    between atoms: C_7  and  C_4 
REMARK    2  A    between atoms: C_8  and  C_5 
REMARK    3  A    between atoms: C_9  and  C_6 
REMARK    4  A    between atoms: C_10  and  C_7 
REMARK    5  A    between atoms: C_11  and  C_8 
REMARK    6  A    between atoms: C_12  and  C_9 
REMARK    7  A    between atoms: C_13  and  C_10 
REMARK    8  A    between atoms: C_14  and  C_11 
REMARK    9  A    between atoms: C_15  and  C_12 
REMARK   10  A    between atoms: C_16  and  C_13 
REMARK   11  A    between atoms: C_17  and  C_14 
REMARK   12  A    between atoms: C_18  and  C_15 
REMARK   13  A    between atoms: C_22  and  C_16 
REMARK   14  A    between atoms: C_23  and  C_17 
REMARK   15  A    between atoms: C_24  and  C_18 
REMARK   16  A    between atoms: C_21  and  C_19 
REMARK   17  A    between atoms: O_28  and  C_19 
REMARK   18  A    between atoms: C_21  and  C_20 
REMARK   19  A    between atoms: O_29  and  C_20 
REMARK   20  A    between atoms: O_30  and  C_21 
REMARK   21  A    between atoms: O_28  and  C_22 
REMARK   22  A    between atoms: O_29  and  C_23 
REMARK   23  A    between atoms: O_30  and  C_24 
ROOT
HETATM    1  C   UNK N   1      25.799  26.178  -4.547  0.00  0.00     0.180 C 
ENDROOT
BRANCH   1   2
HETATM    2  C   UNK N   1      25.908  25.825  -6.032  0.00  0.00     0.213 C 
BRANCH   2   3
HETATM    3  O   UNK N   1      25.250  24.640  -6.245  0.00  0.00    -0.319 OA
BRANCH   3   4
HETATM    4  C   UNK N   1      25.829  23.462  -6.561  0.00  0.00     0.258 C 
HETATM    5  O   UNK N   1      25.175  22.429  -6.618  0.00  0.00    -0.265 OA
BRANCH   4   6
HETATM    6  C   UNK N   1      27.297  23.478  -6.854  0.00  0.00     0.111 C 
BRANCH   6   7
HETATM    7  C   UNK N   1      27.900  22.156  -7.283  0.00  0.00     0.010 C 
BRANCH   7   8
HETATM    8  C   UNK N   1      29.185  21.998  -6.496  0.00  0.00     0.000 C 
BRANCH   8   9
HETATM    9  C   UNK N   1      29.762  20.610  -6.653  0.00  0.00    -0.000 C 
BRANCH   9  10
HETATM   10  C   UNK N   1      28.981  19.888  -7.731  0.00  0.00    -0.005 C 
HETATM   11  C   UNK N   1      29.710  18.626  -8.136  0.00  0.00     0.005 C 
ENDBRANCH   9  10
ENDBRANCH   8   9
ENDBRANCH   7   8
ENDBRANCH   6   7
ENDBRANCH   4   6
ENDBRANCH   3   4
ENDBRANCH   2   3
ENDBRANCH   1   2
BRANCH   1  12
HETATM   12  C   UNK N   1      25.430  27.640  -4.388  0.00  0.00     0.213 C 
BRANCH  12  13
HETATM   13  O   UNK N   1      25.961  28.134  -3.215  0.00  0.00    -0.319 OA
BRANCH  13  14
HETATM   14  C   UNK N   1      26.737  29.240  -3.181  0.00  0.00     0.258 C 
HETATM   15  O   UNK N   1      27.346  29.538  -2.158  0.00  0.00    -0.265 OA
BRANCH  14  16
HETATM   16  C   UNK N   1      26.834  30.106  -4.406  0.00  0.00     0.111 C 
BRANCH  16  17
HETATM   17  C   UNK N   1      28.259  30.180  -4.930  0.00  0.00     0.010 C 
BRANCH  17  18
HETATM   18  C   UNK N   1      28.759  28.818  -5.354  0.00  0.00     0.000 C 
BRANCH  18  19
HETATM   19  C   UNK N   1      30.239  28.752  -5.040  0.00  0.00    -0.000 C 
BRANCH  19  20
HETATM   20  C   UNK N   1      30.518  29.324  -3.669  0.00  0.00    -0.005 C 
HETATM   21  C   UNK N   1      30.964  28.206  -2.751  0.00  0.00     0.005 C 
ENDBRANCH  19  20
ENDBRANCH  18  19
ENDBRANCH  17  18
ENDBRANCH  16  17
ENDBRANCH  14  16
ENDBRANCH  13  14
ENDBRANCH  12  13
ENDBRANCH   1  12
BRANCH   1  22
HETATM   22  O   UNK N   1      26.976  25.911  -3.866  0.00  0.00    -0.312 OA
BRANCH  22  23
HETATM   23  C   UNK N   1      27.295  24.673  -3.405  0.00  0.00     0.259 C 
HETATM   24  O   UNK N   1      26.449  23.981  -2.853  0.00  0.00    -0.265 OA
BRANCH  23  25
HETATM   25  C   UNK N   1      28.703  24.165  -3.554  0.00  0.00     0.111 C 
BRANCH  25  26
HETATM   26  C   UNK N   1      29.541  25.148  -4.357  0.00  0.00     0.010 C 
BRANCH  26  27
HETATM   27  C   UNK N   1      31.014  24.821  -4.323  0.00  0.00     0.000 C 
BRANCH  27  28
HETATM   28  C   UNK N   1      31.179  23.648  -3.379  0.00  0.00    -0.000 C 
BRANCH  28  29
HETATM   29  C   UNK N   1      32.122  22.617  -3.955  0.00  0.00    -0.005 C 
HETATM   30  C   UNK N   1      32.131  21.406  -3.045  0.00  0.00     0.005 C 
ENDBRANCH  28  29
ENDBRANCH  27  28
ENDBRANCH  26  27
ENDBRANCH  25  26
ENDBRANCH  23  25
ENDBRANCH  22  23
ENDBRANCH   1  22
TORSDOF 23
ENDMDL
MODEL 7
REMARK VINA RESULT:      -4.7     10.863     12.942
REMARK  23 active torsions:
REMARK  status: ('A' for Active; 'I' for Inactive)
REMARK    1  A    between atoms: C_7  and  C_4 
REMARK    2  A    between atoms: C_8  and  C_5 
REMARK    3  A    between atoms: C_9  and  C_6 
REMARK    4  A    between atoms: C_10  and  C_7 
REMARK    5  A    between atoms: C_11  and  C_8 
REMARK    6  A    between atoms: C_12  and  C_9 
REMARK    7  A    between atoms: C_13  and  C_10 
REMARK    8  A    between atoms: C_14  and  C_11 
REMARK    9  A    between atoms: C_15  and  C_12 
REMARK   10  A    between atoms: C_16  and  C_13 
REMARK   11  A    between atoms: C_17  and  C_14 
REMARK   12  A    between atoms: C_18  and  C_15 
REMARK   13  A    between atoms: C_22  and  C_16 
REMARK   14  A    between atoms: C_23  and  C_17 
REMARK   15  A    between atoms: C_24  and  C_18 
REMARK   16  A    between atoms: C_21  and  C_19 
REMARK   17  A    between atoms: O_28  and  C_19 
REMARK   18  A    between atoms: C_21  and  C_20 
REMARK   19  A    between atoms: O_29  and  C_20 
REMARK   20  A    between atoms: O_30  and  C_21 
REMARK   21  A    between atoms: O_28  and  C_22 
REMARK   22  A    between atoms: O_29  and  C_23 
REMARK   23  A    between atoms: O_30  and  C_24 
ROOT
HETATM    1  C   UNK N   1      29.502  25.807  -4.826  0.00  0.00     0.180 C 
ENDROOT
BRANCH   1   2
HETATM    2  C   UNK N   1      30.609  25.452  -3.830  0.00  0.00     0.213 C 
BRANCH   2   3
HETATM    3  O   UNK N   1      30.091  24.595  -2.892  0.00  0.00    -0.319 OA
BRANCH   3   4
HETATM    4  C   UNK N   1      30.502  23.330  -2.668  0.00  0.00     0.258 C 
HETATM    5  O   UNK N   1      30.691  22.917  -1.531  0.00  0.00    -0.265 OA
BRANCH   4   6
HETATM    6  C   UNK N   1      30.699  22.452  -3.864  0.00  0.00     0.111 C 
BRANCH   6   7
HETATM    7  C   UNK N   1      30.641  20.960  -3.606  0.00  0.00     0.010 C 
BRANCH   7   8
HETATM    8  C   UNK N   1      31.465  20.307  -4.698  0.00  0.00     0.000 C 
BRANCH   8   9
HETATM    9  C   UNK N   1      32.832  20.942  -4.814  0.00  0.00    -0.000 C 
BRANCH   9  10
HETATM   10  C   UNK N   1      33.734  20.328  -3.764  0.00  0.00    -0.005 C 
HETATM   11  C   UNK N   1      34.855  19.564  -4.432  0.00  0.00     0.005 C 
ENDBRANCH   9  10
ENDBRANCH   8   9
ENDBRANCH   7   8
ENDBRANCH   6   7
ENDBRANCH   4   6
ENDBRANCH   3   4
ENDBRANCH   2   3
ENDBRANCH   1   2
BRANCH   1  12
HETATM   12  C   UNK N   1      29.198  27.291  -4.757  0.00  0.00     0.213 C 
BRANCH  12  13
HETATM   13  O   UNK N   1      28.573  27.587  -3.565  0.00  0.00    -0.319 OA
BRANCH  13  14
HETATM   14  C   UNK N   1      27.381  28.223  -3.511  0.00  0.00     0.258 C 
HETATM   15  O   UNK N   1      26.915  28.574  -2.431  0.00  0.00    -0.265 OA
BRANCH  14  16
HETATM   16  C   UNK N   1      26.630  28.483  -4.786  0.00  0.00     0.111 C 
BRANCH  16  17
HETATM   17  C   UNK N   1      25.251  27.845  -4.767  0.00  0.00     0.010 C 
BRANCH  17  18
HETATM   18  C   UNK N   1      25.151  26.725  -5.779  0.00  0.00     0.000 C 
BRANCH  18  19
HETATM   19  C   UNK N   1      26.175  26.989  -6.862  0.00  0.00    -0.000 C 
BRANCH  19  20
HETATM   20  C   UNK N   1      25.859  26.181  -8.100  0.00  0.00    -0.005 C 
HETATM   21  C   UNK N   1      27.038  26.254  -9.048  0.00  0.00     0.005 C 
ENDBRANCH  19  20
ENDBRANCH  18  19
ENDBRANCH  17  18
ENDBRANCH  16  17
ENDBRANCH  14  16
ENDBRANCH  13  14
ENDBRANCH  12  13
ENDBRANCH   1  12
BRANCH   1  22
HETATM   22  O   UNK N   1      28.347  25.076  -4.593  0.00  0.00    -0.312 OA
BRANCH  22  23
HETATM   23  C   UNK N   1      27.851  24.179  -5.483  0.00  0.00     0.259 C 
HETATM   24  O   UNK N   1      26.757  23.659  -5.294  0.00  0.00    -0.265 OA
BRANCH  23  25
HETATM   25  C   UNK N   1      28.661  23.807  -6.694  0.00  0.00     0.111 C 
BRANCH  25  26
HETATM   26  C   UNK N   1      28.114  22.538  -7.329  0.00  0.00     0.010 C 
BRANCH  26  27
HETATM   27  C   UNK N   1      29.024  21.349  -7.131  0.00  0.00     0.000 C 
BRANCH  27  28
HETATM   28  C   UNK N   1      28.493  20.241  -8.016  0.00  0.00    -0.000 C 
BRANCH  28  29
HETATM   29  C   UNK N   1      29.160  18.924  -7.696  0.00  0.00    -0.005 C 
HETATM   30  C   UNK N   1      30.422  18.805  -8.524  0.00  0.00     0.005 C 
ENDBRANCH  28  29
ENDBRANCH  27  28
ENDBRANCH  26  27
ENDBRANCH  25  26
ENDBRANCH  23  25
ENDBRANCH  22  23
ENDBRANCH   1  22
TORSDOF 23
ENDMDL
MODEL 8
REMARK VINA RESULT:      -4.7     10.221     13.073
REMARK  23 active torsions:
REMARK  status: ('A' for Active; 'I' for Inactive)
REMARK    1  A    between atoms: C_7  and  C_4 
REMARK    2  A    between atoms: C_8  and  C_5 
REMARK    3  A    between atoms: C_9  and  C_6 
REMARK    4  A    between atoms: C_10  and  C_7 
REMARK    5  A    between atoms: C_11  and  C_8 
REMARK    6  A    between atoms: C_12  and  C_9 
REMARK    7  A    between atoms: C_13  and  C_10 
REMARK    8  A    between atoms: C_14  and  C_11 
REMARK    9  A    between atoms: C_15  and  C_12 
REMARK   10  A    between atoms: C_16  and  C_13 
REMARK   11  A    between atoms: C_17  and  C_14 
REMARK   12  A    between atoms: C_18  and  C_15 
REMARK   13  A    between atoms: C_22  and  C_16 
REMARK   14  A    between atoms: C_23  and  C_17 
REMARK   15  A    between atoms: C_24  and  C_18 
REMARK   16  A    between atoms: C_21  and  C_19 
REMARK   17  A    between atoms: O_28  and  C_19 
REMARK   18  A    between atoms: C_21  and  C_20 
REMARK   19  A    between atoms: O_29  and  C_20 
REMARK   20  A    between atoms: O_30  and  C_21 
REMARK   21  A    between atoms: O_28  and  C_22 
REMARK   22  A    between atoms: O_29  and  C_23 
REMARK   23  A    between atoms: O_30  and  C_24 
ROOT
HETATM    1  C   UNK N   1      27.007  24.713  -3.601  0.00  0.00     0.180 C 
ENDROOT
BRANCH   1   2
HETATM    2  C   UNK N   1      25.986  23.892  -4.393  0.00  0.00     0.213 C 
BRANCH   2   3
HETATM    3  O   UNK N   1      25.788  24.501  -5.607  0.00  0.00    -0.319 OA
BRANCH   3   4
HETATM    4  C   UNK N   1      25.893  23.906  -6.814  0.00  0.00     0.258 C 
HETATM    5  O   UNK N   1      25.349  24.379  -7.803  0.00  0.00    -0.265 OA
BRANCH   4   6
HETATM    6  C   UNK N   1      26.716  22.658  -6.893  0.00  0.00     0.111 C 
BRANCH   6   7
HETATM    7  C   UNK N   1      27.055  22.177  -8.289  0.00  0.00     0.010 C 
BRANCH   7   8
HETATM    8  C   UNK N   1      27.869  20.911  -8.117  0.00  0.00     0.000 C 
BRANCH   8   9
HETATM    9  C   UNK N   1      29.341  21.217  -7.960  0.00  0.00    -0.000 C 
BRANCH   9  10
HETATM   10  C   UNK N   1      30.123  19.948  -8.226  0.00  0.00    -0.005 C 
HETATM   11  C   UNK N   1      29.350  18.752  -7.716  0.00  0.00     0.005 C 
ENDBRANCH   9  10
ENDBRANCH   8   9
ENDBRANCH   7   8
ENDBRANCH   6   7
ENDBRANCH   4   6
ENDBRANCH   3   4
ENDBRANCH   2   3
ENDBRANCH   1   2
BRANCH   1  12
HETATM   12  C   UNK N   1      27.792  23.807  -2.672  0.00  0.00     0.213 C 
BRANCH  12  13
HETATM   13  O   UNK N   1      29.059  23.603  -3.175  0.00  0.00    -0.319 OA
BRANCH  13  14
HETATM   14  C   UNK N   1      30.034  23.004  -2.456  0.00  0.00     0.258 C 
HETATM   15  O   UNK N   1      30.069  23.126  -1.236  0.00  0.00    -0.265 OA
BRANCH  14  16
HETATM   16  C   UNK N   1      31.082  22.197  -3.171  0.00  0.00     0.111 C 
BRANCH  16  17
HETATM   17  C   UNK N   1      30.521  21.518  -4.409  0.00  0.00     0.010 C 
BRANCH  17  18
HETATM   18  C   UNK N   1      31.186  20.181  -4.650  0.00  0.00     0.000 C 
BRANCH  18  19
HETATM   19  C   UNK N   1      32.599  20.448  -5.124  0.00  0.00    -0.000 C 
BRANCH  19  20
HETATM   20  C   UNK N   1      33.602  19.807  -4.192  0.00  0.00    -0.005 C 
HETATM   21  C   UNK N   1      34.704  20.802  -3.897  0.00  0.00     0.005 C 
ENDBRANCH  19  20
ENDBRANCH  18  19
ENDBRANCH  17  18
ENDBRANCH  16  17
ENDBRANCH  14  16
ENDBRANCH  13  14
ENDBRANCH  12  13
ENDBRANCH   1  12
BRANCH   1  22
HETATM   22  O   UNK N   1      26.401  25.725  -2.874  0.00  0.00    -0.312 OA
BRANCH  22  23
HETATM   23  C   UNK N   1      26.411  27.024  -3.270  0.00  0.00     0.259 C 
HETATM   24  O   UNK N   1      25.505  27.780  -2.940  0.00  0.00    -0.265 OA
BRANCH  23  25
HETATM   25  C   UNK N   1      27.531  27.527  -4.139  0.00  0.00     0.111 C 
BRANCH  25  26
HETATM   26  C   UNK N   1      27.116  28.805  -4.852  0.00  0.00     0.010 C 
BRANCH  26  27
HETATM   27  C   UNK N   1      27.557  28.836  -6.296  0.00  0.00     0.000 C 
BRANCH  27  28
HETATM   28  C   UNK N   1      27.243  27.474  -6.877  0.00  0.00    -0.000 C 
BRANCH  28  29
HETATM   29  C   UNK N   1      27.897  27.296  -8.227  0.00  0.00    -0.005 C 
HETATM   30  C   UNK N   1      28.940  28.379  -8.407  0.00  0.00     0.005 C 
ENDBRANCH  28  29
ENDBRANCH  27  28
ENDBRANCH  26  27
ENDBRANCH  25  26
ENDBRANCH  23  25
ENDBRANCH  22  23
ENDBRANCH   1  22
TORSDOF 23
ENDMDL
MODEL 9
REMARK VINA RESULT:      -4.7      3.097      4.968
REMARK  23 active torsions:
REMARK  status: ('A' for Active; 'I' for Inactive)
REMARK    1  A    between atoms: C_7  and  C_4 
REMARK    2  A    between atoms: C_8  and  C_5 
REMARK    3  A    between atoms: C_9  and  C_6 
REMARK    4  A    between atoms: C_10  and  C_7 
REMARK    5  A    between atoms: C_11  and  C_8 
REMARK    6  A    between atoms: C_12  and  C_9 
REMARK    7  A    between atoms: C_13  and  C_10 
REMARK    8  A    between atoms: C_14  and  C_11 
REMARK    9  A    between atoms: C_15  and  C_12 
REMARK   10  A    between atoms: C_16  and  C_13 
REMARK   11  A    between atoms: C_17  and  C_14 
REMARK   12  A    between atoms: C_18  and  C_15 
REMARK   13  A    between atoms: C_22  and  C_16 
REMARK   14  A    between atoms: C_23  and  C_17 
REMARK   15  A    between atoms: C_24  and  C_18 
REMARK   16  A    between atoms: C_21  and  C_19 
REMARK   17  A    between atoms: O_28  and  C_19 
REMARK   18  A    between atoms: C_21  and  C_20 
REMARK   19  A    between atoms: O_29  and  C_20 
REMARK   20  A    between atoms: O_30  and  C_21 
REMARK   21  A    between atoms: O_28  and  C_22 
REMARK   22  A    between atoms: O_29  and  C_23 
REMARK   23  A    between atoms: O_30  and  C_24 
ROOT
HETATM    1  C   UNK N   1      21.849  17.578   5.036  0.00  0.00     0.180 C 
ENDROOT
BRANCH   1   2
HETATM    2  C   UNK N   1      21.773  18.768   4.075  0.00  0.00     0.213 C 
BRANCH   2   3
HETATM    3  O   UNK N   1      23.050  19.201   3.819  0.00  0.00    -0.319 OA
BRANCH   3   4
HETATM    4  C   UNK N   1      23.381  20.306   3.119  0.00  0.00     0.258 C 
HETATM    5  O   UNK N   1      22.532  21.117   2.774  0.00  0.00    -0.265 OA
BRANCH   4   6
HETATM    6  C   UNK N   1      24.831  20.503   2.798  0.00  0.00     0.111 C 
BRANCH   6   7
HETATM    7  C   UNK N   1      25.775  19.445   3.329  0.00  0.00     0.010 C 
BRANCH   7   8
HETATM    8  C   UNK N   1      27.079  20.153   3.637  0.00  0.00     0.000 C 
BRANCH   8   9
HETATM    9  C   UNK N   1      27.422  20.066   5.107  0.00  0.00    -0.000 C 
BRANCH   9  10
HETATM   10  C   UNK N   1      27.059  21.384   5.759  0.00  0.00    -0.005 C 
HETATM   11  C   UNK N   1      26.381  21.130   7.087  0.00  0.00     0.005 C 
ENDBRANCH   9  10
ENDBRANCH   8   9
ENDBRANCH   7   8
ENDBRANCH   6   7
ENDBRANCH   4   6
ENDBRANCH   3   4
ENDBRANCH   2   3
ENDBRANCH   1   2
BRANCH   1  12
HETATM   12  C   UNK N   1      21.294  17.971   6.391  0.00  0.00     0.213 C 
BRANCH  12  13
HETATM   13  O   UNK N   1      20.674  16.887   6.976  0.00  0.00    -0.319 OA
BRANCH  13  14
HETATM   14  C   UNK N   1      20.246  16.904   8.258  0.00  0.00     0.258 C 
HETATM   15  O   UNK N   1      20.125  17.968   8.857  0.00  0.00    -0.265 OA
BRANCH  14  16
HETATM   16  C   UNK N   1      19.934  15.604   8.944  0.00  0.00     0.111 C 
BRANCH  16  17
HETATM   17  C   UNK N   1      21.163  14.717   9.054  0.00  0.00     0.010 C 
BRANCH  17  18
HETATM   18  C   UNK N   1      20.936  13.582  10.028  0.00  0.00     0.000 C 
BRANCH  18  19
HETATM   19  C   UNK N   1      22.284  12.979  10.358  0.00  0.00    -0.000 C 
BRANCH  19  20
HETATM   20  C   UNK N   1      23.165  12.943   9.129  0.00  0.00    -0.005 C 
HETATM   21  C   UNK N   1      24.615  12.985   9.563  0.00  0.00     0.005 C 
ENDBRANCH  19  20
ENDBRANCH  18  19
ENDBRANCH  17  18
ENDBRANCH  16  17
ENDBRANCH  14  16
ENDBRANCH  13  14
ENDBRANCH  12  13
ENDBRANCH   1  12
BRANCH   1  22
HETATM   22  O   UNK N   1      23.147  17.111   5.173  0.00  0.00    -0.312 OA
BRANCH  22  23
HETATM   23  C   UNK N   1      23.444  15.792   5.299  0.00  0.00     0.259 C 
HETATM   24  O   UNK N   1      23.137  15.000   4.416  0.00  0.00    -0.265 OA
BRANCH  23  25
HETATM   25  C   UNK N   1      24.134  15.300   6.542  0.00  0.00     0.111 C 
BRANCH  25  26
HETATM   26  C   UNK N   1      25.523  14.779   6.208  0.00  0.00     0.010 C 
BRANCH  26  27
HETATM   27  C   UNK N   1      26.384  15.814   5.524  0.00  0.00     0.000 C 
BRANCH  27  28
HETATM   28  C   UNK N   1      26.961  15.155   4.289  0.00  0.00    -0.000 C 
BRANCH  28  29
HETATM   29  C   UNK N   1      27.248  16.177   3.213  0.00  0.00    -0.005 C 
HETATM   30  C   UNK N   1      28.631  16.749   3.444  0.00  0.00     0.005 C 
ENDBRANCH  28  29
ENDBRANCH  27  28
ENDBRANCH  26  27
ENDBRANCH  25  26
ENDBRANCH  23  25
ENDBRANCH  22  23
ENDBRANCH   1  22
TORSDOF 23
ENDMDL
