MODEL 1
REMARK VINA RESULT:      -6.9      0.000      0.000
REMARK WARNING: 32 MAX_TORS EXCEEDED!!!
REMARK  48 active torsions:
REMARK  status: ('A' for Active; 'I' for Inactive)
REMARK    1  A    between atoms: C_2  and  C_3 
REMARK    2  A    between atoms: C_3  and  C_4 
REMARK    3  A    between atoms: C_4  and  C_5 
REMARK    4  A    between atoms: C_5  and  C_6 
REMARK    5  A    between atoms: C_6  and  C_7 
REMARK    6  A    between atoms: C_7  and  C_8 
REMARK    7  A    between atoms: C_8  and  C_9 
REMARK    8  A    between atoms: C_9  and  C_10 
REMARK    9  A    between atoms: C_10  and  C_11 
REMARK   10  A    between atoms: C_11  and  C_12 
REMARK   11  A    between atoms: C_12  and  C_13 
REMARK   12  A    between atoms: C_13  and  C_14 
REMARK   13  A    between atoms: C_14  and  C_15 
REMARK   14  A    between atoms: C_15  and  C_16 
REMARK       I    between atoms: C_16  and  N_18 
REMARK   15  A    between atoms: C_19  and  N_18 
REMARK   16  A    between atoms: C_19  and  C_20 
REMARK   17  A    between atoms: C_19  and  C_25 
REMARK   18  A    between atoms: C_20  and  C_21 
REMARK   19  A    between atoms: C_21  and  C_22 
REMARK   20  A    between atoms: C_22  and  C_23 
REMARK   21  A    between atoms: C_23  and  N_24 
REMARK       I    between atoms: C_25  and  N_27 
REMARK   22  A    between atoms: C_28  and  N_27 
REMARK   23  A    between atoms: C_28  and  C_29 
REMARK   24  A    between atoms: C_28  and  C_34 
REMARK   25  A    between atoms: C_29  and  C_30 
REMARK   26  A    between atoms: C_30  and  C_31 
REMARK   27  A    between atoms: C_31  and  C_32 
REMARK   28  A    between atoms: C_32  and  N_33 
REMARK       I    between atoms: C_34  and  N_36 
REMARK   29  A    between atoms: C_37  and  N_36 
REMARK   30  A    between atoms: C_37  and  C_38 
REMARK   31  A    between atoms: C_37  and  C_40 
REMARK   32  A    between atoms: C_38  and  O_39 
REMARK       I    between atoms: C_40  and  N_42 
REMARK   33  A    between atoms: C_43  and  N_42 
REMARK   34  A    between atoms: C_43  and  C_44 
REMARK   35  A    between atoms: C_43  and  C_52 
REMARK   36  A    between atoms: C_44  and  C_45 
REMARK   37  A    between atoms: C_45  and  C_46 
REMARK   38  A    between atoms: C_46  and  N_47 
REMARK       I    between atoms: N_47  and  C_48 
REMARK       I    between atoms: C_48  and  N_51 
REMARK       I    between atoms: C_52  and  N_54 
REMARK   39  A    between atoms: N_54  and  C_55 
REMARK   40  A    between atoms: C_55  and  C_57 
REMARK       I    between atoms: C_57  and  N_59 
REMARK   41  A    between atoms: C_60  and  N_59 
REMARK   42  A    between atoms: C_60  and  C_61 
REMARK   43  A    between atoms: C_60  and  C_65 
REMARK   44  A    between atoms: C_61  and  C_62 
REMARK       I    between atoms: C_65  and  N_67 
REMARK   45  A    between atoms: C_68  and  N_67 
REMARK   46  A    between atoms: C_68  and  C_69 
REMARK   47  A    between atoms: C_68  and  C_76 
REMARK   48  A    between atoms: C_69  and  C_70 
REMARK       I    between atoms: C_76  and  N_78 
ROOT
HETATM    1  C   UNK N   1      27.626  17.131   4.397  0.00  0.00     0.243 C 
HETATM    2  O   UNK N   1      27.806  18.316   4.180  0.00  0.00    -0.271 OA
HETATM    3  N   UNK N   1      27.086  16.367   3.407  0.00  0.00    -0.346 N 
HETATM    4  H   UNK N   1      26.875  16.821   2.559  0.00  0.00     0.163 HD
ENDROOT
BRANCH   1   5
HETATM    5  C   UNK N   1      27.959  16.561   5.766  0.00  0.00     0.200 C 
BRANCH   5   6
HETATM    6  N   UNK N   1      28.926  15.482   5.752  0.00  0.00    -0.344 N 
HETATM    7  C   UNK N   1      30.207  15.574   6.186  0.00  0.00     0.241 C 
HETATM    8  O   UNK N   1      30.875  14.556   6.251  0.00  0.00    -0.271 OA
HETATM    9  H   UNK N   1      28.630  14.612   5.399  0.00  0.00     0.163 HD
BRANCH   7  10
HETATM   10  C   UNK N   1      30.801  16.887   6.640  0.00  0.00     0.176 C 
BRANCH  10  11
HETATM   11  N   UNK N   1      32.035  17.318   5.971  0.00  0.00    -0.346 N 
HETATM   12  C   UNK N   1      33.345  17.131   6.309  0.00  0.00     0.241 C 
HETATM   13  O   UNK N   1      34.210  17.573   5.569  0.00  0.00    -0.271 OA
HETATM   14  H   UNK N   1      31.894  17.827   5.140  0.00  0.00     0.163 HD
BRANCH  12  15
HETATM   15  C   UNK N   1      33.764  16.357   7.528  0.00  0.00     0.176 C 
BRANCH  15  16
HETATM   16  N   UNK N   1      34.522  17.146   8.483  0.00  0.00    -0.348 N 
HETATM   17  C   UNK N   1      34.823  16.799   9.761  0.00  0.00     0.218 C 
HETATM   18  O   UNK N   1      35.573  17.515  10.404  0.00  0.00    -0.274 OA
HETATM   19  H   UNK N   1      34.850  18.021   8.172  0.00  0.00     0.163 HD
BRANCH  17  20
HETATM   20  C   UNK N   1      34.279  15.554  10.403  0.00  0.00     0.103 C 
BRANCH  20  21
HETATM   21  C   UNK N   1      35.384  14.626  10.904  0.00  0.00     0.009 C 
BRANCH  21  22
HETATM   22  C   UNK N   1      35.096  14.055  12.287  0.00  0.00     0.000 C 
BRANCH  22  23
HETATM   23  C   UNK N   1      36.232  14.315  13.270  0.00  0.00     0.000 C 
BRANCH  23  24
HETATM   24  C   UNK N   1      36.404  13.178  14.268  0.00  0.00     0.000 C 
BRANCH  24  25
HETATM   25  C   UNK N   1      35.143  12.992  15.095  0.00  0.00     0.000 C 
BRANCH  25  26
HETATM   26  C   UNK N   1      34.866  11.519  15.309  0.00  0.00     0.000 C 
BRANCH  26  27
HETATM   27  C   UNK N   1      33.616  11.112  14.545  0.00  0.00     0.000 C 
BRANCH  27  28
HETATM   28  C   UNK N   1      33.972  10.350  13.277  0.00  0.00     0.000 C 
BRANCH  28  29
HETATM   29  C   UNK N   1      35.169   9.441  13.506  0.00  0.00     0.000 C 
BRANCH  29  30
HETATM   30  C   UNK N   1      35.964   9.291  12.218  0.00  0.00     0.000 C 
BRANCH  30  31
HETATM   31  C   UNK N   1      36.011  10.612  11.473  0.00  0.00     0.000 C 
BRANCH  31  32
HETATM   32  C   UNK N   1      37.429  11.160  11.438  0.00  0.00    -0.000 C 
BRANCH  32  33
HETATM   33  C   UNK N   1      37.684  11.892  10.133  0.00  0.00    -0.005 C 
HETATM   34  C   UNK N   1      38.659  13.033  10.340  0.00  0.00     0.005 C 
ENDBRANCH  32  33
ENDBRANCH  31  32
ENDBRANCH  30  31
ENDBRANCH  29  30
ENDBRANCH  28  29
ENDBRANCH  27  28
ENDBRANCH  26  27
ENDBRANCH  25  26
ENDBRANCH  24  25
ENDBRANCH  23  24
ENDBRANCH  22  23
ENDBRANCH  21  22
ENDBRANCH  20  21
ENDBRANCH  17  20
ENDBRANCH  15  16
BRANCH  15  35
HETATM   35  C   UNK N   1      34.609  15.155   7.122  0.00  0.00     0.035 C 
BRANCH  35  36
HETATM   36  C   UNK N   1      33.814  13.855   7.184  0.00  0.00     0.004 C 
BRANCH  36  37
HETATM   37  C   UNK N   1      34.580  12.750   7.888  0.00  0.00     0.019 C 
BRANCH  37  38
HETATM   38  C   UNK N   1      33.650  11.988   8.813  0.00  0.00     0.111 C 
BRANCH  38  39
HETATM   39  N   UNK N   1      32.474  12.787   9.102  0.00  0.00    -0.430 N 
HETATM   40  H   UNK N   1      31.965  12.654   9.977  0.00  0.00     0.149 HD
HETATM   41  H   UNK N   1      32.155  13.484   8.429  0.00  0.00     0.149 HD
ENDBRANCH  38  39
ENDBRANCH  37  38
ENDBRANCH  36  37
ENDBRANCH  35  36
ENDBRANCH  15  35
ENDBRANCH  12  15
ENDBRANCH  10  11
BRANCH  10  42
HETATM   42  C   UNK N   1      31.024  16.856   8.143  0.00  0.00     0.035 C 
BRANCH  42  43
HETATM   43  C   UNK N   1      30.430  18.101   8.785  0.00  0.00     0.004 C 
BRANCH  43  44
HETATM   44  C   UNK N   1      29.421  17.721   9.858  0.00  0.00     0.019 C 
BRANCH  44  45
HETATM   45  C   UNK N   1      28.001  17.692   9.302  0.00  0.00     0.111 C 
BRANCH  45  46
HETATM   46  N   UNK N   1      27.720  18.913   8.566  0.00  0.00    -0.430 N 
HETATM   47  H   UNK N   1      27.314  19.702   8.064  0.00  0.00     0.149 HD
HETATM   48  H   UNK N   1      28.688  19.226   8.499  0.00  0.00     0.149 HD
ENDBRANCH  45  46
ENDBRANCH  44  45
ENDBRANCH  43  44
ENDBRANCH  42  43
ENDBRANCH  10  42
ENDBRANCH   7  10
ENDBRANCH   5   6
BRANCH   5  49
HETATM   49  C   UNK N   1      26.712  16.059   6.480  0.00  0.00     0.199 C 
BRANCH  49  50
HETATM   50  O   UNK N   1      25.594  16.813   6.122  0.00  0.00    -0.398 OA
HETATM   51  H   UNK N   1      25.618  17.546   5.488  0.00  0.00     0.209 HD
ENDBRANCH  49  50
ENDBRANCH   5  49
ENDBRANCH   1   5
BRANCH   3  52
HETATM   52  C   UNK N   1      26.790  14.946   3.484  0.00  0.00     0.176 C 
BRANCH  52  53
HETATM   53  C   UNK N   1      27.763  14.116   2.658  0.00  0.00     0.036 C 
BRANCH  53  54
HETATM   54  C   UNK N   1      29.022  14.875   2.309  0.00  0.00     0.023 C 
BRANCH  54  55
HETATM   55  C   UNK N   1      30.196  14.053   2.797  0.00  0.00     0.138 C 
BRANCH  55  56
HETATM   56  N   UNK N   1      31.362  14.891   2.920  0.00  0.00    -0.227 N 
HETATM   57  C   UNK N   1      32.579  14.388   3.447  0.00  0.00     0.665 C 
HETATM   58  N   UNK N   1      32.643  13.198   3.918  0.00  0.00    -0.235 N 
HETATM   59  N   UNK N   1      33.724  15.211   3.475  0.00  0.00    -0.235 N 
HETATM   60  H   UNK N   1      33.344  12.858   4.521  0.00  0.00     0.174 HD
ATOM     61  HN  UNK N   1      31.906  12.547   3.646  1.00  0.00     0.174 HD
HETATM   62  H   UNK N   1      33.686  16.172   3.267  0.00  0.00     0.174 HD
HETATM   63  H   UNK N   1      34.592  14.810   3.712  0.00  0.00     0.174 HD
HETATM   64  H   UNK N   1      31.312  15.832   2.633  0.00  0.00     0.177 HD
ENDBRANCH  55  56
ENDBRANCH  54  55
ENDBRANCH  53  54
ENDBRANCH  52  53
BRANCH  52  65
HETATM   65  C   UNK N   1      25.299  14.679   3.323  0.00  0.00     0.241 C 
HETATM   66  O   UNK N   1      24.726  15.224   2.396  0.00  0.00    -0.271 OA
HETATM   67  N   UNK N   1      24.565  13.875   4.146  0.00  0.00    -0.346 N 
HETATM   68  H   UNK N   1      23.611  13.775   3.926  0.00  0.00     0.163 HD
BRANCH  67  69
HETATM   69  C   UNK N   1      25.037  13.152   5.307  0.00  0.00     0.172 C 
HETATM   70  C   UNK N   1      25.619  11.832   4.834  0.00  0.00     0.042 C 
BRANCH  69  71
HETATM   71  C   UNK N   1      23.926  12.864   6.285  0.00  0.00     0.240 C 
HETATM   72  O   UNK N   1      23.275  11.837   6.164  0.00  0.00    -0.271 OA
HETATM   73  N   UNK N   1      23.614  13.761   7.252  0.00  0.00    -0.346 N 
HETATM   74  H   UNK N   1      24.219  14.516   7.434  0.00  0.00     0.163 HD
BRANCH  73  75
HETATM   75  C   UNK N   1      22.402  13.615   8.013  0.00  0.00     0.177 C 
BRANCH  75  76
HETATM   76  C   UNK N   1      22.640  13.699   9.521  0.00  0.00     0.038 C 
BRANCH  76  77
HETATM   77  C   UNK N   1      22.946  12.321  10.122  0.00  0.00    -0.020 C 
HETATM   78  C   UNK N   1      24.410  12.247  10.499  0.00  0.00     0.009 C 
HETATM   79  C   UNK N   1      22.113  11.997  11.352  0.00  0.00     0.009 C 
ENDBRANCH  76  77
ENDBRANCH  75  76
BRANCH  75  80
HETATM   80  C   UNK N   1      21.452  14.647   7.494  0.00  0.00     0.241 C 
HETATM   81  O   UNK N   1      20.309  14.301   7.230  0.00  0.00    -0.271 OA
HETATM   82  N   UNK N   1      21.846  15.934   7.292  0.00  0.00    -0.346 N 
HETATM   83  H   UNK N   1      22.769  16.186   7.523  0.00  0.00     0.163 HD
BRANCH  82  84
HETATM   84  C   UNK N   1      20.963  16.951   6.751  0.00  0.00     0.180 C 
BRANCH  84  85
HETATM   85  C   UNK N   1      21.772  17.918   5.884  0.00  0.00     0.073 C 
BRANCH  85  86
HETATM   86  C   UNK N   1      21.207  18.094   4.525  0.00  0.00    -0.056 A 
HETATM   87  C   UNK N   1      20.899  16.975   3.744  0.00  0.00     0.007 A 
HETATM   88  C   UNK N   1      20.413  17.145   2.446  0.00  0.00     0.001 A 
HETATM   89  C   UNK N   1      20.237  18.432   1.929  0.00  0.00     0.000 A 
HETATM   90  C   UNK N   1      20.549  19.550   2.710  0.00  0.00     0.001 A 
HETATM   91  C   UNK N   1      21.040  19.380   4.005  0.00  0.00     0.007 A 
ENDBRANCH  85  86
ENDBRANCH  84  85
BRANCH  84  92
HETATM   92  C   UNK N   1      20.204  17.679   7.841  0.00  0.00     0.238 C 
HETATM   93  O   UNK N   1      20.427  18.862   8.049  0.00  0.00    -0.271 OA
HETATM   94  N   UNK N   1      19.264  17.046   8.574  0.00  0.00    -0.368 N 
HETATM   95  H   UNK N   1      18.833  16.220   8.253  0.00  0.00     0.159 HD
HETATM   96  H   UNK N   1      19.003  17.416   9.448  0.00  0.00     0.159 HD
ENDBRANCH  84  92
ENDBRANCH  82  84
ENDBRANCH  75  80
ENDBRANCH  73  75
ENDBRANCH  69  71
ENDBRANCH  67  69
ENDBRANCH  52  65
ENDBRANCH   3  52
TORSDOF 48
ENDMDL
MODEL 2
REMARK VINA RESULT:      -6.6      4.862     10.818
REMARK WARNING: 32 MAX_TORS EXCEEDED!!!
REMARK  48 active torsions:
REMARK  status: ('A' for Active; 'I' for Inactive)
REMARK    1  A    between atoms: C_2  and  C_3 
REMARK    2  A    between atoms: C_3  and  C_4 
REMARK    3  A    between atoms: C_4  and  C_5 
REMARK    4  A    between atoms: C_5  and  C_6 
REMARK    5  A    between atoms: C_6  and  C_7 
REMARK    6  A    between atoms: C_7  and  C_8 
REMARK    7  A    between atoms: C_8  and  C_9 
REMARK    8  A    between atoms: C_9  and  C_10 
REMARK    9  A    between atoms: C_10  and  C_11 
REMARK   10  A    between atoms: C_11  and  C_12 
REMARK   11  A    between atoms: C_12  and  C_13 
REMARK   12  A    between atoms: C_13  and  C_14 
REMARK   13  A    between atoms: C_14  and  C_15 
REMARK   14  A    between atoms: C_15  and  C_16 
REMARK       I    between atoms: C_16  and  N_18 
REMARK   15  A    between atoms: C_19  and  N_18 
REMARK   16  A    between atoms: C_19  and  C_20 
REMARK   17  A    between atoms: C_19  and  C_25 
REMARK   18  A    between atoms: C_20  and  C_21 
REMARK   19  A    between atoms: C_21  and  C_22 
REMARK   20  A    between atoms: C_22  and  C_23 
REMARK   21  A    between atoms: C_23  and  N_24 
REMARK       I    between atoms: C_25  and  N_27 
REMARK   22  A    between atoms: C_28  and  N_27 
REMARK   23  A    between atoms: C_28  and  C_29 
REMARK   24  A    between atoms: C_28  and  C_34 
REMARK   25  A    between atoms: C_29  and  C_30 
REMARK   26  A    between atoms: C_30  and  C_31 
REMARK   27  A    between atoms: C_31  and  C_32 
REMARK   28  A    between atoms: C_32  and  N_33 
REMARK       I    between atoms: C_34  and  N_36 
REMARK   29  A    between atoms: C_37  and  N_36 
REMARK   30  A    between atoms: C_37  and  C_38 
REMARK   31  A    between atoms: C_37  and  C_40 
REMARK   32  A    between atoms: C_38  and  O_39 
REMARK       I    between atoms: C_40  and  N_42 
REMARK   33  A    between atoms: C_43  and  N_42 
REMARK   34  A    between atoms: C_43  and  C_44 
REMARK   35  A    between atoms: C_43  and  C_52 
REMARK   36  A    between atoms: C_44  and  C_45 
REMARK   37  A    between atoms: C_45  and  C_46 
REMARK   38  A    between atoms: C_46  and  N_47 
REMARK       I    between atoms: N_47  and  C_48 
REMARK       I    between atoms: C_48  and  N_51 
REMARK       I    between atoms: C_52  and  N_54 
REMARK   39  A    between atoms: N_54  and  C_55 
REMARK   40  A    between atoms: C_55  and  C_57 
REMARK       I    between atoms: C_57  and  N_59 
REMARK   41  A    between atoms: C_60  and  N_59 
REMARK   42  A    between atoms: C_60  and  C_61 
REMARK   43  A    between atoms: C_60  and  C_65 
REMARK   44  A    between atoms: C_61  and  C_62 
REMARK       I    between atoms: C_65  and  N_67 
REMARK   45  A    between atoms: C_68  and  N_67 
REMARK   46  A    between atoms: C_68  and  C_69 
REMARK   47  A    between atoms: C_68  and  C_76 
REMARK   48  A    between atoms: C_69  and  C_70 
REMARK       I    between atoms: C_76  and  N_78 
ROOT
HETATM    1  C   UNK N   1      23.265  14.637   4.774  0.00  0.00     0.243 C 
HETATM    2  O   UNK N   1      23.367  15.239   3.720  0.00  0.00    -0.271 OA
HETATM    3  N   UNK N   1      22.981  13.306   4.734  0.00  0.00    -0.346 N 
HETATM    4  H   UNK N   1      22.880  12.899   3.843  0.00  0.00     0.163 HD
ENDROOT
BRANCH   1   5
HETATM    5  C   UNK N   1      23.405  15.394   6.085  0.00  0.00     0.200 C 
BRANCH   5   6
HETATM    6  N   UNK N   1      22.797  16.708   6.091  0.00  0.00    -0.344 N 
HETATM    7  C   UNK N   1      21.612  17.020   6.669  0.00  0.00     0.241 C 
HETATM    8  O   UNK N   1      21.280  18.192   6.725  0.00  0.00    -0.271 OA
HETATM    9  H   UNK N   1      23.285  17.435   5.639  0.00  0.00     0.163 HD
BRANCH   7  10
HETATM   10  C   UNK N   1      20.727  15.964   7.289  0.00  0.00     0.176 C 
BRANCH  10  11
HETATM   11  N   UNK N   1      19.351  15.878   6.785  0.00  0.00    -0.346 N 
HETATM   12  C   UNK N   1      18.864  15.910   5.509  0.00  0.00     0.241 C 
HETATM   13  O   UNK N   1      17.660  15.797   5.338  0.00  0.00    -0.271 OA
HETATM   14  H   UNK N   1      18.664  15.780   7.483  0.00  0.00     0.163 HD
BRANCH  12  15
HETATM   15  C   UNK N   1      19.757  16.027   4.305  0.00  0.00     0.176 C 
BRANCH  15  16
HETATM   16  N   UNK N   1      19.425  17.150   3.445  0.00  0.00    -0.348 N 
HETATM   17  C   UNK N   1      20.301  18.015   2.870  0.00  0.00     0.218 C 
HETATM   18  O   UNK N   1      19.880  18.836   2.073  0.00  0.00    -0.274 OA
HETATM   19  H   UNK N   1      18.470  17.299   3.261  0.00  0.00     0.163 HD
BRANCH  17  20
HETATM   20  C   UNK N   1      21.773  17.980   3.169  0.00  0.00     0.103 C 
BRANCH  20  21
HETATM   21  C   UNK N   1      22.340  19.366   3.474  0.00  0.00     0.009 C 
BRANCH  21  22
HETATM   22  C   UNK N   1      23.819  19.336   3.835  0.00  0.00     0.000 C 
BRANCH  22  23
HETATM   23  C   UNK N   1      24.622  20.394   3.087  0.00  0.00     0.000 C 
BRANCH  23  24
HETATM   24  C   UNK N   1      26.104  20.347   3.433  0.00  0.00     0.000 C 
BRANCH  24  25
HETATM   25  C   UNK N   1      26.313  20.519   4.928  0.00  0.00     0.000 C 
BRANCH  25  26
HETATM   26  C   UNK N   1      27.612  19.868   5.356  0.00  0.00     0.000 C 
BRANCH  26  27
HETATM   27  C   UNK N   1      27.690  19.820   6.874  0.00  0.00     0.000 C 
BRANCH  27  28
HETATM   28  C   UNK N   1      28.323  18.521   7.348  0.00  0.00     0.000 C 
BRANCH  28  29
HETATM   29  C   UNK N   1      28.199  18.373   8.856  0.00  0.00     0.000 C 
BRANCH  29  30
HETATM   30  C   UNK N   1      29.560  18.551   9.511  0.00  0.00     0.000 C 
BRANCH  30  31
HETATM   31  C   UNK N   1      30.664  18.184   8.537  0.00  0.00     0.000 C 
BRANCH  31  32
HETATM   32  C   UNK N   1      31.097  16.740   8.734  0.00  0.00    -0.000 C 
BRANCH  32  33
HETATM   33  C   UNK N   1      31.283  16.053   7.393  0.00  0.00    -0.005 C 
HETATM   34  C   UNK N   1      31.610  17.065   6.313  0.00  0.00     0.005 C 
ENDBRANCH  32  33
ENDBRANCH  31  32
ENDBRANCH  30  31
ENDBRANCH  29  30
ENDBRANCH  28  29
ENDBRANCH  27  28
ENDBRANCH  26  27
ENDBRANCH  25  26
ENDBRANCH  24  25
ENDBRANCH  23  24
ENDBRANCH  22  23
ENDBRANCH  21  22
ENDBRANCH  20  21
ENDBRANCH  17  20
ENDBRANCH  15  16
BRANCH  15  35
HETATM   35  C   UNK N   1      19.688  14.751   3.474  0.00  0.00     0.035 C 
BRANCH  35  36
HETATM   36  C   UNK N   1      19.615  13.506   4.353  0.00  0.00     0.004 C 
BRANCH  36  37
HETATM   37  C   UNK N   1      19.136  12.290   3.580  0.00  0.00     0.019 C 
BRANCH  37  38
HETATM   38  C   UNK N   1      19.945  11.072   3.984  0.00  0.00     0.111 C 
BRANCH  38  39
HETATM   39  N   UNK N   1      19.228  10.315   4.994  0.00  0.00    -0.430 N 
HETATM   40  H   UNK N   1      18.522  10.772   5.572  0.00  0.00     0.149 HD
HETATM   41  H   UNK N   1      19.430   9.325   5.127  0.00  0.00     0.149 HD
ENDBRANCH  38  39
ENDBRANCH  37  38
ENDBRANCH  36  37
ENDBRANCH  35  36
ENDBRANCH  15  35
ENDBRANCH  12  15
ENDBRANCH  10  11
BRANCH  10  42
HETATM   42  C   UNK N   1      20.704  16.138   8.799  0.00  0.00     0.035 C 
BRANCH  42  43
HETATM   43  C   UNK N   1      19.285  16.419   9.270  0.00  0.00     0.004 C 
BRANCH  43  44
HETATM   44  C   UNK N   1      19.062  17.915   9.434  0.00  0.00     0.019 C 
BRANCH  44  45
HETATM   45  C   UNK N   1      17.784  18.206  10.213  0.00  0.00     0.111 C 
BRANCH  45  46
HETATM   46  N   UNK N   1      17.901  19.465  10.927  0.00  0.00    -0.430 N 
HETATM   47  H   UNK N   1      17.774  20.311  11.483  0.00  0.00     0.149 HD
HETATM   48  H   UNK N   1      18.873  19.645  10.675  0.00  0.00     0.149 HD
ENDBRANCH  45  46
ENDBRANCH  44  45
ENDBRANCH  43  44
ENDBRANCH  42  43
ENDBRANCH  10  42
ENDBRANCH   7  10
ENDBRANCH   5   6
BRANCH   5  49
HETATM   49  C   UNK N   1      24.865  15.553   6.485  0.00  0.00     0.199 C 
BRANCH  49  50
HETATM   50  O   UNK N   1      25.178  14.738   7.573  0.00  0.00    -0.398 OA
HETATM   51  H   UNK N   1      26.076  14.438   7.781  0.00  0.00     0.209 HD
ENDBRANCH  49  50
ENDBRANCH   5  49
ENDBRANCH   1   5
BRANCH   3  52
HETATM   52  C   UNK N   1      22.812  12.429   5.881  0.00  0.00     0.176 C 
BRANCH  52  53
HETATM   53  C   UNK N   1      22.153  13.145   7.052  0.00  0.00     0.036 C 
BRANCH  53  54
HETATM   54  C   UNK N   1      21.531  12.189   8.042  0.00  0.00     0.023 C 
BRANCH  54  55
HETATM   55  C   UNK N   1      21.918  12.657   9.428  0.00  0.00     0.138 C 
BRANCH  55  56
HETATM   56  N   UNK N   1      23.250  13.208   9.405  0.00  0.00    -0.227 N 
HETATM   57  C   UNK N   1      24.186  12.916  10.428  0.00  0.00     0.665 C 
HETATM   58  N   UNK N   1      23.840  12.229  11.453  0.00  0.00    -0.235 N 
HETATM   59  N   UNK N   1      25.507  13.404  10.331  0.00  0.00    -0.235 N 
HETATM   60  H   UNK N   1      24.325  12.194  12.310  0.00  0.00     0.174 HD
ATOM     61  HN  UNK N   1      22.990  11.671  11.376  1.00  0.00     0.174 HD
HETATM   62  H   UNK N   1      25.776  14.056   9.646  0.00  0.00     0.174 HD
HETATM   63  H   UNK N   1      26.182  13.080  10.972  0.00  0.00     0.174 HD
HETATM   64  H   UNK N   1      23.513  13.801   8.664  0.00  0.00     0.177 HD
ENDBRANCH  55  56
ENDBRANCH  54  55
ENDBRANCH  53  54
ENDBRANCH  52  53
BRANCH  52  65
HETATM   65  C   UNK N   1      24.072  11.616   6.151  0.00  0.00     0.241 C 
HETATM   66  O   UNK N   1      24.922  12.117   6.865  0.00  0.00    -0.271 OA
HETATM   67  N   UNK N   1      24.311  10.372   5.646  0.00  0.00    -0.346 N 
HETATM   68  H   UNK N   1      25.160   9.947   5.906  0.00  0.00     0.163 HD
BRANCH  67  69
HETATM   69  C   UNK N   1      23.450   9.606   4.769  0.00  0.00     0.172 C 
HETATM   70  C   UNK N   1      23.540   8.147   5.179  0.00  0.00     0.042 C 
BRANCH  69  71
HETATM   71  C   UNK N   1      23.866   9.725   3.324  0.00  0.00     0.240 C 
HETATM   72  O   UNK N   1      24.391   8.769   2.772  0.00  0.00    -0.271 OA
HETATM   73  N   UNK N   1      23.714  10.897   2.661  0.00  0.00    -0.346 N 
HETATM   74  H   UNK N   1      23.172  11.618   3.057  0.00  0.00     0.163 HD
BRANCH  73  75
HETATM   75  C   UNK N   1      24.339  11.093   1.380  0.00  0.00     0.177 C 
BRANCH  75  76
HETATM   76  C   UNK N   1      23.375  11.650   0.332  0.00  0.00     0.038 C 
BRANCH  76  77
HETATM   77  C   UNK N   1      22.137  12.280   0.982  0.00  0.00    -0.020 C 
HETATM   78  C   UNK N   1      22.158  13.778   0.764  0.00  0.00     0.009 C 
HETATM   79  C   UNK N   1      20.824  11.732   0.446  0.00  0.00     0.009 C 
ENDBRANCH  76  77
ENDBRANCH  75  76
BRANCH  75  80
HETATM   80  C   UNK N   1      25.532  11.962   1.624  0.00  0.00     0.241 C 
HETATM   81  O   UNK N   1      26.615  11.593   1.191  0.00  0.00    -0.271 OA
HETATM   82  N   UNK N   1      25.431  13.121   2.329  0.00  0.00    -0.346 N 
HETATM   83  H   UNK N   1      24.545  13.399   2.656  0.00  0.00     0.163 HD
BRANCH  82  84
HETATM   84  C   UNK N   1      26.575  13.967   2.619  0.00  0.00     0.180 C 
BRANCH  84  85
HETATM   85  C   UNK N   1      26.992  13.775   4.079  0.00  0.00     0.073 C 
BRANCH  85  86
HETATM   86  C   UNK N   1      28.374  13.262   4.228  0.00  0.00    -0.056 A 
HETATM   87  C   UNK N   1      28.610  11.884   4.256  0.00  0.00     0.007 A 
HETATM   88  C   UNK N   1      29.908  11.404   4.446  0.00  0.00     0.001 A 
HETATM   89  C   UNK N   1      30.968  12.302   4.608  0.00  0.00     0.000 A 
HETATM   90  C   UNK N   1      30.729  13.680   4.583  0.00  0.00     0.001 A 
HETATM   91  C   UNK N   1      29.431  14.159   4.399  0.00  0.00     0.007 A 
ENDBRANCH  85  86
ENDBRANCH  84  85
BRANCH  84  92
HETATM   92  C   UNK N   1      26.296  15.422   2.304  0.00  0.00     0.238 C 
HETATM   93  O   UNK N   1      25.970  15.747   1.173  0.00  0.00    -0.271 OA
HETATM   94  N   UNK N   1      26.379  16.367   3.265  0.00  0.00    -0.368 N 
HETATM   95  H   UNK N   1      26.324  16.135   4.220  0.00  0.00     0.159 HD
HETATM   96  H   UNK N   1      26.496  17.310   3.005  0.00  0.00     0.159 HD
ENDBRANCH  84  92
ENDBRANCH  82  84
ENDBRANCH  75  80
ENDBRANCH  73  75
ENDBRANCH  69  71
ENDBRANCH  67  69
ENDBRANCH  52  65
ENDBRANCH   3  52
TORSDOF 48
ENDMDL
MODEL 3
REMARK VINA RESULT:      -6.6      3.299     13.189
REMARK WARNING: 32 MAX_TORS EXCEEDED!!!
REMARK  48 active torsions:
REMARK  status: ('A' for Active; 'I' for Inactive)
REMARK    1  A    between atoms: C_2  and  C_3 
REMARK    2  A    between atoms: C_3  and  C_4 
REMARK    3  A    between atoms: C_4  and  C_5 
REMARK    4  A    between atoms: C_5  and  C_6 
REMARK    5  A    between atoms: C_6  and  C_7 
REMARK    6  A    between atoms: C_7  and  C_8 
REMARK    7  A    between atoms: C_8  and  C_9 
REMARK    8  A    between atoms: C_9  and  C_10 
REMARK    9  A    between atoms: C_10  and  C_11 
REMARK   10  A    between atoms: C_11  and  C_12 
REMARK   11  A    between atoms: C_12  and  C_13 
REMARK   12  A    between atoms: C_13  and  C_14 
REMARK   13  A    between atoms: C_14  and  C_15 
REMARK   14  A    between atoms: C_15  and  C_16 
REMARK       I    between atoms: C_16  and  N_18 
REMARK   15  A    between atoms: C_19  and  N_18 
REMARK   16  A    between atoms: C_19  and  C_20 
REMARK   17  A    between atoms: C_19  and  C_25 
REMARK   18  A    between atoms: C_20  and  C_21 
REMARK   19  A    between atoms: C_21  and  C_22 
REMARK   20  A    between atoms: C_22  and  C_23 
REMARK   21  A    between atoms: C_23  and  N_24 
REMARK       I    between atoms: C_25  and  N_27 
REMARK   22  A    between atoms: C_28  and  N_27 
REMARK   23  A    between atoms: C_28  and  C_29 
REMARK   24  A    between atoms: C_28  and  C_34 
REMARK   25  A    between atoms: C_29  and  C_30 
REMARK   26  A    between atoms: C_30  and  C_31 
REMARK   27  A    between atoms: C_31  and  C_32 
REMARK   28  A    between atoms: C_32  and  N_33 
REMARK       I    between atoms: C_34  and  N_36 
REMARK   29  A    between atoms: C_37  and  N_36 
REMARK   30  A    between atoms: C_37  and  C_38 
REMARK   31  A    between atoms: C_37  and  C_40 
REMARK   32  A    between atoms: C_38  and  O_39 
REMARK       I    between atoms: C_40  and  N_42 
REMARK   33  A    between atoms: C_43  and  N_42 
REMARK   34  A    between atoms: C_43  and  C_44 
REMARK   35  A    between atoms: C_43  and  C_52 
REMARK   36  A    between atoms: C_44  and  C_45 
REMARK   37  A    between atoms: C_45  and  C_46 
REMARK   38  A    between atoms: C_46  and  N_47 
REMARK       I    between atoms: N_47  and  C_48 
REMARK       I    between atoms: C_48  and  N_51 
REMARK       I    between atoms: C_52  and  N_54 
REMARK   39  A    between atoms: N_54  and  C_55 
REMARK   40  A    between atoms: C_55  and  C_57 
REMARK       I    between atoms: C_57  and  N_59 
REMARK   41  A    between atoms: C_60  and  N_59 
REMARK   42  A    between atoms: C_60  and  C_61 
REMARK   43  A    between atoms: C_60  and  C_65 
REMARK   44  A    between atoms: C_61  and  C_62 
REMARK       I    between atoms: C_65  and  N_67 
REMARK   45  A    between atoms: C_68  and  N_67 
REMARK   46  A    between atoms: C_68  and  C_69 
REMARK   47  A    between atoms: C_68  and  C_76 
REMARK   48  A    between atoms: C_69  and  C_70 
REMARK       I    between atoms: C_76  and  N_78 
ROOT
HETATM    1  C   UNK N   1      34.591  16.180   7.221  0.00  0.00     0.243 C 
HETATM    2  O   UNK N   1      35.301  16.050   6.239  0.00  0.00    -0.271 OA
HETATM    3  N   UNK N   1      34.806  15.360   8.287  0.00  0.00    -0.346 N 
HETATM    4  H   UNK N   1      35.538  14.706   8.205  0.00  0.00     0.163 HD
ENDROOT
BRANCH   1   5
HETATM    5  C   UNK N   1      33.469  17.204   7.203  0.00  0.00     0.200 C 
BRANCH   5   6
HETATM    6  N   UNK N   1      33.074  17.643   5.880  0.00  0.00    -0.344 N 
HETATM    7  C   UNK N   1      31.922  17.301   5.253  0.00  0.00     0.241 C 
HETATM    8  O   UNK N   1      31.645  17.850   4.200  0.00  0.00    -0.271 OA
HETATM    9  H   UNK N   1      33.691  18.239   5.397  0.00  0.00     0.163 HD
BRANCH   7  10
HETATM   10  C   UNK N   1      30.957  16.303   5.850  0.00  0.00     0.176 C 
BRANCH  10  11
HETATM   11  N   UNK N   1      30.450  16.602   7.195  0.00  0.00    -0.346 N 
HETATM   12  C   UNK N   1      29.277  17.171   7.601  0.00  0.00     0.241 C 
HETATM   13  O   UNK N   1      29.069  17.298   8.798  0.00  0.00    -0.271 OA
HETATM   14  H   UNK N   1      31.058  16.349   7.928  0.00  0.00     0.163 HD
BRANCH  12  15
HETATM   15  C   UNK N   1      28.209  17.601   6.633  0.00  0.00     0.176 C 
BRANCH  15  16
HETATM   16  N   UNK N   1      27.622  18.890   6.954  0.00  0.00    -0.348 N 
HETATM   17  C   UNK N   1      27.320  19.882   6.077  0.00  0.00     0.218 C 
HETATM   18  O   UNK N   1      26.717  20.862   6.482  0.00  0.00    -0.274 OA
HETATM   19  H   UNK N   1      27.423  19.062   7.903  0.00  0.00     0.163 HD
BRANCH  17  20
HETATM   20  C   UNK N   1      27.686  19.803   4.622  0.00  0.00     0.103 C 
BRANCH  20  21
HETATM   21  C   UNK N   1      26.747  20.623   3.738  0.00  0.00     0.009 C 
BRANCH  21  22
HETATM   22  C   UNK N   1      25.276  20.337   4.012  0.00  0.00     0.000 C 
BRANCH  22  23
HETATM   23  C   UNK N   1      24.861  18.942   3.559  0.00  0.00     0.000 C 
BRANCH  23  24
HETATM   24  C   UNK N   1      23.396  18.651   3.851  0.00  0.00     0.000 C 
BRANCH  24  25
HETATM   25  C   UNK N   1      22.510  19.771   3.331  0.00  0.00     0.000 C 
BRANCH  25  26
HETATM   26  C   UNK N   1      21.051  19.378   3.431  0.00  0.00     0.000 C 
BRANCH  26  27
HETATM   27  C   UNK N   1      20.543  18.924   2.072  0.00  0.00     0.000 C 
BRANCH  27  28
HETATM   28  C   UNK N   1      19.789  17.607   2.182  0.00  0.00     0.000 C 
BRANCH  28  29
HETATM   29  C   UNK N   1      20.727  16.425   1.999  0.00  0.00     0.000 C 
BRANCH  29  30
HETATM   30  C   UNK N   1      20.945  15.721   3.328  0.00  0.00     0.000 C 
BRANCH  30  31
HETATM   31  C   UNK N   1      19.619  15.518   4.039  0.00  0.00     0.000 C 
BRANCH  31  32
HETATM   32  C   UNK N   1      19.736  15.884   5.510  0.00  0.00    -0.000 C 
BRANCH  32  33
HETATM   33  C   UNK N   1      21.125  16.415   5.816  0.00  0.00    -0.005 C 
HETATM   34  C   UNK N   1      21.046  17.641   6.703  0.00  0.00     0.005 C 
ENDBRANCH  32  33
ENDBRANCH  31  32
ENDBRANCH  30  31
ENDBRANCH  29  30
ENDBRANCH  28  29
ENDBRANCH  27  28
ENDBRANCH  26  27
ENDBRANCH  25  26
ENDBRANCH  24  25
ENDBRANCH  23  24
ENDBRANCH  22  23
ENDBRANCH  21  22
ENDBRANCH  20  21
ENDBRANCH  17  20
ENDBRANCH  15  16
BRANCH  15  35
HETATM   35  C   UNK N   1      27.093  16.563   6.589  0.00  0.00     0.035 C 
BRANCH  35  36
HETATM   36  C   UNK N   1      27.298  15.558   5.461  0.00  0.00     0.004 C 
BRANCH  36  37
HETATM   37  C   UNK N   1      27.024  16.166   4.097  0.00  0.00     0.019 C 
BRANCH  37  38
HETATM   38  C   UNK N   1      28.138  15.798   3.135  0.00  0.00     0.111 C 
BRANCH  38  39
HETATM   39  N   UNK N   1      29.080  16.896   3.026  0.00  0.00    -0.430 N 
HETATM   40  H   UNK N   1      30.067  16.747   3.242  0.00  0.00     0.149 HD
HETATM   41  H   UNK N   1      28.757  17.817   2.733  0.00  0.00     0.149 HD
ENDBRANCH  38  39
ENDBRANCH  37  38
ENDBRANCH  36  37
ENDBRANCH  35  36
ENDBRANCH  15  35
ENDBRANCH  12  15
ENDBRANCH  10  11
BRANCH  10  42
HETATM   42  C   UNK N   1      31.582  14.918   5.840  0.00  0.00     0.035 C 
BRANCH  42  43
HETATM   43  C   UNK N   1      30.860  14.027   4.840  0.00  0.00     0.004 C 
BRANCH  43  44
HETATM   44  C   UNK N   1      31.843  13.440   3.838  0.00  0.00     0.019 C 
BRANCH  44  45
HETATM   45  C   UNK N   1      33.153  14.219   3.822  0.00  0.00     0.111 C 
BRANCH  45  46
HETATM   46  N   UNK N   1      33.236  15.049   2.632  0.00  0.00    -0.430 N 
HETATM   47  H   UNK N   1      33.224  15.790   1.932  0.00  0.00     0.149 HD
HETATM   48  H   UNK N   1      33.558  14.311   2.006  0.00  0.00     0.149 HD
ENDBRANCH  45  46
ENDBRANCH  44  45
ENDBRANCH  43  44
ENDBRANCH  42  43
ENDBRANCH  10  42
ENDBRANCH   7  10
ENDBRANCH   5   6
BRANCH   5  49
HETATM   49  C   UNK N   1      33.827  18.440   8.016  0.00  0.00     0.199 C 
BRANCH  49  50
HETATM   50  O   UNK N   1      35.206  18.651   8.023  0.00  0.00    -0.398 OA
HETATM   51  H   UNK N   1      35.658  19.278   7.437  0.00  0.00     0.209 HD
ENDBRANCH  49  50
ENDBRANCH   5  49
ENDBRANCH   1   5
BRANCH   3  52
HETATM   52  C   UNK N   1      34.058  15.360   9.533  0.00  0.00     0.176 C 
BRANCH  52  53
HETATM   53  C   UNK N   1      34.922  14.943  10.715  0.00  0.00     0.036 C 
BRANCH  53  54
HETATM   54  C   UNK N   1      36.325  15.494  10.632  0.00  0.00     0.023 C 
BRANCH  54  55
HETATM   55  C   UNK N   1      37.168  14.479   9.889  0.00  0.00     0.138 C 
BRANCH  55  56
HETATM   56  N   UNK N   1      37.091  13.200  10.551  0.00  0.00    -0.227 N 
HETATM   57  C   UNK N   1      37.766  12.064  10.038  0.00  0.00     0.665 C 
HETATM   58  N   UNK N   1      38.385  12.123   8.917  0.00  0.00    -0.235 N 
HETATM   59  N   UNK N   1      37.738  10.849  10.754  0.00  0.00    -0.235 N 
HETATM   60  H   UNK N   1      38.653  11.350   8.370  0.00  0.00     0.174 HD
ATOM     61  HN  UNK N   1      38.619  13.050   8.561  1.00  0.00     0.174 HD
HETATM   62  H   UNK N   1      37.156  10.713  11.536  0.00  0.00     0.174 HD
HETATM   63  H   UNK N   1      38.322  10.111  10.462  0.00  0.00     0.174 HD
HETATM   64  H   UNK N   1      36.558  13.115  11.374  0.00  0.00     0.177 HD
ENDBRANCH  55  56
ENDBRANCH  54  55
ENDBRANCH  53  54
ENDBRANCH  52  53
BRANCH  52  65
HETATM   65  C   UNK N   1      32.698  14.695   9.365  0.00  0.00     0.241 C 
HETATM   66  O   UNK N   1      31.709  15.381   9.558  0.00  0.00    -0.271 OA
HETATM   67  N   UNK N   1      32.513  13.389   9.017  0.00  0.00    -0.346 N 
HETATM   68  H   UNK N   1      31.581  13.085   8.929  0.00  0.00     0.163 HD
BRANCH  67  69
HETATM   69  C   UNK N   1      33.540  12.402   8.762  0.00  0.00     0.172 C 
HETATM   70  C   UNK N   1      33.522  12.078   7.279  0.00  0.00     0.042 C 
BRANCH  69  71
HETATM   71  C   UNK N   1      33.303  11.128   9.533  0.00  0.00     0.240 C 
HETATM   72  O   UNK N   1      32.197  10.610   9.509  0.00  0.00    -0.271 OA
HETATM   73  N   UNK N   1      34.291  10.593  10.293  0.00  0.00    -0.346 N 
HETATM   74  H   UNK N   1      35.213  10.928  10.205  0.00  0.00     0.163 HD
BRANCH  73  75
HETATM   75  C   UNK N   1      33.999   9.538  11.226  0.00  0.00     0.177 C 
BRANCH  75  76
HETATM   76  C   UNK N   1      34.329   8.152  10.670  0.00  0.00     0.038 C 
BRANCH  76  77
HETATM   77  C   UNK N   1      33.124   7.207  10.757  0.00  0.00    -0.020 C 
HETATM   78  C   UNK N   1      32.506   7.049   9.384  0.00  0.00     0.009 C 
HETATM   79  C   UNK N   1      33.472   5.827  11.292  0.00  0.00     0.009 C 
ENDBRANCH  76  77
ENDBRANCH  75  76
BRANCH  75  80
HETATM   80  C   UNK N   1      34.733   9.874  12.485  0.00  0.00     0.241 C 
HETATM   81  O   UNK N   1      35.257   8.963  13.110  0.00  0.00    -0.271 OA
HETATM   82  N   UNK N   1      34.799  11.153  12.944  0.00  0.00    -0.346 N 
HETATM   83  H   UNK N   1      34.378  11.867  12.414  0.00  0.00     0.163 HD
BRANCH  82  84
HETATM   84  C   UNK N   1      35.467  11.509  14.183  0.00  0.00     0.180 C 
BRANCH  84  85
HETATM   85  C   UNK N   1      34.530  12.362  15.039  0.00  0.00     0.073 C 
BRANCH  85  86
HETATM   86  C   UNK N   1      34.814  12.264  16.490  0.00  0.00    -0.056 A 
HETATM   87  C   UNK N   1      34.901  13.423  17.267  0.00  0.00     0.007 A 
HETATM   88  C   UNK N   1      35.217  13.330  18.624  0.00  0.00     0.001 A 
HETATM   89  C   UNK N   1      35.448  12.078  19.203  0.00  0.00     0.000 A 
HETATM   90  C   UNK N   1      35.365  10.920  18.423  0.00  0.00     0.001 A 
HETATM   91  C   UNK N   1      35.054  11.013  17.066  0.00  0.00     0.007 A 
ENDBRANCH  85  86
ENDBRANCH  84  85
BRANCH  84  92
HETATM   92  C   UNK N   1      36.788  12.209  13.933  0.00  0.00     0.238 C 
HETATM   93  O   UNK N   1      37.792  11.550  13.715  0.00  0.00    -0.271 OA
HETATM   94  N   UNK N   1      36.867  13.556  13.921  0.00  0.00    -0.368 N 
HETATM   95  H   UNK N   1      36.069  14.116  13.776  0.00  0.00     0.159 HD
HETATM   96  H   UNK N   1      37.740  13.989  14.061  0.00  0.00     0.159 HD
ENDBRANCH  84  92
ENDBRANCH  82  84
ENDBRANCH  75  80
ENDBRANCH  73  75
ENDBRANCH  69  71
ENDBRANCH  67  69
ENDBRANCH  52  65
ENDBRANCH   3  52
TORSDOF 48
ENDMDL
MODEL 4
REMARK VINA RESULT:      -6.5      4.444     11.123
REMARK WARNING: 32 MAX_TORS EXCEEDED!!!
REMARK  48 active torsions:
REMARK  status: ('A' for Active; 'I' for Inactive)
REMARK    1  A    between atoms: C_2  and  C_3 
REMARK    2  A    between atoms: C_3  and  C_4 
REMARK    3  A    between atoms: C_4  and  C_5 
REMARK    4  A    between atoms: C_5  and  C_6 
REMARK    5  A    between atoms: C_6  and  C_7 
REMARK    6  A    between atoms: C_7  and  C_8 
REMARK    7  A    between atoms: C_8  and  C_9 
REMARK    8  A    between atoms: C_9  and  C_10 
REMARK    9  A    between atoms: C_10  and  C_11 
REMARK   10  A    between atoms: C_11  and  C_12 
REMARK   11  A    between atoms: C_12  and  C_13 
REMARK   12  A    between atoms: C_13  and  C_14 
REMARK   13  A    between atoms: C_14  and  C_15 
REMARK   14  A    between atoms: C_15  and  C_16 
REMARK       I    between atoms: C_16  and  N_18 
REMARK   15  A    between atoms: C_19  and  N_18 
REMARK   16  A    between atoms: C_19  and  C_20 
REMARK   17  A    between atoms: C_19  and  C_25 
REMARK   18  A    between atoms: C_20  and  C_21 
REMARK   19  A    between atoms: C_21  and  C_22 
REMARK   20  A    between atoms: C_22  and  C_23 
REMARK   21  A    between atoms: C_23  and  N_24 
REMARK       I    between atoms: C_25  and  N_27 
REMARK   22  A    between atoms: C_28  and  N_27 
REMARK   23  A    between atoms: C_28  and  C_29 
REMARK   24  A    between atoms: C_28  and  C_34 
REMARK   25  A    between atoms: C_29  and  C_30 
REMARK   26  A    between atoms: C_30  and  C_31 
REMARK   27  A    between atoms: C_31  and  C_32 
REMARK   28  A    between atoms: C_32  and  N_33 
REMARK       I    between atoms: C_34  and  N_36 
REMARK   29  A    between atoms: C_37  and  N_36 
REMARK   30  A    between atoms: C_37  and  C_38 
REMARK   31  A    between atoms: C_37  and  C_40 
REMARK   32  A    between atoms: C_38  and  O_39 
REMARK       I    between atoms: C_40  and  N_42 
REMARK   33  A    between atoms: C_43  and  N_42 
REMARK   34  A    between atoms: C_43  and  C_44 
REMARK   35  A    between atoms: C_43  and  C_52 
REMARK   36  A    between atoms: C_44  and  C_45 
REMARK   37  A    between atoms: C_45  and  C_46 
REMARK   38  A    between atoms: C_46  and  N_47 
REMARK       I    between atoms: N_47  and  C_48 
REMARK       I    between atoms: C_48  and  N_51 
REMARK       I    between atoms: C_52  and  N_54 
REMARK   39  A    between atoms: N_54  and  C_55 
REMARK   40  A    between atoms: C_55  and  C_57 
REMARK       I    between atoms: C_57  and  N_59 
REMARK   41  A    between atoms: C_60  and  N_59 
REMARK   42  A    between atoms: C_60  and  C_61 
REMARK   43  A    between atoms: C_60  and  C_65 
REMARK   44  A    between atoms: C_61  and  C_62 
REMARK       I    between atoms: C_65  and  N_67 
REMARK   45  A    between atoms: C_68  and  N_67 
REMARK   46  A    between atoms: C_68  and  C_69 
REMARK   47  A    between atoms: C_68  and  C_76 
REMARK   48  A    between atoms: C_69  and  C_70 
REMARK       I    between atoms: C_76  and  N_78 
ROOT
HETATM    1  C   UNK N   1      23.639  14.026   4.984  0.00  0.00     0.243 C 
HETATM    2  O   UNK N   1      24.061  14.728   4.081  0.00  0.00    -0.271 OA
HETATM    3  N   UNK N   1      23.388  12.714   4.718  0.00  0.00    -0.346 N 
HETATM    4  H   UNK N   1      23.570  12.402   3.802  0.00  0.00     0.163 HD
ENDROOT
BRANCH   1   5
HETATM    5  C   UNK N   1      23.361  14.643   6.345  0.00  0.00     0.200 C 
BRANCH   5   6
HETATM    6  N   UNK N   1      22.885  16.010   6.302  0.00  0.00    -0.344 N 
HETATM    7  C   UNK N   1      21.717  16.449   6.831  0.00  0.00     0.241 C 
HETATM    8  O   UNK N   1      21.500  17.649   6.850  0.00  0.00    -0.271 OA
HETATM    9  H   UNK N   1      23.456  16.675   5.852  0.00  0.00     0.163 HD
BRANCH   7  10
HETATM   10  C   UNK N   1      20.713  15.499   7.440  0.00  0.00     0.176 C 
BRANCH  10  11
HETATM   11  N   UNK N   1      19.307  15.697   7.067  0.00  0.00    -0.346 N 
HETATM   12  C   UNK N   1      18.724  15.870   5.843  0.00  0.00     0.241 C 
HETATM   13  O   UNK N   1      17.511  15.997   5.785  0.00  0.00    -0.271 OA
HETATM   14  H   UNK N   1      18.679  15.707   7.825  0.00  0.00     0.163 HD
BRANCH  12  15
HETATM   15  C   UNK N   1      19.513  15.860   4.563  0.00  0.00     0.176 C 
BRANCH  15  16
HETATM   16  N   UNK N   1      19.148  16.929   3.650  0.00  0.00    -0.348 N 
HETATM   17  C   UNK N   1      19.997  17.797   3.041  0.00  0.00     0.218 C 
HETATM   18  O   UNK N   1      19.553  18.565   2.204  0.00  0.00    -0.274 OA
HETATM   19  H   UNK N   1      18.189  17.035   3.453  0.00  0.00     0.163 HD
BRANCH  17  20
HETATM   20  C   UNK N   1      21.467  17.829   3.350  0.00  0.00     0.103 C 
BRANCH  20  21
HETATM   21  C   UNK N   1      21.944  19.217   3.775  0.00  0.00     0.009 C 
BRANCH  21  22
HETATM   22  C   UNK N   1      23.461  19.355   3.755  0.00  0.00     0.000 C 
BRANCH  22  23
HETATM   23  C   UNK N   1      23.931  20.469   2.827  0.00  0.00     0.000 C 
BRANCH  23  24
HETATM   24  C   UNK N   1      25.448  20.524   2.712  0.00  0.00     0.000 C 
BRANCH  24  25
HETATM   25  C   UNK N   1      26.101  20.199   4.045  0.00  0.00     0.000 C 
BRANCH  25  26
HETATM   26  C   UNK N   1      27.558  19.837   3.844  0.00  0.00     0.000 C 
BRANCH  26  27
HETATM   27  C   UNK N   1      28.254  19.726   5.191  0.00  0.00     0.000 C 
BRANCH  27  28
HETATM   28  C   UNK N   1      27.404  20.331   6.298  0.00  0.00     0.000 C 
BRANCH  28  29
HETATM   29  C   UNK N   1      27.495  19.503   7.570  0.00  0.00     0.000 C 
BRANCH  29  30
HETATM   30  C   UNK N   1      28.682  18.556   7.492  0.00  0.00     0.000 C 
BRANCH  30  31
HETATM   31  C   UNK N   1      29.282  18.352   8.872  0.00  0.00     0.000 C 
BRANCH  31  32
HETATM   32  C   UNK N   1      30.799  18.424   8.814  0.00  0.00    -0.000 C 
BRANCH  32  33
HETATM   33  C   UNK N   1      31.369  17.151   8.213  0.00  0.00    -0.005 C 
HETATM   34  C   UNK N   1      32.872  17.095   8.400  0.00  0.00     0.005 C 
ENDBRANCH  32  33
ENDBRANCH  31  32
ENDBRANCH  30  31
ENDBRANCH  29  30
ENDBRANCH  28  29
ENDBRANCH  27  28
ENDBRANCH  26  27
ENDBRANCH  25  26
ENDBRANCH  24  25
ENDBRANCH  23  24
ENDBRANCH  22  23
ENDBRANCH  21  22
ENDBRANCH  20  21
ENDBRANCH  17  20
ENDBRANCH  15  16
BRANCH  15  35
HETATM   35  C   UNK N   1      19.325  14.529   3.843  0.00  0.00     0.035 C 
BRANCH  35  36
HETATM   36  C   UNK N   1      20.589  14.102   3.103  0.00  0.00     0.004 C 
BRANCH  36  37
HETATM   37  C   UNK N   1      20.401  14.116   1.597  0.00  0.00     0.019 C 
BRANCH  37  38
HETATM   38  C   UNK N   1      21.711  14.469   0.918  0.00  0.00     0.111 C 
BRANCH  38  39
HETATM   39  N   UNK N   1      22.771  13.611   1.413  0.00  0.00    -0.430 N 
HETATM   40  H   UNK N   1      22.636  13.070   2.268  0.00  0.00     0.149 HD
HETATM   41  H   UNK N   1      23.654  13.549   0.906  0.00  0.00     0.149 HD
ENDBRANCH  38  39
ENDBRANCH  37  38
ENDBRANCH  36  37
ENDBRANCH  35  36
ENDBRANCH  15  35
ENDBRANCH  12  15
ENDBRANCH  10  11
BRANCH  10  42
HETATM   42  C   UNK N   1      20.843  15.520   8.955  0.00  0.00     0.035 C 
BRANCH  42  43
HETATM   43  C   UNK N   1      20.583  14.132   9.520  0.00  0.00     0.004 C 
BRANCH  43  44
HETATM   44  C   UNK N   1      21.894  13.434   9.849  0.00  0.00     0.019 C 
BRANCH  44  45
HETATM   45  C   UNK N   1      21.683  12.283  10.826  0.00  0.00     0.111 C 
BRANCH  45  46
HETATM   46  N   UNK N   1      22.719  11.278  10.657  0.00  0.00    -0.430 N 
HETATM   47  H   UNK N   1      23.395  10.520  10.746  0.00  0.00     0.149 HD
HETATM   48  H   UNK N   1      22.954  11.524   9.696  0.00  0.00     0.149 HD
ENDBRANCH  45  46
ENDBRANCH  44  45
ENDBRANCH  43  44
ENDBRANCH  42  43
ENDBRANCH  10  42
ENDBRANCH   7  10
ENDBRANCH   5   6
BRANCH   5  49
HETATM   49  C   UNK N   1      24.594  14.607   7.236  0.00  0.00     0.199 C 
BRANCH  49  50
HETATM   50  O   UNK N   1      25.644  13.934   6.611  0.00  0.00    -0.398 OA
HETATM   51  H   UNK N   1      26.534  13.853   6.988  0.00  0.00     0.209 HD
ENDBRANCH  49  50
ENDBRANCH   5  49
ENDBRANCH   1   5
BRANCH   3  52
HETATM   52  C   UNK N   1      22.874  11.732   5.659  0.00  0.00     0.176 C 
BRANCH  52  53
HETATM   53  C   UNK N   1      21.650  12.244   6.405  0.00  0.00     0.036 C 
BRANCH  53  54
HETATM   54  C   UNK N   1      20.356  11.736   5.814  0.00  0.00     0.023 C 
BRANCH  54  55
HETATM   55  C   UNK N   1      20.685  10.514   4.984  0.00  0.00     0.138 C 
BRANCH  55  56
HETATM   56  N   UNK N   1      20.037  10.605   3.700  0.00  0.00    -0.227 N 
HETATM   57  C   UNK N   1      20.763  10.429   2.495  0.00  0.00     0.665 C 
HETATM   58  N   UNK N   1      22.036  10.280   2.515  0.00  0.00    -0.235 N 
HETATM   59  N   UNK N   1      20.084  10.441   1.258  0.00  0.00    -0.235 N 
HETATM   60  H   UNK N   1      22.640  10.407   1.747  0.00  0.00     0.174 HD
ATOM     61  HN  UNK N   1      22.460  10.006   3.402  1.00  0.00     0.174 HD
HETATM   62  H   UNK N   1      19.138  10.701   1.181  0.00  0.00     0.174 HD
HETATM   63  H   UNK N   1      20.573  10.180   0.444  0.00  0.00     0.174 HD
HETATM   64  H   UNK N   1      19.072  10.794   3.659  0.00  0.00     0.177 HD
ENDBRANCH  55  56
ENDBRANCH  54  55
ENDBRANCH  53  54
ENDBRANCH  52  53
BRANCH  52  65
HETATM   65  C   UNK N   1      23.998  11.097   6.468  0.00  0.00     0.241 C 
HETATM   66  O   UNK N   1      24.051  11.357   7.658  0.00  0.00    -0.271 OA
HETATM   67  N   UNK N   1      24.945  10.261   5.952  0.00  0.00    -0.346 N 
HETATM   68  H   UNK N   1      25.610   9.907   6.585  0.00  0.00     0.163 HD
BRANCH  67  69
HETATM   69  C   UNK N   1      25.077   9.838   4.575  0.00  0.00     0.172 C 
HETATM   70  C   UNK N   1      25.027   8.321   4.542  0.00  0.00     0.042 C 
BRANCH  69  71
HETATM   71  C   UNK N   1      26.382  10.288   3.968  0.00  0.00     0.240 C 
HETATM   72  O   UNK N   1      27.369   9.575   4.074  0.00  0.00    -0.271 OA
HETATM   73  N   UNK N   1      26.476  11.497   3.362  0.00  0.00    -0.346 N 
HETATM   74  H   UNK N   1      25.659  12.008   3.157  0.00  0.00     0.163 HD
BRANCH  73  75
HETATM   75  C   UNK N   1      27.763  12.038   3.016  0.00  0.00     0.177 C 
BRANCH  75  76
HETATM   76  C   UNK N   1      27.955  12.186   1.507  0.00  0.00     0.038 C 
BRANCH  76  77
HETATM   77  C   UNK N   1      29.005  11.205   0.972  0.00  0.00    -0.020 C 
HETATM   78  C   UNK N   1      29.757  11.845  -0.176  0.00  0.00     0.009 C 
HETATM   79  C   UNK N   1      30.011  10.761   2.022  0.00  0.00     0.009 C 
ENDBRANCH  76  77
ENDBRANCH  75  76
BRANCH  75  80
HETATM   80  C   UNK N   1      27.896  13.323   3.771  0.00  0.00     0.241 C 
HETATM   81  O   UNK N   1      27.699  13.308   4.978  0.00  0.00    -0.271 OA
HETATM   82  N   UNK N   1      28.201  14.487   3.136  0.00  0.00    -0.346 N 
HETATM   83  H   UNK N   1      28.365  14.467   2.166  0.00  0.00     0.163 HD
BRANCH  82  84
HETATM   84  C   UNK N   1      28.297  15.758   3.831  0.00  0.00     0.180 C 
BRANCH  84  85
HETATM   85  C   UNK N   1      29.157  15.589   5.085  0.00  0.00     0.073 C 
BRANCH  85  86
HETATM   86  C   UNK N   1      30.568  15.993   4.883  0.00  0.00    -0.056 A 
HETATM   87  C   UNK N   1      31.600  15.080   5.124  0.00  0.00     0.007 A 
HETATM   88  C   UNK N   1      32.930  15.479   4.980  0.00  0.00     0.001 A 
HETATM   89  C   UNK N   1      33.229  16.790   4.596  0.00  0.00     0.000 A 
HETATM   90  C   UNK N   1      32.197  17.702   4.358  0.00  0.00     0.001 A 
HETATM   91  C   UNK N   1      30.867  17.306   4.508  0.00  0.00     0.007 A 
ENDBRANCH  85  86
ENDBRANCH  84  85
BRANCH  84  92
HETATM   92  C   UNK N   1      26.932  16.326   4.162  0.00  0.00     0.238 C 
HETATM   93  O   UNK N   1      26.632  16.545   5.325  0.00  0.00    -0.271 OA
HETATM   94  N   UNK N   1      26.047  16.619   3.185  0.00  0.00    -0.368 N 
HETATM   95  H   UNK N   1      26.337  16.760   2.255  0.00  0.00     0.159 HD
HETATM   96  H   UNK N   1      25.091  16.692   3.407  0.00  0.00     0.159 HD
ENDBRANCH  84  92
ENDBRANCH  82  84
ENDBRANCH  75  80
ENDBRANCH  73  75
ENDBRANCH  69  71
ENDBRANCH  67  69
ENDBRANCH  52  65
ENDBRANCH   3  52
TORSDOF 48
ENDMDL
MODEL 5
REMARK VINA RESULT:      -6.4      2.672     12.840
REMARK WARNING: 32 MAX_TORS EXCEEDED!!!
REMARK  48 active torsions:
REMARK  status: ('A' for Active; 'I' for Inactive)
REMARK    1  A    between atoms: C_2  and  C_3 
REMARK    2  A    between atoms: C_3  and  C_4 
REMARK    3  A    between atoms: C_4  and  C_5 
REMARK    4  A    between atoms: C_5  and  C_6 
REMARK    5  A    between atoms: C_6  and  C_7 
REMARK    6  A    between atoms: C_7  and  C_8 
REMARK    7  A    between atoms: C_8  and  C_9 
REMARK    8  A    between atoms: C_9  and  C_10 
REMARK    9  A    between atoms: C_10  and  C_11 
REMARK   10  A    between atoms: C_11  and  C_12 
REMARK   11  A    between atoms: C_12  and  C_13 
REMARK   12  A    between atoms: C_13  and  C_14 
REMARK   13  A    between atoms: C_14  and  C_15 
REMARK   14  A    between atoms: C_15  and  C_16 
REMARK       I    between atoms: C_16  and  N_18 
REMARK   15  A    between atoms: C_19  and  N_18 
REMARK   16  A    between atoms: C_19  and  C_20 
REMARK   17  A    between atoms: C_19  and  C_25 
REMARK   18  A    between atoms: C_20  and  C_21 
REMARK   19  A    between atoms: C_21  and  C_22 
REMARK   20  A    between atoms: C_22  and  C_23 
REMARK   21  A    between atoms: C_23  and  N_24 
REMARK       I    between atoms: C_25  and  N_27 
REMARK   22  A    between atoms: C_28  and  N_27 
REMARK   23  A    between atoms: C_28  and  C_29 
REMARK   24  A    between atoms: C_28  and  C_34 
REMARK   25  A    between atoms: C_29  and  C_30 
REMARK   26  A    between atoms: C_30  and  C_31 
REMARK   27  A    between atoms: C_31  and  C_32 
REMARK   28  A    between atoms: C_32  and  N_33 
REMARK       I    between atoms: C_34  and  N_36 
REMARK   29  A    between atoms: C_37  and  N_36 
REMARK   30  A    between atoms: C_37  and  C_38 
REMARK   31  A    between atoms: C_37  and  C_40 
REMARK   32  A    between atoms: C_38  and  O_39 
REMARK       I    between atoms: C_40  and  N_42 
REMARK   33  A    between atoms: C_43  and  N_42 
REMARK   34  A    between atoms: C_43  and  C_44 
REMARK   35  A    between atoms: C_43  and  C_52 
REMARK   36  A    between atoms: C_44  and  C_45 
REMARK   37  A    between atoms: C_45  and  C_46 
REMARK   38  A    between atoms: C_46  and  N_47 
REMARK       I    between atoms: N_47  and  C_48 
REMARK       I    between atoms: C_48  and  N_51 
REMARK       I    between atoms: C_52  and  N_54 
REMARK   39  A    between atoms: N_54  and  C_55 
REMARK   40  A    between atoms: C_55  and  C_57 
REMARK       I    between atoms: C_57  and  N_59 
REMARK   41  A    between atoms: C_60  and  N_59 
REMARK   42  A    between atoms: C_60  and  C_61 
REMARK   43  A    between atoms: C_60  and  C_65 
REMARK   44  A    between atoms: C_61  and  C_62 
REMARK       I    between atoms: C_65  and  N_67 
REMARK   45  A    between atoms: C_68  and  N_67 
REMARK   46  A    between atoms: C_68  and  C_69 
REMARK   47  A    between atoms: C_68  and  C_76 
REMARK   48  A    between atoms: C_69  and  C_70 
REMARK       I    between atoms: C_76  and  N_78 
ROOT
HETATM    1  C   UNK N   1      30.208  18.186   9.073  0.00  0.00     0.243 C 
HETATM    2  O   UNK N   1      29.903  18.760  10.104  0.00  0.00    -0.271 OA
HETATM    3  N   UNK N   1      31.431  17.592   9.002  0.00  0.00    -0.346 N 
HETATM    4  H   UNK N   1      32.004  17.654   9.801  0.00  0.00     0.163 HD
ENDROOT
BRANCH   1   5
HETATM    5  C   UNK N   1      29.246  18.196   7.897  0.00  0.00     0.200 C 
BRANCH   5   6
HETATM    6  N   UNK N   1      28.833  19.517   7.467  0.00  0.00    -0.344 N 
HETATM    7  C   UNK N   1      27.943  19.776   6.478  0.00  0.00     0.241 C 
HETATM    8  O   UNK N   1      27.576  20.926   6.310  0.00  0.00    -0.271 OA
HETATM    9  H   UNK N   1      29.230  20.289   7.932  0.00  0.00     0.163 HD
BRANCH   7  10
HETATM   10  C   UNK N   1      27.360  18.674   5.624  0.00  0.00     0.176 C 
BRANCH  10  11
HETATM   11  N   UNK N   1      28.263  18.045   4.654  0.00  0.00    -0.346 N 
HETATM   12  C   UNK N   1      28.102  16.935   3.873  0.00  0.00     0.241 C 
HETATM   13  O   UNK N   1      29.004  16.616   3.115  0.00  0.00    -0.271 OA
HETATM   14  H   UNK N   1      29.131  18.497   4.548  0.00  0.00     0.163 HD
BRANCH  12  15
HETATM   15  C   UNK N   1      26.836  16.124   3.872  0.00  0.00     0.176 C 
BRANCH  15  16
HETATM   16  N   UNK N   1      26.994  14.805   4.460  0.00  0.00    -0.348 N 
HETATM   17  C   UNK N   1      26.420  14.356   5.606  0.00  0.00     0.218 C 
HETATM   18  O   UNK N   1      26.550  13.182   5.909  0.00  0.00    -0.274 OA
HETATM   19  H   UNK N   1      27.577  14.173   3.979  0.00  0.00     0.163 HD
BRANCH  17  20
HETATM   20  C   UNK N   1      25.614  15.253   6.502  0.00  0.00     0.103 C 
BRANCH  20  21
HETATM   21  C   UNK N   1      24.120  14.930   6.460  0.00  0.00     0.009 C 
BRANCH  21  22
HETATM   22  C   UNK N   1      23.442  15.426   5.190  0.00  0.00     0.000 C 
BRANCH  22  23
HETATM   23  C   UNK N   1      23.231  16.936   5.196  0.00  0.00     0.000 C 
BRANCH  23  24
HETATM   24  C   UNK N   1      21.804  17.319   5.565  0.00  0.00     0.000 C 
BRANCH  24  25
HETATM   25  C   UNK N   1      20.804  16.522   4.744  0.00  0.00     0.000 C 
BRANCH  25  26
HETATM   26  C   UNK N   1      19.773  15.879   5.648  0.00  0.00     0.000 C 
BRANCH  26  27
HETATM   27  C   UNK N   1      20.025  14.383   5.737  0.00  0.00     0.000 C 
BRANCH  27  28
HETATM   28  C   UNK N   1      20.590  14.003   7.098  0.00  0.00     0.000 C 
BRANCH  28  29
HETATM   29  C   UNK N   1      20.371  15.116   8.109  0.00  0.00     0.000 C 
BRANCH  29  30
HETATM   30  C   UNK N   1      21.111  14.802   9.400  0.00  0.00     0.000 C 
BRANCH  30  31
HETATM   31  C   UNK N   1      21.128  13.304   9.643  0.00  0.00     0.000 C 
BRANCH  31  32
HETATM   32  C   UNK N   1      22.427  12.883  10.312  0.00  0.00    -0.000 C 
BRANCH  32  33
HETATM   33  C   UNK N   1      22.148  11.927  11.459  0.00  0.00    -0.005 C 
HETATM   34  C   UNK N   1      23.273  11.964  12.473  0.00  0.00     0.005 C 
ENDBRANCH  32  33
ENDBRANCH  31  32
ENDBRANCH  30  31
ENDBRANCH  29  30
ENDBRANCH  28  29
ENDBRANCH  27  28
ENDBRANCH  26  27
ENDBRANCH  25  26
ENDBRANCH  24  25
ENDBRANCH  23  24
ENDBRANCH  22  23
ENDBRANCH  21  22
ENDBRANCH  20  21
ENDBRANCH  17  20
ENDBRANCH  15  16
BRANCH  15  35
HETATM   35  C   UNK N   1      26.321  15.955   2.448  0.00  0.00     0.035 C 
BRANCH  35  36
HETATM   36  C   UNK N   1      25.624  14.613   2.252  0.00  0.00     0.004 C 
BRANCH  36  37
HETATM   37  C   UNK N   1      24.542  14.682   1.189  0.00  0.00     0.019 C 
BRANCH  37  38
HETATM   38  C   UNK N   1      24.106  13.281   0.806  0.00  0.00     0.111 C 
BRANCH  38  39
HETATM   39  N   UNK N   1      22.669  13.149   0.964  0.00  0.00    -0.430 N 
HETATM   40  H   UNK N   1      22.274  12.909   1.874  0.00  0.00     0.149 HD
HETATM   41  H   UNK N   1      22.053  13.297   0.165  0.00  0.00     0.149 HD
ENDBRANCH  38  39
ENDBRANCH  37  38
ENDBRANCH  36  37
ENDBRANCH  35  36
ENDBRANCH  15  35
ENDBRANCH  12  15
ENDBRANCH  10  11
BRANCH  10  42
HETATM   42  C   UNK N   1      26.121  19.185   4.907  0.00  0.00     0.035 C 
BRANCH  42  43
HETATM   43  C   UNK N   1      26.521  19.926   3.639  0.00  0.00     0.004 C 
BRANCH  43  44
HETATM   44  C   UNK N   1      25.308  20.156   2.749  0.00  0.00     0.019 C 
BRANCH  44  45
HETATM   45  C   UNK N   1      24.007  19.983   3.525  0.00  0.00     0.111 C 
BRANCH  45  46
HETATM   46  N   UNK N   1      22.888  20.509   2.762  0.00  0.00    -0.430 N 
HETATM   47  H   UNK N   1      21.990  20.719   2.327  0.00  0.00     0.149 HD
HETATM   48  H   UNK N   1      23.412  21.249   2.296  0.00  0.00     0.149 HD
ENDBRANCH  45  46
ENDBRANCH  44  45
ENDBRANCH  43  44
ENDBRANCH  42  43
ENDBRANCH  10  42
ENDBRANCH   7  10
ENDBRANCH   5   6
BRANCH   5  49
HETATM   49  C   UNK N   1      27.990  17.390   8.195  0.00  0.00     0.199 C 
BRANCH  49  50
HETATM   50  O   UNK N   1      27.391  17.818   9.380  0.00  0.00    -0.398 OA
HETATM   51  H   UNK N   1      27.750  18.522   9.942  0.00  0.00     0.209 HD
ENDBRANCH  49  50
ENDBRANCH   5  49
ENDBRANCH   1   5
BRANCH   3  52
HETATM   52  C   UNK N   1      31.972  16.874   7.859  0.00  0.00     0.176 C 
BRANCH  52  53
HETATM   53  C   UNK N   1      31.685  15.381   7.937  0.00  0.00     0.036 C 
BRANCH  53  54
HETATM   54  C   UNK N   1      31.891  14.680   6.615  0.00  0.00     0.023 C 
BRANCH  54  55
HETATM   55  C   UNK N   1      31.117  15.452   5.567  0.00  0.00     0.138 C 
BRANCH  55  56
HETATM   56  N   UNK N   1      31.840  15.444   4.320  0.00  0.00    -0.227 N 
HETATM   57  C   UNK N   1      32.169  16.650   3.651  0.00  0.00     0.665 C 
HETATM   58  N   UNK N   1      31.748  17.777   4.093  0.00  0.00    -0.235 N 
HETATM   59  N   UNK N   1      32.949  16.610   2.476  0.00  0.00    -0.235 N 
HETATM   60  H   UNK N   1      31.705  18.614   3.575  0.00  0.00     0.174 HD
ATOM     61  HN  UNK N   1      31.430  17.810   5.062  1.00  0.00     0.174 HD
HETATM   62  H   UNK N   1      33.167  15.766   2.019  0.00  0.00     0.174 HD
HETATM   63  H   UNK N   1      33.288  17.455   2.101  0.00  0.00     0.174 HD
HETATM   64  H   UNK N   1      32.108  14.583   3.924  0.00  0.00     0.177 HD
ENDBRANCH  55  56
ENDBRANCH  54  55
ENDBRANCH  53  54
ENDBRANCH  52  53
BRANCH  52  65
HETATM   65  C   UNK N   1      33.394  17.319   7.544  0.00  0.00     0.241 C 
HETATM   66  O   UNK N   1      33.562  18.004   6.550  0.00  0.00    -0.271 OA
HETATM   67  N   UNK N   1      34.487  17.001   8.296  0.00  0.00    -0.346 N 
HETATM   68  H   UNK N   1      35.351  17.363   7.991  0.00  0.00     0.163 HD
BRANCH  67  69
HETATM   69  C   UNK N   1      34.515  16.192   9.495  0.00  0.00     0.172 C 
HETATM   70  C   UNK N   1      35.124  17.024  10.610  0.00  0.00     0.042 C 
BRANCH  69  71
HETATM   71  C   UNK N   1      35.347  14.946   9.317  0.00  0.00     0.240 C 
HETATM   72  O   UNK N   1      34.964  14.076   8.550  0.00  0.00    -0.271 OA
HETATM   73  N   UNK N   1      36.478  14.767  10.044  0.00  0.00    -0.346 N 
HETATM   74  H   UNK N   1      36.856  15.519  10.555  0.00  0.00     0.163 HD
BRANCH  73  75
HETATM   75  C   UNK N   1      37.127  13.484  10.072  0.00  0.00     0.177 C 
BRANCH  75  76
HETATM   76  C   UNK N   1      38.595  13.557   9.652  0.00  0.00     0.038 C 
BRANCH  76  77
HETATM   77  C   UNK N   1      38.901  12.591   8.501  0.00  0.00    -0.020 C 
HETATM   78  C   UNK N   1      39.530  11.329   9.052  0.00  0.00     0.009 C 
HETATM   79  C   UNK N   1      37.675  12.205   7.690  0.00  0.00     0.009 C 
ENDBRANCH  76  77
ENDBRANCH  75  76
BRANCH  75  80
HETATM   80  C   UNK N   1      36.919  12.938  11.449  0.00  0.00     0.241 C 
HETATM   81  O   UNK N   1      37.798  12.238  11.932  0.00  0.00    -0.271 OA
HETATM   82  N   UNK N   1      35.776  13.186  12.143  0.00  0.00    -0.346 N 
HETATM   83  H   UNK N   1      35.091  13.762  11.734  0.00  0.00     0.163 HD
BRANCH  82  84
HETATM   84  C   UNK N   1      35.524  12.638  13.464  0.00  0.00     0.180 C 
BRANCH  84  85
HETATM   85  C   UNK N   1      36.764  12.831  14.339  0.00  0.00     0.073 C 
BRANCH  85  86
HETATM   86  C   UNK N   1      36.502  13.646  15.549  0.00  0.00    -0.056 A 
HETATM   87  C   UNK N   1      37.201  14.840  15.754  0.00  0.00     0.007 A 
HETATM   88  C   UNK N   1      36.987  15.580  16.919  0.00  0.00     0.001 A 
HETATM   89  C   UNK N   1      36.076  15.126  17.878  0.00  0.00     0.000 A 
HETATM   90  C   UNK N   1      35.381  13.930  17.673  0.00  0.00     0.001 A 
HETATM   91  C   UNK N   1      35.599  13.187  16.511  0.00  0.00     0.007 A 
ENDBRANCH  85  86
ENDBRANCH  84  85
BRANCH  84  92
HETATM   92  C   UNK N   1      35.106  11.183  13.402  0.00  0.00     0.238 C 
HETATM   93  O   UNK N   1      33.922  10.889  13.459  0.00  0.00    -0.271 OA
HETATM   94  N   UNK N   1      36.023  10.203  13.260  0.00  0.00    -0.368 N 
HETATM   95  H   UNK N   1      36.922  10.389  12.902  0.00  0.00     0.159 HD
HETATM   96  H   UNK N   1      35.790   9.283  13.520  0.00  0.00     0.159 HD
ENDBRANCH  84  92
ENDBRANCH  82  84
ENDBRANCH  75  80
ENDBRANCH  73  75
ENDBRANCH  69  71
ENDBRANCH  67  69
ENDBRANCH  52  65
ENDBRANCH   3  52
TORSDOF 48
ENDMDL
MODEL 6
REMARK VINA RESULT:      -6.4      2.597     11.714
REMARK WARNING: 32 MAX_TORS EXCEEDED!!!
REMARK  48 active torsions:
REMARK  status: ('A' for Active; 'I' for Inactive)
REMARK    1  A    between atoms: C_2  and  C_3 
REMARK    2  A    between atoms: C_3  and  C_4 
REMARK    3  A    between atoms: C_4  and  C_5 
REMARK    4  A    between atoms: C_5  and  C_6 
REMARK    5  A    between atoms: C_6  and  C_7 
REMARK    6  A    between atoms: C_7  and  C_8 
REMARK    7  A    between atoms: C_8  and  C_9 
REMARK    8  A    between atoms: C_9  and  C_10 
REMARK    9  A    between atoms: C_10  and  C_11 
REMARK   10  A    between atoms: C_11  and  C_12 
REMARK   11  A    between atoms: C_12  and  C_13 
REMARK   12  A    between atoms: C_13  and  C_14 
REMARK   13  A    between atoms: C_14  and  C_15 
REMARK   14  A    between atoms: C_15  and  C_16 
REMARK       I    between atoms: C_16  and  N_18 
REMARK   15  A    between atoms: C_19  and  N_18 
REMARK   16  A    between atoms: C_19  and  C_20 
REMARK   17  A    between atoms: C_19  and  C_25 
REMARK   18  A    between atoms: C_20  and  C_21 
REMARK   19  A    between atoms: C_21  and  C_22 
REMARK   20  A    between atoms: C_22  and  C_23 
REMARK   21  A    between atoms: C_23  and  N_24 
REMARK       I    between atoms: C_25  and  N_27 
REMARK   22  A    between atoms: C_28  and  N_27 
REMARK   23  A    between atoms: C_28  and  C_29 
REMARK   24  A    between atoms: C_28  and  C_34 
REMARK   25  A    between atoms: C_29  and  C_30 
REMARK   26  A    between atoms: C_30  and  C_31 
REMARK   27  A    between atoms: C_31  and  C_32 
REMARK   28  A    between atoms: C_32  and  N_33 
REMARK       I    between atoms: C_34  and  N_36 
REMARK   29  A    between atoms: C_37  and  N_36 
REMARK   30  A    between atoms: C_37  and  C_38 
REMARK   31  A    between atoms: C_37  and  C_40 
REMARK   32  A    between atoms: C_38  and  O_39 
REMARK       I    between atoms: C_40  and  N_42 
REMARK   33  A    between atoms: C_43  and  N_42 
REMARK   34  A    between atoms: C_43  and  C_44 
REMARK   35  A    between atoms: C_43  and  C_52 
REMARK   36  A    between atoms: C_44  and  C_45 
REMARK   37  A    between atoms: C_45  and  C_46 
REMARK   38  A    between atoms: C_46  and  N_47 
REMARK       I    between atoms: N_47  and  C_48 
REMARK       I    between atoms: C_48  and  N_51 
REMARK       I    between atoms: C_52  and  N_54 
REMARK   39  A    between atoms: N_54  and  C_55 
REMARK   40  A    between atoms: C_55  and  C_57 
REMARK       I    between atoms: C_57  and  N_59 
REMARK   41  A    between atoms: C_60  and  N_59 
REMARK   42  A    between atoms: C_60  and  C_61 
REMARK   43  A    between atoms: C_60  and  C_65 
REMARK   44  A    between atoms: C_61  and  C_62 
REMARK       I    between atoms: C_65  and  N_67 
REMARK   45  A    between atoms: C_68  and  N_67 
REMARK   46  A    between atoms: C_68  and  C_69 
REMARK   47  A    between atoms: C_68  and  C_76 
REMARK   48  A    between atoms: C_69  and  C_70 
REMARK       I    between atoms: C_76  and  N_78 
ROOT
HETATM    1  C   UNK N   1      29.863  17.961   8.199  0.00  0.00     0.243 C 
HETATM    2  O   UNK N   1      29.828  18.455   9.312  0.00  0.00    -0.271 OA
HETATM    3  N   UNK N   1      30.981  17.275   7.831  0.00  0.00    -0.346 N 
HETATM    4  H   UNK N   1      31.703  17.210   8.497  0.00  0.00     0.163 HD
ENDROOT
BRANCH   1   5
HETATM    5  C   UNK N   1      28.694  18.168   7.250  0.00  0.00     0.200 C 
BRANCH   5   6
HETATM    6  N   UNK N   1      28.279  19.548   7.097  0.00  0.00    -0.344 N 
HETATM    7  C   UNK N   1      27.579  20.042   6.047  0.00  0.00     0.241 C 
HETATM    8  O   UNK N   1      27.171  21.190   6.106  0.00  0.00    -0.271 OA
HETATM    9  H   UNK N   1      28.524  20.177   7.813  0.00  0.00     0.163 HD
BRANCH   7  10
HETATM   10  C   UNK N   1      27.250  19.195   4.840  0.00  0.00     0.176 C 
BRANCH  10  11
HETATM   11  N   UNK N   1      28.355  18.429   4.251  0.00  0.00    -0.346 N 
HETATM   12  C   UNK N   1      28.403  17.146   3.784  0.00  0.00     0.241 C 
HETATM   13  O   UNK N   1      29.451  16.733   3.312  0.00  0.00    -0.271 OA
HETATM   14  H   UNK N   1      29.204  18.923   4.181  0.00  0.00     0.163 HD
BRANCH  12  15
HETATM   15  C   UNK N   1      27.202  16.240   3.782  0.00  0.00     0.176 C 
BRANCH  15  16
HETATM   16  N   UNK N   1      27.536  14.836   3.946  0.00  0.00    -0.348 N 
HETATM   17  C   UNK N   1      27.071  14.003   4.912  0.00  0.00     0.218 C 
HETATM   18  O   UNK N   1      27.348  12.816   4.848  0.00  0.00    -0.274 OA
HETATM   19  H   UNK N   1      28.163  14.451   3.291  0.00  0.00     0.163 HD
BRANCH  17  20
HETATM   20  C   UNK N   1      26.213  14.489   6.045  0.00  0.00     0.103 C 
BRANCH  20  21
HETATM   21  C   UNK N   1      25.077  13.521   6.374  0.00  0.00     0.009 C 
BRANCH  21  22
HETATM   22  C   UNK N   1      24.770  13.451   7.864  0.00  0.00     0.000 C 
BRANCH  22  23
HETATM   23  C   UNK N   1      24.080  12.149   8.255  0.00  0.00     0.000 C 
BRANCH  23  24
HETATM   24  C   UNK N   1      24.326  11.779   9.711  0.00  0.00     0.000 C 
BRANCH  24  25
HETATM   25  C   UNK N   1      23.033  11.347  10.383  0.00  0.00     0.000 C 
BRANCH  25  26
HETATM   26  C   UNK N   1      22.474  12.475  11.225  0.00  0.00     0.000 C 
BRANCH  26  27
HETATM   27  C   UNK N   1      20.971  12.308  11.383  0.00  0.00     0.000 C 
BRANCH  27  28
HETATM   28  C   UNK N   1      20.219  13.080  10.310  0.00  0.00     0.000 C 
BRANCH  28  29
HETATM   29  C   UNK N   1      21.093  14.168   9.707  0.00  0.00     0.000 C 
BRANCH  29  30
HETATM   30  C   UNK N   1      20.947  14.176   8.194  0.00  0.00     0.000 C 
BRANCH  30  31
HETATM   31  C   UNK N   1      21.681  15.366   7.602  0.00  0.00     0.000 C 
BRANCH  31  32
HETATM   32  C   UNK N   1      21.752  15.255   6.088  0.00  0.00    -0.000 C 
BRANCH  32  33
HETATM   33  C   UNK N   1      21.411  13.844   5.642  0.00  0.00    -0.005 C 
HETATM   34  C   UNK N   1      21.966  13.570   4.259  0.00  0.00     0.005 C 
ENDBRANCH  32  33
ENDBRANCH  31  32
ENDBRANCH  30  31
ENDBRANCH  29  30
ENDBRANCH  28  29
ENDBRANCH  27  28
ENDBRANCH  26  27
ENDBRANCH  25  26
ENDBRANCH  24  25
ENDBRANCH  23  24
ENDBRANCH  22  23
ENDBRANCH  21  22
ENDBRANCH  20  21
ENDBRANCH  17  20
ENDBRANCH  15  16
BRANCH  15  35
HETATM   35  C   UNK N   1      26.428  16.400   2.479  0.00  0.00     0.035 C 
BRANCH  35  36
HETATM   36  C   UNK N   1      26.189  15.058   1.794  0.00  0.00     0.004 C 
BRANCH  36  37
HETATM   37  C   UNK N   1      24.724  14.659   1.817  0.00  0.00     0.019 C 
BRANCH  37  38
HETATM   38  C   UNK N   1      24.586  13.188   1.473  0.00  0.00     0.111 C 
BRANCH  38  39
HETATM   39  N   UNK N   1      25.628  12.425   2.135  0.00  0.00    -0.430 N 
HETATM   40  H   UNK N   1      25.552  11.409   2.207  0.00  0.00     0.149 HD
HETATM   41  H   UNK N   1      26.438  12.903   2.528  0.00  0.00     0.149 HD
ENDBRANCH  38  39
ENDBRANCH  37  38
ENDBRANCH  36  37
ENDBRANCH  35  36
ENDBRANCH  15  35
ENDBRANCH  12  15
ENDBRANCH  10  11
BRANCH  10  42
HETATM   42  C   UNK N   1      26.604  20.058   3.769  0.00  0.00     0.035 C 
BRANCH  42  43
HETATM   43  C   UNK N   1      25.131  19.707   3.633  0.00  0.00     0.004 C 
BRANCH  43  44
HETATM   44  C   UNK N   1      24.725  18.684   4.683  0.00  0.00     0.019 C 
BRANCH  44  45
HETATM   45  C   UNK N   1      23.344  18.106   4.394  0.00  0.00     0.111 C 
BRANCH  45  46
HETATM   46  N   UNK N   1      22.494  19.110   3.776  0.00  0.00    -0.430 N 
HETATM   47  H   UNK N   1      21.895  19.673   3.173  0.00  0.00     0.149 HD
HETATM   48  H   UNK N   1      22.509  19.763   4.558  0.00  0.00     0.149 HD
ENDBRANCH  45  46
ENDBRANCH  44  45
ENDBRANCH  43  44
ENDBRANCH  42  43
ENDBRANCH  10  42
ENDBRANCH   7  10
ENDBRANCH   5   6
BRANCH   5  49
HETATM   49  C   UNK N   1      27.477  17.361   7.679  0.00  0.00     0.199 C 
BRANCH  49  50
HETATM   50  O   UNK N   1      27.423  17.237   9.067  0.00  0.00    -0.398 OA
HETATM   51  H   UNK N   1      28.133  17.526   9.663  0.00  0.00     0.209 HD
ENDBRANCH  49  50
ENDBRANCH   5  49
ENDBRANCH   1   5
BRANCH   3  52
HETATM   52  C   UNK N   1      31.208  16.629   6.548  0.00  0.00     0.176 C 
BRANCH  52  53
HETATM   53  C   UNK N   1      31.165  15.112   6.659  0.00  0.00     0.036 C 
BRANCH  53  54
HETATM   54  C   UNK N   1      30.692  14.449   5.387  0.00  0.00     0.023 C 
BRANCH  54  55
HETATM   55  C   UNK N   1      31.880  13.730   4.783  0.00  0.00     0.138 C 
BRANCH  55  56
HETATM   56  N   UNK N   1      32.271  14.376   3.556  0.00  0.00    -0.227 N 
HETATM   57  C   UNK N   1      33.623  14.724   3.305  0.00  0.00     0.665 C 
HETATM   58  N   UNK N   1      34.518  14.558   4.208  0.00  0.00    -0.235 N 
HETATM   59  N   UNK N   1      33.985  15.279   2.060  0.00  0.00    -0.235 N 
HETATM   60  H   UNK N   1      35.401  14.993   4.224  0.00  0.00     0.174 HD
ATOM     61  HN  UNK N   1      34.296  13.922   4.974  1.00  0.00     0.174 HD
HETATM   62  H   UNK N   1      33.315  15.564   1.397  0.00  0.00     0.174 HD
HETATM   63  H   UNK N   1      34.940  15.386   1.846  0.00  0.00     0.174 HD
HETATM   64  H   UNK N   1      31.586  14.581   2.879  0.00  0.00     0.177 HD
ENDBRANCH  55  56
ENDBRANCH  54  55
ENDBRANCH  53  54
ENDBRANCH  52  53
BRANCH  52  65
HETATM   65  C   UNK N   1      32.376  17.265   5.805  0.00  0.00     0.241 C 
HETATM   66  O   UNK N   1      32.221  17.513   4.621  0.00  0.00    -0.271 OA
HETATM   67  N   UNK N   1      33.578  17.570   6.372  0.00  0.00    -0.346 N 
HETATM   68  H   UNK N   1      34.247  17.991   5.784  0.00  0.00     0.163 HD
BRANCH  67  69
HETATM   69  C   UNK N   1      33.977  17.346   7.745  0.00  0.00     0.172 C 
HETATM   70  C   UNK N   1      34.670  18.601   8.244  0.00  0.00     0.042 C 
BRANCH  69  71
HETATM   71  C   UNK N   1      34.933  16.187   7.873  0.00  0.00     0.240 C 
HETATM   72  O   UNK N   1      35.325  15.619   6.864  0.00  0.00    -0.271 OA
HETATM   73  N   UNK N   1      35.309  15.741   9.097  0.00  0.00    -0.346 N 
HETATM   74  H   UNK N   1      35.106  16.276   9.898  0.00  0.00     0.163 HD
BRANCH  73  75
HETATM   75  C   UNK N   1      36.004  14.488   9.231  0.00  0.00     0.177 C 
BRANCH  75  76
HETATM   76  C   UNK N   1      37.326  14.625   9.987  0.00  0.00     0.038 C 
BRANCH  76  77
HETATM   77  C   UNK N   1      38.450  13.836   9.305  0.00  0.00    -0.020 C 
HETATM   78  C   UNK N   1      38.667  12.529  10.037  0.00  0.00     0.009 C 
HETATM   79  C   UNK N   1      38.176  13.530   7.841  0.00  0.00     0.009 C 
ENDBRANCH  76  77
ENDBRANCH  75  76
BRANCH  75  80
HETATM   80  C   UNK N   1      35.040  13.539   9.869  0.00  0.00     0.241 C 
HETATM   81  O   UNK N   1      34.248  13.982  10.689  0.00  0.00    -0.271 OA
HETATM   82  N   UNK N   1      35.053  12.211   9.571  0.00  0.00    -0.346 N 
HETATM   83  H   UNK N   1      35.694  11.885   8.900  0.00  0.00     0.163 HD
BRANCH  82  84
HETATM   84  C   UNK N   1      34.160  11.256  10.202  0.00  0.00     0.180 C 
BRANCH  84  85
HETATM   85  C   UNK N   1      34.949  10.404  11.199  0.00  0.00     0.073 C 
BRANCH  85  86
HETATM   86  C   UNK N   1      34.818  10.875  12.598  0.00  0.00    -0.056 A 
HETATM   87  C   UNK N   1      33.755  10.431  13.390  0.00  0.00     0.007 A 
HETATM   88  C   UNK N   1      33.608  10.915  14.692  0.00  0.00     0.001 A 
HETATM   89  C   UNK N   1      34.522  11.843  15.200  0.00  0.00     0.000 A 
HETATM   90  C   UNK N   1      35.582  12.289  14.405  0.00  0.00     0.001 A 
HETATM   91  C   UNK N   1      35.727  11.810  13.102  0.00  0.00     0.007 A 
ENDBRANCH  85  86
ENDBRANCH  84  85
BRANCH  84  92
HETATM   92  C   UNK N   1      33.439  10.398   9.182  0.00  0.00     0.238 C 
HETATM   93  O   UNK N   1      32.791  10.927   8.293  0.00  0.00    -0.271 OA
HETATM   94  N   UNK N   1      33.523   9.051   9.226  0.00  0.00    -0.368 N 
HETATM   95  H   UNK N   1      34.257   8.597   9.701  0.00  0.00     0.159 HD
HETATM   96  H   UNK N   1      32.836   8.510   8.774  0.00  0.00     0.159 HD
ENDBRANCH  84  92
ENDBRANCH  82  84
ENDBRANCH  75  80
ENDBRANCH  73  75
ENDBRANCH  69  71
ENDBRANCH  67  69
ENDBRANCH  52  65
ENDBRANCH   3  52
TORSDOF 48
ENDMDL
MODEL 7
REMARK VINA RESULT:      -6.4      4.406      8.624
REMARK WARNING: 32 MAX_TORS EXCEEDED!!!
REMARK  48 active torsions:
REMARK  status: ('A' for Active; 'I' for Inactive)
REMARK    1  A    between atoms: C_2  and  C_3 
REMARK    2  A    between atoms: C_3  and  C_4 
REMARK    3  A    between atoms: C_4  and  C_5 
REMARK    4  A    between atoms: C_5  and  C_6 
REMARK    5  A    between atoms: C_6  and  C_7 
REMARK    6  A    between atoms: C_7  and  C_8 
REMARK    7  A    between atoms: C_8  and  C_9 
REMARK    8  A    between atoms: C_9  and  C_10 
REMARK    9  A    between atoms: C_10  and  C_11 
REMARK   10  A    between atoms: C_11  and  C_12 
REMARK   11  A    between atoms: C_12  and  C_13 
REMARK   12  A    between atoms: C_13  and  C_14 
REMARK   13  A    between atoms: C_14  and  C_15 
REMARK   14  A    between atoms: C_15  and  C_16 
REMARK       I    between atoms: C_16  and  N_18 
REMARK   15  A    between atoms: C_19  and  N_18 
REMARK   16  A    between atoms: C_19  and  C_20 
REMARK   17  A    between atoms: C_19  and  C_25 
REMARK   18  A    between atoms: C_20  and  C_21 
REMARK   19  A    between atoms: C_21  and  C_22 
REMARK   20  A    between atoms: C_22  and  C_23 
REMARK   21  A    between atoms: C_23  and  N_24 
REMARK       I    between atoms: C_25  and  N_27 
REMARK   22  A    between atoms: C_28  and  N_27 
REMARK   23  A    between atoms: C_28  and  C_29 
REMARK   24  A    between atoms: C_28  and  C_34 
REMARK   25  A    between atoms: C_29  and  C_30 
REMARK   26  A    between atoms: C_30  and  C_31 
REMARK   27  A    between atoms: C_31  and  C_32 
REMARK   28  A    between atoms: C_32  and  N_33 
REMARK       I    between atoms: C_34  and  N_36 
REMARK   29  A    between atoms: C_37  and  N_36 
REMARK   30  A    between atoms: C_37  and  C_38 
REMARK   31  A    between atoms: C_37  and  C_40 
REMARK   32  A    between atoms: C_38  and  O_39 
REMARK       I    between atoms: C_40  and  N_42 
REMARK   33  A    between atoms: C_43  and  N_42 
REMARK   34  A    between atoms: C_43  and  C_44 
REMARK   35  A    between atoms: C_43  and  C_52 
REMARK   36  A    between atoms: C_44  and  C_45 
REMARK   37  A    between atoms: C_45  and  C_46 
REMARK   38  A    between atoms: C_46  and  N_47 
REMARK       I    between atoms: N_47  and  C_48 
REMARK       I    between atoms: C_48  and  N_51 
REMARK       I    between atoms: C_52  and  N_54 
REMARK   39  A    between atoms: N_54  and  C_55 
REMARK   40  A    between atoms: C_55  and  C_57 
REMARK       I    between atoms: C_57  and  N_59 
REMARK   41  A    between atoms: C_60  and  N_59 
REMARK   42  A    between atoms: C_60  and  C_61 
REMARK   43  A    between atoms: C_60  and  C_65 
REMARK   44  A    between atoms: C_61  and  C_62 
REMARK       I    between atoms: C_65  and  N_67 
REMARK   45  A    between atoms: C_68  and  N_67 
REMARK   46  A    between atoms: C_68  and  C_69 
REMARK   47  A    between atoms: C_68  and  C_76 
REMARK   48  A    between atoms: C_69  and  C_70 
REMARK       I    between atoms: C_76  and  N_78 
ROOT
HETATM    1  C   UNK N   1      20.965  16.325   6.444  0.00  0.00     0.243 C 
HETATM    2  O   UNK N   1      20.894  16.485   7.650  0.00  0.00    -0.271 OA
HETATM    3  N   UNK N   1      19.987  15.604   5.830  0.00  0.00    -0.346 N 
HETATM    4  H   UNK N   1      19.265  15.255   6.401  0.00  0.00     0.163 HD
ENDROOT
BRANCH   1   5
HETATM    5  C   UNK N   1      22.156  16.884   5.683  0.00  0.00     0.200 C 
BRANCH   5   6
HETATM    6  N   UNK N   1      23.440  16.362   6.104  0.00  0.00    -0.344 N 
HETATM    7  C   UNK N   1      24.544  16.277   5.323  0.00  0.00     0.241 C 
HETATM    8  O   UNK N   1      25.599  15.950   5.839  0.00  0.00    -0.271 OA
HETATM    9  H   UNK N   1      23.517  16.043   7.033  0.00  0.00     0.163 HD
BRANCH   7  10
HETATM   10  C   UNK N   1      24.509  16.629   3.854  0.00  0.00     0.176 C 
BRANCH  10  11
HETATM   11  N   UNK N   1      24.245  15.529   2.919  0.00  0.00    -0.346 N 
HETATM   12  C   UNK N   1      24.921  14.362   2.701  0.00  0.00     0.241 C 
HETATM   13  O   UNK N   1      24.487  13.581   1.869  0.00  0.00    -0.271 OA
HETATM   14  H   UNK N   1      23.448  15.653   2.355  0.00  0.00     0.163 HD
BRANCH  12  15
HETATM   15  C   UNK N   1      26.148  13.979   3.481  0.00  0.00     0.176 C 
BRANCH  15  16
HETATM   16  N   UNK N   1      27.363  13.984   2.687  0.00  0.00    -0.348 N 
HETATM   17  C   UNK N   1      28.556  14.533   3.038  0.00  0.00     0.218 C 
HETATM   18  O   UNK N   1      29.522  14.350   2.316  0.00  0.00    -0.274 OA
HETATM   19  H   UNK N   1      27.319  13.546   1.806  0.00  0.00     0.163 HD
BRANCH  17  20
HETATM   20  C   UNK N   1      28.728  15.339   4.294  0.00  0.00     0.103 C 
BRANCH  20  21
HETATM   21  C   UNK N   1      29.371  16.700   4.030  0.00  0.00     0.009 C 
BRANCH  21  22
HETATM   22  C   UNK N   1      29.602  17.503   5.303  0.00  0.00     0.000 C 
BRANCH  22  23
HETATM   23  C   UNK N   1      28.784  16.978   6.478  0.00  0.00     0.000 C 
BRANCH  23  24
HETATM   24  C   UNK N   1      28.498  18.058   7.512  0.00  0.00     0.000 C 
BRANCH  24  25
HETATM   25  C   UNK N   1      29.109  17.693   8.854  0.00  0.00     0.000 C 
BRANCH  25  26
HETATM   26  C   UNK N   1      30.169  18.703   9.242  0.00  0.00     0.000 C 
BRANCH  26  27
HETATM   27  C   UNK N   1      31.508  18.303   8.643  0.00  0.00     0.000 C 
BRANCH  27  28
HETATM   28  C   UNK N   1      31.660  16.791   8.602  0.00  0.00     0.000 C 
BRANCH  28  29
HETATM   29  C   UNK N   1      32.892  16.387   7.808  0.00  0.00     0.000 C 
BRANCH  29  30
HETATM   30  C   UNK N   1      33.475  17.599   7.098  0.00  0.00     0.000 C 
BRANCH  30  31
HETATM   31  C   UNK N   1      33.320  17.451   5.595  0.00  0.00     0.000 C 
BRANCH  31  32
HETATM   32  C   UNK N   1      33.030  16.005   5.224  0.00  0.00    -0.000 C 
BRANCH  32  33
HETATM   33  C   UNK N   1      33.470  15.724   3.798  0.00  0.00    -0.005 C 
HETATM   34  C   UNK N   1      32.826  16.702   2.836  0.00  0.00     0.005 C 
ENDBRANCH  32  33
ENDBRANCH  31  32
ENDBRANCH  30  31
ENDBRANCH  29  30
ENDBRANCH  28  29
ENDBRANCH  27  28
ENDBRANCH  26  27
ENDBRANCH  25  26
ENDBRANCH  24  25
ENDBRANCH  23  24
ENDBRANCH  22  23
ENDBRANCH  21  22
ENDBRANCH  20  21
ENDBRANCH  17  20
ENDBRANCH  15  16
BRANCH  15  35
HETATM   35  C   UNK N   1      25.974  12.589   4.083  0.00  0.00     0.035 C 
BRANCH  35  36
HETATM   36  C   UNK N   1      27.235  12.119   4.799  0.00  0.00     0.004 C 
BRANCH  36  37
HETATM   37  C   UNK N   1      27.751  10.804   4.244  0.00  0.00     0.019 C 
BRANCH  37  38
HETATM   38  C   UNK N   1      29.194  10.598   4.663  0.00  0.00     0.111 C 
BRANCH  38  39
HETATM   39  N   UNK N   1      29.325   9.348   5.390  0.00  0.00    -0.430 N 
HETATM   40  H   UNK N   1      29.523   8.482   4.888  0.00  0.00     0.149 HD
HETATM   41  H   UNK N   1      29.219   9.336   6.404  0.00  0.00     0.149 HD
ENDBRANCH  38  39
ENDBRANCH  37  38
ENDBRANCH  36  37
ENDBRANCH  35  36
ENDBRANCH  15  35
ENDBRANCH  12  15
ENDBRANCH  10  11
BRANCH  10  42
HETATM   42  C   UNK N   1      25.802  17.327   3.465  0.00  0.00     0.035 C 
BRANCH  42  43
HETATM   43  C   UNK N   1      25.628  18.836   3.554  0.00  0.00     0.004 C 
BRANCH  43  44
HETATM   44  C   UNK N   1      26.974  19.519   3.741  0.00  0.00     0.019 C 
BRANCH  44  45
HETATM   45  C   UNK N   1      27.017  20.320   5.038  0.00  0.00     0.111 C 
BRANCH  45  46
HETATM   46  N   UNK N   1      25.915  19.940   5.905  0.00  0.00    -0.430 N 
HETATM   47  H   UNK N   1      25.038  19.842   6.417  0.00  0.00     0.149 HD
HETATM   48  H   UNK N   1      26.391  19.157   6.352  0.00  0.00     0.149 HD
ENDBRANCH  45  46
ENDBRANCH  44  45
ENDBRANCH  43  44
ENDBRANCH  42  43
ENDBRANCH  10  42
ENDBRANCH   7  10
ENDBRANCH   5   6
BRANCH   5  49
HETATM   49  C   UNK N   1      22.217  18.402   5.778  0.00  0.00     0.199 C 
BRANCH  49  50
HETATM   50  O   UNK N   1      20.946  18.963   5.642  0.00  0.00    -0.398 OA
HETATM   51  H   UNK N   1      20.563  19.590   6.274  0.00  0.00     0.209 HD
ENDBRANCH  49  50
ENDBRANCH   5  49
ENDBRANCH   1   5
BRANCH   3  52
HETATM   52  C   UNK N   1      19.908  15.301   4.410  0.00  0.00     0.176 C 
BRANCH  52  53
HETATM   53  C   UNK N   1      19.624  16.543   3.578  0.00  0.00     0.036 C 
BRANCH  53  54
HETATM   54  C   UNK N   1      20.566  16.686   2.406  0.00  0.00     0.023 C 
BRANCH  54  55
HETATM   55  C   UNK N   1      20.177  17.945   1.662  0.00  0.00     0.138 C 
BRANCH  55  56
HETATM   56  N   UNK N   1      20.631  19.104   2.390  0.00  0.00    -0.227 N 
HETATM   57  C   UNK N   1      20.693  20.381   1.777  0.00  0.00     0.665 C 
HETATM   58  N   UNK N   1      20.436  20.519   0.529  0.00  0.00    -0.235 N 
HETATM   59  N   UNK N   1      21.062  21.508   2.541  0.00  0.00    -0.235 N 
HETATM   60  H   UNK N   1      20.694  21.291  -0.026  0.00  0.00     0.174 HD
ATOM     61  HN  UNK N   1      19.920  19.767   0.072  1.00  0.00     0.174 HD
HETATM   62  H   UNK N   1      21.412  21.430   3.457  0.00  0.00     0.174 HD
HETATM   63  H   UNK N   1      20.966  22.404   2.143  0.00  0.00     0.174 HD
HETATM   64  H   UNK N   1      20.906  19.005   3.330  0.00  0.00     0.177 HD
ENDBRANCH  55  56
ENDBRANCH  54  55
ENDBRANCH  53  54
ENDBRANCH  52  53
BRANCH  52  65
HETATM   65  C   UNK N   1      19.071  14.054   4.153  0.00  0.00     0.241 C 
HETATM   66  O   UNK N   1      18.100  13.872   4.865  0.00  0.00    -0.271 OA
HETATM   67  N   UNK N   1      19.338  13.131   3.184  0.00  0.00    -0.346 N 
HETATM   68  H   UNK N   1      18.711  12.375   3.113  0.00  0.00     0.163 HD
BRANCH  67  69
HETATM   69  C   UNK N   1      20.441  13.143   2.248  0.00  0.00     0.172 C 
HETATM   70  C   UNK N   1      19.887  13.469   0.873  0.00  0.00     0.042 C 
BRANCH  69  71
HETATM   71  C   UNK N   1      21.139  11.808   2.179  0.00  0.00     0.240 C 
HETATM   72  O   UNK N   1      20.651  10.911   1.509  0.00  0.00    -0.271 OA
HETATM   73  N   UNK N   1      22.266  11.586   2.900  0.00  0.00    -0.346 N 
HETATM   74  H   UNK N   1      22.732  12.341   3.328  0.00  0.00     0.163 HD
BRANCH  73  75
HETATM   75  C   UNK N   1      22.785  10.252   3.043  0.00  0.00     0.177 C 
BRANCH  75  76
HETATM   76  C   UNK N   1      24.251  10.142   2.627  0.00  0.00     0.038 C 
BRANCH  76  77
HETATM   77  C   UNK N   1      24.464   9.022   1.601  0.00  0.00    -0.020 C 
HETATM   78  C   UNK N   1      23.559   9.248   0.409  0.00  0.00     0.009 C 
HETATM   79  C   UNK N   1      25.898   8.917   1.106  0.00  0.00     0.009 C 
ENDBRANCH  76  77
ENDBRANCH  75  76
BRANCH  75  80
HETATM   80  C   UNK N   1      22.528   9.851   4.461  0.00  0.00     0.241 C 
HETATM   81  O   UNK N   1      21.388   9.542   4.779  0.00  0.00    -0.271 OA
HETATM   82  N   UNK N   1      23.525   9.851   5.388  0.00  0.00    -0.346 N 
HETATM   83  H   UNK N   1      24.435  10.094   5.101  0.00  0.00     0.163 HD
BRANCH  82  84
HETATM   84  C   UNK N   1      23.303   9.508   6.781  0.00  0.00     0.180 C 
BRANCH  84  85
HETATM   85  C   UNK N   1      24.030  10.515   7.674  0.00  0.00     0.073 C 
BRANCH  85  86
HETATM   86  C   UNK N   1      23.109  11.411   8.412  0.00  0.00    -0.056 A 
HETATM   87  C   UNK N   1      23.091  11.401   9.810  0.00  0.00     0.007 A 
HETATM   88  C   UNK N   1      22.188  12.211  10.501  0.00  0.00     0.001 A 
HETATM   89  C   UNK N   1      21.301  13.029   9.793  0.00  0.00     0.000 A 
HETATM   90  C   UNK N   1      21.318  13.036   8.395  0.00  0.00     0.001 A 
HETATM   91  C   UNK N   1      22.217  12.222   7.705  0.00  0.00     0.007 A 
ENDBRANCH  85  86
ENDBRANCH  84  85
BRANCH  84  92
HETATM   92  C   UNK N   1      23.724   8.085   7.086  0.00  0.00     0.238 C 
HETATM   93  O   UNK N   1      22.878   7.209   7.179  0.00  0.00    -0.271 OA
HETATM   94  N   UNK N   1      25.026   7.763   7.232  0.00  0.00    -0.368 N 
HETATM   95  H   UNK N   1      25.741   8.334   6.867  0.00  0.00     0.159 HD
HETATM   96  H   UNK N   1      25.268   6.940   7.715  0.00  0.00     0.159 HD
ENDBRANCH  84  92
ENDBRANCH  82  84
ENDBRANCH  75  80
ENDBRANCH  73  75
ENDBRANCH  69  71
ENDBRANCH  67  69
ENDBRANCH  52  65
ENDBRANCH   3  52
TORSDOF 48
ENDMDL
MODEL 8
REMARK VINA RESULT:      -6.3      3.790     11.318
REMARK WARNING: 32 MAX_TORS EXCEEDED!!!
REMARK  48 active torsions:
REMARK  status: ('A' for Active; 'I' for Inactive)
REMARK    1  A    between atoms: C_2  and  C_3 
REMARK    2  A    between atoms: C_3  and  C_4 
REMARK    3  A    between atoms: C_4  and  C_5 
REMARK    4  A    between atoms: C_5  and  C_6 
REMARK    5  A    between atoms: C_6  and  C_7 
REMARK    6  A    between atoms: C_7  and  C_8 
REMARK    7  A    between atoms: C_8  and  C_9 
REMARK    8  A    between atoms: C_9  and  C_10 
REMARK    9  A    between atoms: C_10  and  C_11 
REMARK   10  A    between atoms: C_11  and  C_12 
REMARK   11  A    between atoms: C_12  and  C_13 
REMARK   12  A    between atoms: C_13  and  C_14 
REMARK   13  A    between atoms: C_14  and  C_15 
REMARK   14  A    between atoms: C_15  and  C_16 
REMARK       I    between atoms: C_16  and  N_18 
REMARK   15  A    between atoms: C_19  and  N_18 
REMARK   16  A    between atoms: C_19  and  C_20 
REMARK   17  A    between atoms: C_19  and  C_25 
REMARK   18  A    between atoms: C_20  and  C_21 
REMARK   19  A    between atoms: C_21  and  C_22 
REMARK   20  A    between atoms: C_22  and  C_23 
REMARK   21  A    between atoms: C_23  and  N_24 
REMARK       I    between atoms: C_25  and  N_27 
REMARK   22  A    between atoms: C_28  and  N_27 
REMARK   23  A    between atoms: C_28  and  C_29 
REMARK   24  A    between atoms: C_28  and  C_34 
REMARK   25  A    between atoms: C_29  and  C_30 
REMARK   26  A    between atoms: C_30  and  C_31 
REMARK   27  A    between atoms: C_31  and  C_32 
REMARK   28  A    between atoms: C_32  and  N_33 
REMARK       I    between atoms: C_34  and  N_36 
REMARK   29  A    between atoms: C_37  and  N_36 
REMARK   30  A    between atoms: C_37  and  C_38 
REMARK   31  A    between atoms: C_37  and  C_40 
REMARK   32  A    between atoms: C_38  and  O_39 
REMARK       I    between atoms: C_40  and  N_42 
REMARK   33  A    between atoms: C_43  and  N_42 
REMARK   34  A    between atoms: C_43  and  C_44 
REMARK   35  A    between atoms: C_43  and  C_52 
REMARK   36  A    between atoms: C_44  and  C_45 
REMARK   37  A    between atoms: C_45  and  C_46 
REMARK   38  A    between atoms: C_46  and  N_47 
REMARK       I    between atoms: N_47  and  C_48 
REMARK       I    between atoms: C_48  and  N_51 
REMARK       I    between atoms: C_52  and  N_54 
REMARK   39  A    between atoms: N_54  and  C_55 
REMARK   40  A    between atoms: C_55  and  C_57 
REMARK       I    between atoms: C_57  and  N_59 
REMARK   41  A    between atoms: C_60  and  N_59 
REMARK   42  A    between atoms: C_60  and  C_61 
REMARK   43  A    between atoms: C_60  and  C_65 
REMARK   44  A    between atoms: C_61  and  C_62 
REMARK       I    between atoms: C_65  and  N_67 
REMARK   45  A    between atoms: C_68  and  N_67 
REMARK   46  A    between atoms: C_68  and  C_69 
REMARK   47  A    between atoms: C_68  and  C_76 
REMARK   48  A    between atoms: C_69  and  C_70 
REMARK       I    between atoms: C_76  and  N_78 
ROOT
HETATM    1  C   UNK N   1      20.348  14.241   5.458  0.00  0.00     0.243 C 
HETATM    2  O   UNK N   1      19.251  13.753   5.247  0.00  0.00    -0.271 OA
HETATM    3  N   UNK N   1      20.534  15.560   5.177  0.00  0.00    -0.346 N 
HETATM    4  H   UNK N   1      19.759  16.054   4.821  0.00  0.00     0.163 HD
ENDROOT
BRANCH   1   5
HETATM    5  C   UNK N   1      21.474  13.358   5.972  0.00  0.00     0.200 C 
BRANCH   5   6
HETATM    6  N   UNK N   1      21.544  12.050   5.354  0.00  0.00    -0.344 N 
HETATM    7  C   UNK N   1      22.617  11.554   4.691  0.00  0.00     0.241 C 
HETATM    8  O   UNK N   1      22.598  10.386   4.341  0.00  0.00    -0.271 OA
HETATM    9  H   UNK N   1      20.749  11.473   5.422  0.00  0.00     0.163 HD
BRANCH   7  10
HETATM   10  C   UNK N   1      23.847  12.392   4.428  0.00  0.00     0.176 C 
BRANCH  10  11
HETATM   11  N   UNK N   1      23.671  13.566   3.565  0.00  0.00    -0.346 N 
HETATM   12  C   UNK N   1      22.995  13.715   2.386  0.00  0.00     0.241 C 
HETATM   13  O   UNK N   1      22.975  14.815   1.857  0.00  0.00    -0.271 OA
HETATM   14  H   UNK N   1      24.115  14.383   3.888  0.00  0.00     0.163 HD
BRANCH  12  15
HETATM   15  C   UNK N   1      22.233  12.589   1.744  0.00  0.00     0.176 C 
BRANCH  15  16
HETATM   16  N   UNK N   1      22.553  12.401   0.340  0.00  0.00    -0.348 N 
HETATM   17  C   UNK N   1      23.396  11.470  -0.179  0.00  0.00     0.218 C 
HETATM   18  O   UNK N   1      23.471  11.355  -1.391  0.00  0.00    -0.274 OA
HETATM   19  H   UNK N   1      22.116  13.009  -0.300  0.00  0.00     0.163 HD
BRANCH  17  20
HETATM   20  C   UNK N   1      24.224  10.566   0.690  0.00  0.00     0.103 C 
BRANCH  20  21
HETATM   21  C   UNK N   1      25.687  11.003   0.760  0.00  0.00     0.009 C 
BRANCH  21  22
HETATM   22  C   UNK N   1      26.657   9.829   0.741  0.00  0.00     0.000 C 
BRANCH  22  23
HETATM   23  C   UNK N   1      28.112  10.276   0.826  0.00  0.00     0.000 C 
BRANCH  23  24
HETATM   24  C   UNK N   1      28.340  11.291   1.937  0.00  0.00     0.000 C 
BRANCH  24  25
HETATM   25  C   UNK N   1      29.784  11.255   2.411  0.00  0.00     0.000 C 
BRANCH  25  26
HETATM   26  C   UNK N   1      30.666  12.050   1.471  0.00  0.00     0.000 C 
BRANCH  26  27
HETATM   27  C   UNK N   1      31.363  13.165   2.234  0.00  0.00     0.000 C 
BRANCH  27  28
HETATM   28  C   UNK N   1      32.702  12.700   2.784  0.00  0.00     0.000 C 
BRANCH  28  29
HETATM   29  C   UNK N   1      32.886  13.147   4.224  0.00  0.00     0.000 C 
BRANCH  29  30
HETATM   30  C   UNK N   1      31.554  13.594   4.807  0.00  0.00     0.000 C 
BRANCH  30  31
HETATM   31  C   UNK N   1      31.668  15.005   5.355  0.00  0.00     0.000 C 
BRANCH  31  32
HETATM   32  C   UNK N   1      33.078  15.542   5.169  0.00  0.00    -0.000 C 
BRANCH  32  33
HETATM   33  C   UNK N   1      33.046  16.878   4.448  0.00  0.00    -0.005 C 
HETATM   34  C   UNK N   1      32.203  16.790   3.192  0.00  0.00     0.005 C 
ENDBRANCH  32  33
ENDBRANCH  31  32
ENDBRANCH  30  31
ENDBRANCH  29  30
ENDBRANCH  28  29
ENDBRANCH  27  28
ENDBRANCH  26  27
ENDBRANCH  25  26
ENDBRANCH  24  25
ENDBRANCH  23  24
ENDBRANCH  22  23
ENDBRANCH  21  22
ENDBRANCH  20  21
ENDBRANCH  17  20
ENDBRANCH  15  16
BRANCH  15  35
HETATM   35  C   UNK N   1      20.733  12.836   1.864  0.00  0.00     0.035 C 
BRANCH  35  36
HETATM   36  C   UNK N   1      20.077  13.015   0.499  0.00  0.00     0.004 C 
BRANCH  36  37
HETATM   37  C   UNK N   1      18.930  14.009   0.544  0.00  0.00     0.019 C 
BRANCH  37  38
HETATM   38  C   UNK N   1      19.474  15.425   0.522  0.00  0.00     0.111 C 
BRANCH  38  39
HETATM   39  N   UNK N   1      18.502  16.319  -0.079  0.00  0.00    -0.430 N 
HETATM   40  H   UNK N   1      18.315  16.274  -1.081  0.00  0.00     0.149 HD
HETATM   41  H   UNK N   1      18.005  16.994   0.501  0.00  0.00     0.149 HD
ENDBRANCH  38  39
ENDBRANCH  37  38
ENDBRANCH  36  37
ENDBRANCH  35  36
ENDBRANCH  15  35
ENDBRANCH  12  15
ENDBRANCH  10  11
BRANCH  10  42
HETATM   42  C   UNK N   1      24.955  11.514   3.871  0.00  0.00     0.035 C 
BRANCH  42  43
HETATM   43  C   UNK N   1      25.838  11.007   5.001  0.00  0.00     0.004 C 
BRANCH  43  44
HETATM   44  C   UNK N   1      26.418   9.644   4.657  0.00  0.00     0.019 C 
BRANCH  44  45
HETATM   45  C   UNK N   1      25.456   8.519   5.023  0.00  0.00     0.111 C 
BRANCH  45  46
HETATM   46  N   UNK N   1      24.652   8.895   6.173  0.00  0.00    -0.430 N 
HETATM   47  H   UNK N   1      24.278   9.233   7.060  0.00  0.00     0.149 HD
HETATM   48  H   UNK N   1      23.766   8.549   5.806  0.00  0.00     0.149 HD
ENDBRANCH  45  46
ENDBRANCH  44  45
ENDBRANCH  43  44
ENDBRANCH  42  43
ENDBRANCH  10  42
ENDBRANCH   7  10
ENDBRANCH   5   6
BRANCH   5  49
HETATM   49  C   UNK N   1      21.383  13.158   7.478  0.00  0.00     0.199 C 
BRANCH  49  50
HETATM   50  O   UNK N   1      20.275  13.822   8.005  0.00  0.00    -0.398 OA
HETATM   51  H   UNK N   1      20.205  14.788   8.069  0.00  0.00     0.209 HD
ENDBRANCH  49  50
ENDBRANCH   5  49
ENDBRANCH   1   5
BRANCH   3  52
HETATM   52  C   UNK N   1      21.768  16.309   5.351  0.00  0.00     0.176 C 
BRANCH  52  53
HETATM   53  C   UNK N   1      21.842  16.973   6.719  0.00  0.00     0.036 C 
BRANCH  53  54
HETATM   54  C   UNK N   1      20.703  17.933   6.962  0.00  0.00     0.023 C 
BRANCH  54  55
HETATM   55  C   UNK N   1      19.904  17.402   8.133  0.00  0.00     0.138 C 
BRANCH  55  56
HETATM   56  N   UNK N   1      19.727  18.440   9.117  0.00  0.00    -0.227 N 
HETATM   57  C   UNK N   1      18.529  18.548   9.867  0.00  0.00     0.665 C 
HETATM   58  N   UNK N   1      17.532  17.780   9.620  0.00  0.00    -0.235 N 
HETATM   59  N   UNK N   1      18.422  19.523  10.881  0.00  0.00    -0.235 N 
HETATM   60  H   UNK N   1      16.602  17.943   9.897  0.00  0.00     0.174 HD
ATOM     61  HN  UNK N   1      17.719  16.928   9.090  1.00  0.00     0.174 HD
HETATM   62  H   UNK N   1      19.097  20.228  11.005  0.00  0.00     0.174 HD
HETATM   63  H   UNK N   1      17.644  19.497  11.485  0.00  0.00     0.174 HD
HETATM   64  H   UNK N   1      20.453  19.087   9.270  0.00  0.00     0.177 HD
ENDBRANCH  55  56
ENDBRANCH  54  55
ENDBRANCH  53  54
ENDBRANCH  52  53
BRANCH  52  65
HETATM   65  C   UNK N   1      22.085  17.153   4.123  0.00  0.00     0.241 C 
HETATM   66  O   UNK N   1      21.303  17.104   3.190  0.00  0.00    -0.271 OA
HETATM   67  N   UNK N   1      23.182  17.954   3.998  0.00  0.00    -0.346 N 
HETATM   68  H   UNK N   1      23.265  18.458   3.157  0.00  0.00     0.163 HD
BRANCH  67  69
HETATM   69  C   UNK N   1      24.238  18.144   4.969  0.00  0.00     0.172 C 
HETATM   70  C   UNK N   1      24.784  19.551   4.801  0.00  0.00     0.042 C 
BRANCH  69  71
HETATM   71  C   UNK N   1      25.368  17.165   4.775  0.00  0.00     0.240 C 
HETATM   72  O   UNK N   1      25.127  15.967   4.760  0.00  0.00    -0.271 OA
HETATM   73  N   UNK N   1      26.647  17.605   4.676  0.00  0.00    -0.346 N 
HETATM   74  H   UNK N   1      26.827  18.565   4.550  0.00  0.00     0.163 HD
BRANCH  73  75
HETATM   75  C   UNK N   1      27.742  16.675   4.752  0.00  0.00     0.177 C 
BRANCH  75  76
HETATM   76  C   UNK N   1      28.339  16.353   3.382  0.00  0.00     0.038 C 
BRANCH  76  77
HETATM   77  C   UNK N   1      28.144  14.877   3.014  0.00  0.00    -0.020 C 
HETATM   78  C   UNK N   1      27.943  14.063   4.276  0.00  0.00     0.009 C 
HETATM   79  C   UNK N   1      26.962  14.633   2.089  0.00  0.00     0.009 C 
ENDBRANCH  76  77
ENDBRANCH  75  76
BRANCH  75  80
HETATM   80  C   UNK N   1      28.725  17.262   5.715  0.00  0.00     0.241 C 
HETATM   81  O   UNK N   1      29.675  17.886   5.264  0.00  0.00    -0.271 OA
HETATM   82  N   UNK N   1      28.589  17.090   7.058  0.00  0.00    -0.346 N 
HETATM   83  H   UNK N   1      27.808  16.592   7.392  0.00  0.00     0.163 HD
BRANCH  82  84
HETATM   84  C   UNK N   1      29.546  17.610   8.018  0.00  0.00     0.180 C 
BRANCH  84  85
HETATM   85  C   UNK N   1      30.412  16.463   8.544  0.00  0.00     0.073 C 
BRANCH  85  86
HETATM   86  C   UNK N   1      31.864  16.757   8.487  0.00  0.00    -0.056 A 
HETATM   87  C   UNK N   1      32.784  15.841   9.006  0.00  0.00     0.007 A 
HETATM   88  C   UNK N   1      34.148  16.143   8.995  0.00  0.00     0.001 A 
HETATM   89  C   UNK N   1      34.589  17.360   8.466  0.00  0.00     0.000 A 
HETATM   90  C   UNK N   1      33.667  18.276   7.951  0.00  0.00     0.001 A 
HETATM   91  C   UNK N   1      32.304  17.977   7.967  0.00  0.00     0.007 A 
ENDBRANCH  85  86
ENDBRANCH  84  85
BRANCH  84  92
HETATM   92  C   UNK N   1      28.865  18.358   9.146  0.00  0.00     0.238 C 
HETATM   93  O   UNK N   1      29.511  18.699  10.124  0.00  0.00    -0.271 OA
HETATM   94  N   UNK N   1      27.555  18.677   9.075  0.00  0.00    -0.368 N 
HETATM   95  H   UNK N   1      27.081  18.711   8.213  0.00  0.00     0.159 HD
HETATM   96  H   UNK N   1      27.063  18.879   9.903  0.00  0.00     0.159 HD
ENDBRANCH  84  92
ENDBRANCH  82  84
ENDBRANCH  75  80
ENDBRANCH  73  75
ENDBRANCH  69  71
ENDBRANCH  67  69
ENDBRANCH  52  65
ENDBRANCH   3  52
TORSDOF 48
ENDMDL
MODEL 9
REMARK VINA RESULT:      -6.3      3.651     12.955
REMARK WARNING: 32 MAX_TORS EXCEEDED!!!
REMARK  48 active torsions:
REMARK  status: ('A' for Active; 'I' for Inactive)
REMARK    1  A    between atoms: C_2  and  C_3 
REMARK    2  A    between atoms: C_3  and  C_4 
REMARK    3  A    between atoms: C_4  and  C_5 
REMARK    4  A    between atoms: C_5  and  C_6 
REMARK    5  A    between atoms: C_6  and  C_7 
REMARK    6  A    between atoms: C_7  and  C_8 
REMARK    7  A    between atoms: C_8  and  C_9 
REMARK    8  A    between atoms: C_9  and  C_10 
REMARK    9  A    between atoms: C_10  and  C_11 
REMARK   10  A    between atoms: C_11  and  C_12 
REMARK   11  A    between atoms: C_12  and  C_13 
REMARK   12  A    between atoms: C_13  and  C_14 
REMARK   13  A    between atoms: C_14  and  C_15 
REMARK   14  A    between atoms: C_15  and  C_16 
REMARK       I    between atoms: C_16  and  N_18 
REMARK   15  A    between atoms: C_19  and  N_18 
REMARK   16  A    between atoms: C_19  and  C_20 
REMARK   17  A    between atoms: C_19  and  C_25 
REMARK   18  A    between atoms: C_20  and  C_21 
REMARK   19  A    between atoms: C_21  and  C_22 
REMARK   20  A    between atoms: C_22  and  C_23 
REMARK   21  A    between atoms: C_23  and  N_24 
REMARK       I    between atoms: C_25  and  N_27 
REMARK   22  A    between atoms: C_28  and  N_27 
REMARK   23  A    between atoms: C_28  and  C_29 
REMARK   24  A    between atoms: C_28  and  C_34 
REMARK   25  A    between atoms: C_29  and  C_30 
REMARK   26  A    between atoms: C_30  and  C_31 
REMARK   27  A    between atoms: C_31  and  C_32 
REMARK   28  A    between atoms: C_32  and  N_33 
REMARK       I    between atoms: C_34  and  N_36 
REMARK   29  A    between atoms: C_37  and  N_36 
REMARK   30  A    between atoms: C_37  and  C_38 
REMARK   31  A    between atoms: C_37  and  C_40 
REMARK   32  A    between atoms: C_38  and  O_39 
REMARK       I    between atoms: C_40  and  N_42 
REMARK   33  A    between atoms: C_43  and  N_42 
REMARK   34  A    between atoms: C_43  and  C_44 
REMARK   35  A    between atoms: C_43  and  C_52 
REMARK   36  A    between atoms: C_44  and  C_45 
REMARK   37  A    between atoms: C_45  and  C_46 
REMARK   38  A    between atoms: C_46  and  N_47 
REMARK       I    between atoms: N_47  and  C_48 
REMARK       I    between atoms: C_48  and  N_51 
REMARK       I    between atoms: C_52  and  N_54 
REMARK   39  A    between atoms: N_54  and  C_55 
REMARK   40  A    between atoms: C_55  and  C_57 
REMARK       I    between atoms: C_57  and  N_59 
REMARK   41  A    between atoms: C_60  and  N_59 
REMARK   42  A    between atoms: C_60  and  C_61 
REMARK   43  A    between atoms: C_60  and  C_65 
REMARK   44  A    between atoms: C_61  and  C_62 
REMARK       I    between atoms: C_65  and  N_67 
REMARK   45  A    between atoms: C_68  and  N_67 
REMARK   46  A    between atoms: C_68  and  C_69 
REMARK   47  A    between atoms: C_68  and  C_76 
REMARK   48  A    between atoms: C_69  and  C_70 
REMARK       I    between atoms: C_76  and  N_78 
ROOT
HETATM    1  C   UNK N   1      35.738  14.547   9.265  0.00  0.00     0.243 C 
HETATM    2  O   UNK N   1      36.787  14.752   9.850  0.00  0.00    -0.271 OA
HETATM    3  N   UNK N   1      35.656  13.460   8.449  0.00  0.00    -0.346 N 
HETATM    4  H   UNK N   1      36.456  12.890   8.383  0.00  0.00     0.163 HD
ENDROOT
BRANCH   1   5
HETATM    5  C   UNK N   1      34.588  15.528   9.423  0.00  0.00     0.200 C 
BRANCH   5   6
HETATM    6  N   UNK N   1      34.954  16.919   9.247  0.00  0.00    -0.344 N 
HETATM    7  C   UNK N   1      34.341  17.789   8.408  0.00  0.00     0.241 C 
HETATM    8  O   UNK N   1      34.654  18.966   8.458  0.00  0.00    -0.271 OA
HETATM    9  H   UNK N   1      35.707  17.260   9.781  0.00  0.00     0.163 HD
BRANCH   7  10
HETATM   10  C   UNK N   1      33.251  17.346   7.460  0.00  0.00     0.176 C 
BRANCH  10  11
HETATM   11  N   UNK N   1      33.448  17.656   6.039  0.00  0.00    -0.346 N 
HETATM   12  C   UNK N   1      32.724  17.295   4.937  0.00  0.00     0.241 C 
HETATM   13  O   UNK N   1      33.081  17.701   3.843  0.00  0.00    -0.271 OA
HETATM   14  H   UNK N   1      34.234  18.217   5.846  0.00  0.00     0.163 HD
BRANCH  12  15
HETATM   15  C   UNK N   1      31.475  16.461   5.028  0.00  0.00     0.176 C 
BRANCH  15  16
HETATM   16  N   UNK N   1      31.628  15.129   4.470  0.00  0.00    -0.348 N 
HETATM   17  C   UNK N   1      30.719  14.121   4.523  0.00  0.00     0.218 C 
HETATM   18  O   UNK N   1      30.941  13.095   3.901  0.00  0.00    -0.274 OA
HETATM   19  H   UNK N   1      32.476  14.937   4.007  0.00  0.00     0.163 HD
BRANCH  17  20
HETATM   20  C   UNK N   1      29.441  14.236   5.304  0.00  0.00     0.103 C 
BRANCH  20  21
HETATM   21  C   UNK N   1      28.228  13.741   4.516  0.00  0.00     0.009 C 
BRANCH  21  22
HETATM   22  C   UNK N   1      27.243  14.854   4.184  0.00  0.00     0.000 C 
BRANCH  22  23
HETATM   23  C   UNK N   1      27.432  15.394   2.770  0.00  0.00     0.000 C 
BRANCH  23  24
HETATM   24  C   UNK N   1      26.111  15.776   2.117  0.00  0.00     0.000 C 
BRANCH  24  25
HETATM   25  C   UNK N   1      25.244  14.547   1.896  0.00  0.00     0.000 C 
BRANCH  25  26
HETATM   26  C   UNK N   1      23.812  14.834   2.297  0.00  0.00     0.000 C 
BRANCH  26  27
HETATM   27  C   UNK N   1      23.593  14.441   3.749  0.00  0.00     0.000 C 
BRANCH  27  28
HETATM   28  C   UNK N   1      23.264  15.657   4.602  0.00  0.00     0.000 C 
BRANCH  28  29
HETATM   29  C   UNK N   1      22.786  16.814   3.739  0.00  0.00     0.000 C 
BRANCH  29  30
HETATM   30  C   UNK N   1      21.295  17.032   3.938  0.00  0.00     0.000 C 
BRANCH  30  31
HETATM   31  C   UNK N   1      20.632  17.366   2.613  0.00  0.00     0.000 C 
BRANCH  31  32
HETATM   32  C   UNK N   1      19.582  18.450   2.795  0.00  0.00    -0.000 C 
BRANCH  32  33
HETATM   33  C   UNK N   1      20.243  19.803   2.987  0.00  0.00    -0.005 C 
HETATM   34  C   UNK N   1      20.932  20.248   1.713  0.00  0.00     0.005 C 
ENDBRANCH  32  33
ENDBRANCH  31  32
ENDBRANCH  30  31
ENDBRANCH  29  30
ENDBRANCH  28  29
ENDBRANCH  27  28
ENDBRANCH  26  27
ENDBRANCH  25  26
ENDBRANCH  24  25
ENDBRANCH  23  24
ENDBRANCH  22  23
ENDBRANCH  21  22
ENDBRANCH  20  21
ENDBRANCH  17  20
ENDBRANCH  15  16
BRANCH  15  35
HETATM   35  C   UNK N   1      30.328  17.155   4.304  0.00  0.00     0.035 C 
BRANCH  35  36
HETATM   36  C   UNK N   1      29.353  17.806   5.279  0.00  0.00     0.004 C 
BRANCH  36  37
HETATM   37  C   UNK N   1      28.210  18.504   4.564  0.00  0.00     0.019 C 
BRANCH  37  38
HETATM   38  C   UNK N   1      27.156  18.929   5.569  0.00  0.00     0.111 C 
BRANCH  38  39
HETATM   39  N   UNK N   1      26.034  18.010   5.527  0.00  0.00    -0.430 N 
HETATM   40  H   UNK N   1      26.131  17.103   5.068  0.00  0.00     0.149 HD
HETATM   41  H   UNK N   1      25.147  18.270   5.957  0.00  0.00     0.149 HD
ENDBRANCH  38  39
ENDBRANCH  37  38
ENDBRANCH  36  37
ENDBRANCH  35  36
ENDBRANCH  15  35
ENDBRANCH  12  15
ENDBRANCH  10  11
BRANCH  10  42
HETATM   42  C   UNK N   1      31.915  17.906   7.920  0.00  0.00     0.035 C 
BRANCH  42  43
HETATM   43  C   UNK N   1      31.052  16.792   8.495  0.00  0.00     0.004 C 
BRANCH  43  44
HETATM   44  C   UNK N   1      30.036  17.355   9.477  0.00  0.00     0.019 C 
BRANCH  44  45
HETATM   45  C   UNK N   1      29.268  18.526   8.874  0.00  0.00     0.111 C 
BRANCH  45  46
HETATM   46  N   UNK N   1      27.844  18.381   9.125  0.00  0.00    -0.430 N 
HETATM   47  H   UNK N   1      26.868  18.469   9.406  0.00  0.00     0.149 HD
HETATM   48  H   UNK N   1      27.736  17.494   8.632  0.00  0.00     0.149 HD
ENDBRANCH  45  46
ENDBRANCH  44  45
ENDBRANCH  43  44
ENDBRANCH  42  43
ENDBRANCH  10  42
ENDBRANCH   7  10
ENDBRANCH   5   6
BRANCH   5  49
HETATM   49  C   UNK N   1      33.919  15.390  10.782  0.00  0.00     0.199 C 
BRANCH  49  50
HETATM   50  O   UNK N   1      34.190  14.144  11.349  0.00  0.00    -0.398 OA
HETATM   51  H   UNK N   1      33.884  13.873  12.229  0.00  0.00     0.209 HD
ENDBRANCH  49  50
ENDBRANCH   5  49
ENDBRANCH   1   5
BRANCH   3  52
HETATM   52  C   UNK N   1      34.498  13.061   7.665  0.00  0.00     0.176 C 
BRANCH  52  53
HETATM   53  C   UNK N   1      34.204  14.046   6.542  0.00  0.00     0.036 C 
BRANCH  53  54
HETATM   54  C   UNK N   1      35.460  14.616   5.926  0.00  0.00     0.023 C 
BRANCH  54  55
HETATM   55  C   UNK N   1      35.753  13.818   4.674  0.00  0.00     0.138 C 
BRANCH  55  56
HETATM   56  N   UNK N   1      34.801  14.155   3.645  0.00  0.00    -0.227 N 
HETATM   57  C   UNK N   1      34.277  13.166   2.775  0.00  0.00     0.665 C 
HETATM   58  N   UNK N   1      34.711  11.960   2.819  0.00  0.00    -0.235 N 
HETATM   59  N   UNK N   1      33.284  13.514   1.834  0.00  0.00    -0.235 N 
HETATM   60  H   UNK N   1      34.602  11.287   2.109  0.00  0.00     0.174 HD
ATOM     61  HN  UNK N   1      35.211  11.675   3.661  1.00  0.00     0.174 HD
HETATM   62  H   UNK N   1      33.030  14.449   1.660  0.00  0.00     0.174 HD
HETATM   63  H   UNK N   1      32.830  12.797   1.335  0.00  0.00     0.174 HD
HETATM   64  H   UNK N   1      34.510  15.090   3.544  0.00  0.00     0.177 HD
ENDBRANCH  55  56
ENDBRANCH  54  55
ENDBRANCH  53  54
ENDBRANCH  52  53
BRANCH  52  65
HETATM   65  C   UNK N   1      33.345  12.623   8.559  0.00  0.00     0.241 C 
HETATM   66  O   UNK N   1      32.316  13.274   8.509  0.00  0.00    -0.271 OA
HETATM   67  N   UNK N   1      33.388  11.557   9.409  0.00  0.00    -0.346 N 
HETATM   68  H   UNK N   1      32.570  11.372   9.924  0.00  0.00     0.163 HD
BRANCH  67  69
HETATM   69  C   UNK N   1      34.507  10.668   9.636  0.00  0.00     0.172 C 
HETATM   70  C   UNK N   1      34.446   9.562   8.598  0.00  0.00     0.042 C 
BRANCH  69  71
HETATM   71  C   UNK N   1      34.463  10.042  11.007  0.00  0.00     0.240 C 
HETATM   72  O   UNK N   1      33.427  10.088  11.653  0.00  0.00    -0.271 OA
HETATM   73  N   UNK N   1      35.577   9.485  11.543  0.00  0.00    -0.346 N 
HETATM   74  H   UNK N   1      36.367   9.326  10.976  0.00  0.00     0.163 HD
BRANCH  73  75
HETATM   75  C   UNK N   1      35.611   9.124  12.935  0.00  0.00     0.177 C 
BRANCH  75  76
HETATM   76  C   UNK N   1      36.331   7.798  13.183  0.00  0.00     0.038 C 
BRANCH  76  77
HETATM   77  C   UNK N   1      35.358   6.613  13.145  0.00  0.00    -0.020 C 
HETATM   78  C   UNK N   1      35.477   5.903  11.813  0.00  0.00     0.009 C 
HETATM   79  C   UNK N   1      35.593   5.600  14.255  0.00  0.00     0.009 C 
ENDBRANCH  76  77
ENDBRANCH  75  76
BRANCH  75  80
HETATM   80  C   UNK N   1      36.220  10.285  13.655  0.00  0.00     0.241 C 
HETATM   81  O   UNK N   1      37.404  10.224  13.955  0.00  0.00    -0.271 OA
HETATM   82  N   UNK N   1      35.479  11.374  13.995  0.00  0.00    -0.346 N 
HETATM   83  H   UNK N   1      34.531  11.401  13.731  0.00  0.00     0.163 HD
BRANCH  82  84
HETATM   84  C   UNK N   1      36.027  12.500  14.730  0.00  0.00     0.180 C 
BRANCH  84  85
HETATM   85  C   UNK N   1      34.972  13.037  15.699  0.00  0.00     0.073 C 
BRANCH  85  86
HETATM   86  C   UNK N   1      35.170  12.572  17.092  0.00  0.00    -0.056 A 
HETATM   87  C   UNK N   1      35.381  11.215  17.354  0.00  0.00     0.007 A 
HETATM   88  C   UNK N   1      35.519  10.774  18.672  0.00  0.00     0.001 A 
HETATM   89  C   UNK N   1      35.443  11.689  19.726  0.00  0.00     0.000 A 
HETATM   90  C   UNK N   1      35.228  13.045  19.463  0.00  0.00     0.001 A 
HETATM   91  C   UNK N   1      35.085  13.486  18.146  0.00  0.00     0.007 A 
ENDBRANCH  85  86
ENDBRANCH  84  85
BRANCH  84  92
HETATM   92  C   UNK N   1      36.539  13.585  13.803  0.00  0.00     0.238 C 
HETATM   93  O   UNK N   1      36.631  14.733  14.207  0.00  0.00    -0.271 OA
HETATM   94  N   UNK N   1      36.920  13.296  12.541  0.00  0.00    -0.368 N 
HETATM   95  H   UNK N   1      37.161  12.379  12.275  0.00  0.00     0.159 HD
HETATM   96  H   UNK N   1      36.956  14.016  11.871  0.00  0.00     0.159 HD
ENDBRANCH  84  92
ENDBRANCH  82  84
ENDBRANCH  75  80
ENDBRANCH  73  75
ENDBRANCH  69  71
ENDBRANCH  67  69
ENDBRANCH  52  65
ENDBRANCH   3  52
TORSDOF 48
ENDMDL
