REMARK  3 active torsions:
REMARK  status: ('A' for Active; 'I' for Inactive)
REMARK    1  A    between atoms: C_2  and  C_3 
REMARK    2  A    between atoms: N_6  and  C_9 
REMARK    3  A    between atoms: C_19  and  C_23 
ROOT
HETATM    1  C   UNK N   1       4.255   2.085  -0.100  0.00  0.00     0.034 A 
HETATM    2  C   UNK N   1       2.920   2.393  -0.111  0.00  0.00    -0.000 A 
HETATM    3  C   UNK N   1       2.265   1.197  -0.138  0.00  0.00     0.105 A 
HETATM    4  N   UNK N   1       3.182   0.198  -0.156  0.00  0.00    -0.283 N 
HETATM    5  N   UNK N   1       4.396   0.740  -0.134  0.00  0.00    -0.301 N 
ATOM      6  HN  UNK N   1       5.279   0.230  -0.142  1.00  0.00     0.187 HD
HETATM    7  C   UNK N   1       0.804   1.191  -0.142  0.00  0.00     0.153 A 
HETATM    8  N   UNK N   1      -0.042   0.144  -0.163  0.00  0.00    -0.282 N 
ATOM      9  HN  UNK N   1       0.213  -0.844  -0.174  1.00  0.00     0.188 HD
HETATM   10  N   UNK N   1      -1.276   0.648  -0.168  0.00  0.00    -0.282 N 
ATOM     11  HN  UNK N   1      -2.147   0.116  -0.187  1.00  0.00     0.188 HD
HETATM   12  C   UNK N   1      -1.160   1.995  -0.142  0.00  0.00     0.141 A 
HETATM   13  N   UNK N   1       0.135   2.353  -0.128  0.00  0.00    -0.314 N 
HETATM   14  C   UNK N   1       0.721   3.701  -0.119  0.00  0.00     0.137 A 
HETATM   15  C   UNK N   1       2.266   3.742  -0.083  0.00  0.00     0.063 A 
ENDROOT
BRANCH   4  16
HETATM   16  C   UNK N   1       2.995  -1.250  -0.173  0.00  0.00     0.108 C 
HETATM   17  C   UNK N   1       2.369  -1.782   1.086  0.00  0.00     0.027 C 
HETATM   18  C   UNK N   1       1.936  -3.172   0.677  0.00  0.00     0.002 C 
HETATM   19  C   UNK N   1       1.601  -3.083  -0.809  0.00  0.00     0.002 C 
HETATM   20  C   UNK N   1       2.117  -1.738  -1.299  0.00  0.00     0.027 C 
ENDBRANCH   4  16
BRANCH   1  21
HETATM   21  C   UNK N   1       5.368   3.084  -0.038  0.00  0.00     0.055 C 
HETATM   22  C   UNK N   1       6.727   2.425   0.100  0.00  0.00     0.011 C 
ENDBRANCH   1  21
BRANCH  12  23
HETATM   23  C   UNK N   1      -2.295   2.944  -0.130  0.00  0.00     0.050 A 
HETATM   24  C   UNK N   1      -3.645   2.630  -0.270  0.00  0.00     0.023 A 
HETATM   25  C   UNK N   1      -4.489   3.781  -0.214  0.00  0.00     0.009 A 
HETATM   26  C   UNK N   1      -3.805   4.989  -0.022  0.00  0.00     0.050 A 
HETATM   27  S   UNK N   1      -2.202   4.589   0.061  0.00  0.00    -0.098 SA
ENDBRANCH  12  23
TORSDOF 3
