MODEL 1
REMARK VINA RESULT:      -7.0      0.000      0.000
REMARK  5 active torsions:
REMARK  status: ('A' for Active; 'I' for Inactive)
REMARK    1  A    between atoms: C_5  and  C_7 
REMARK    2  A    between atoms: C_7  and  O_8 
REMARK    3  A    between atoms: O_8  and  C_9 
REMARK    4  A    between atoms: C_15  and  C_12 
REMARK    5  A    between atoms: C_18  and  C_20 
REMARK       I    between atoms: C_20  and  N_22 
ROOT
HETATM    1  C   UNK N   1      21.405  15.657   7.554  0.00  0.00     0.069 A 
HETATM    2  C   UNK N   1      22.191  15.156   6.513  0.00  0.00     0.037 A 
HETATM    3  C   UNK N   1      22.402  15.911   5.360  0.00  0.00     0.012 A 
HETATM    4  C   UNK N   1      21.827  17.176   5.236  0.00  0.00    -0.036 A 
HETATM    5  C   UNK N   1      21.041  17.690   6.281  0.00  0.00     0.012 A 
HETATM    6  C   UNK N   1      20.835  16.936   7.439  0.00  0.00     0.037 A 
ENDROOT
BRANCH   4   7
HETATM    7  C   UNK N   1      21.996  17.931   3.953  0.00  0.00     0.110 C 
HETATM    8  C   UNK N   1      21.055  19.129   3.856  0.00  0.00     0.032 C 
HETATM    9  C   UNK N   1      20.240  18.874   2.608  0.00  0.00     0.037 C 
HETATM   10  C   UNK N   1      20.354  17.377   2.455  0.00  0.00     0.169 C 
HETATM   11  N   UNK N   1      21.714  17.043   2.831  0.00  0.00    -0.401 N 
HETATM   12  H   UNK N   1      22.331  16.349   2.409  0.00  0.00     0.154 HD
BRANCH  10  13
HETATM   13  C   UNK N   1      20.026  16.836   1.096  0.00  0.00     0.237 C 
HETATM   14  O   UNK N   1      20.362  17.432   0.086  0.00  0.00    -0.271 OA
HETATM   15  N   UNK N   1      19.338  15.682   0.992  0.00  0.00    -0.368 N 
HETATM   16  H   UNK N   1      19.138  14.992   1.665  0.00  0.00     0.159 HD
HETATM   17  H   UNK N   1      18.973  15.500   0.096  0.00  0.00     0.159 HD
ENDBRANCH  10  13
ENDBRANCH   4   7
BRANCH   1  18
HETATM   18  O   UNK N   1      21.222  14.892   8.651  0.00  0.00    -0.347 OA
BRANCH  18  19
HETATM   19  C   UNK N   1      21.147  13.518   8.632  0.00  0.00     0.217 C 
BRANCH  19  20
HETATM   20  C   UNK N   1      22.130  12.976   9.614  0.00  0.00     0.004 A 
HETATM   21  C   UNK N   1      21.691  12.451  10.842  0.00  0.00     0.124 A 
HETATM   22  C   UNK N   1      22.619  11.960  11.763  0.00  0.00     0.043 A 
HETATM   23  F   UNK N   1      20.370  12.430  11.149  0.00  0.00    -0.205 F 
HETATM   24  C   UNK N   1      23.983  11.984  11.463  0.00  0.00     0.003 A 
HETATM   25  C   UNK N   1      24.422  12.502  10.241  0.00  0.00     0.001 A 
HETATM   26  C   UNK N   1      23.497  13.001   9.319  0.00  0.00     0.012 A 
ENDBRANCH  19  20
ENDBRANCH  18  19
ENDBRANCH   1  18
TORSDOF 5
ENDMDL
MODEL 2
REMARK VINA RESULT:      -7.0     15.737     17.728
REMARK  5 active torsions:
REMARK  status: ('A' for Active; 'I' for Inactive)
REMARK    1  A    between atoms: C_5  and  C_7 
REMARK    2  A    between atoms: C_7  and  O_8 
REMARK    3  A    between atoms: O_8  and  C_9 
REMARK    4  A    between atoms: C_15  and  C_12 
REMARK    5  A    between atoms: C_18  and  C_20 
REMARK       I    between atoms: C_20  and  N_22 
ROOT
HETATM    1  C   UNK N   1      26.989  24.440  -4.825  0.00  0.00     0.069 A 
HETATM    2  C   UNK N   1      27.093  23.637  -5.965  0.00  0.00     0.037 A 
HETATM    3  C   UNK N   1      28.274  22.946  -6.237  0.00  0.00     0.012 A 
HETATM    4  C   UNK N   1      29.364  23.053  -5.373  0.00  0.00    -0.036 A 
HETATM    5  C   UNK N   1      29.264  23.852  -4.222  0.00  0.00     0.012 A 
HETATM    6  C   UNK N   1      28.079  24.538  -3.944  0.00  0.00     0.037 A 
ENDROOT
BRANCH   4   7
HETATM    7  C   UNK N   1      30.648  22.372  -5.732  0.00  0.00     0.110 C 
HETATM    8  C   UNK N   1      30.451  20.892  -6.049  0.00  0.00     0.032 C 
HETATM    9  C   UNK N   1      31.334  20.168  -5.058  0.00  0.00     0.037 C 
HETATM   10  C   UNK N   1      31.471  21.186  -3.953  0.00  0.00     0.169 C 
HETATM   11  N   UNK N   1      31.577  22.474  -4.612  0.00  0.00    -0.401 N 
HETATM   12  H   UNK N   1      32.165  23.266  -4.353  0.00  0.00     0.154 HD
BRANCH  10  13
HETATM   13  C   UNK N   1      32.617  20.972  -3.010  0.00  0.00     0.237 C 
HETATM   14  O   UNK N   1      32.648  21.529  -1.925  0.00  0.00    -0.271 OA
HETATM   15  N   UNK N   1      33.633  20.166  -3.376  0.00  0.00    -0.368 N 
HETATM   16  H   UNK N   1      33.702  19.515  -4.112  0.00  0.00     0.159 HD
HETATM   17  H   UNK N   1      34.440  20.240  -2.817  0.00  0.00     0.159 HD
ENDBRANCH  10  13
ENDBRANCH   4   7
BRANCH   1  18
HETATM   18  O   UNK N   1      25.830  25.094  -4.601  0.00  0.00    -0.347 OA
BRANCH  18  19
HETATM   19  C   UNK N   1      25.268  25.995  -5.476  0.00  0.00     0.217 C 
BRANCH  19  20
HETATM   20  C   UNK N   1      26.098  27.235  -5.476  0.00  0.00     0.004 A 
HETATM   21  C   UNK N   1      26.060  28.113  -4.379  0.00  0.00     0.124 A 
HETATM   22  C   UNK N   1      26.828  29.280  -4.393  0.00  0.00     0.043 A 
HETATM   23  F   UNK N   1      25.272  27.845  -3.308  0.00  0.00    -0.205 F 
HETATM   24  C   UNK N   1      27.638  29.572  -5.493  0.00  0.00     0.003 A 
HETATM   25  C   UNK N   1      27.679  28.698  -6.583  0.00  0.00     0.001 A 
HETATM   26  C   UNK N   1      26.908  27.532  -6.577  0.00  0.00     0.012 A 
ENDBRANCH  19  20
ENDBRANCH  18  19
ENDBRANCH   1  18
TORSDOF 5
ENDMDL
MODEL 3
REMARK VINA RESULT:      -7.0      9.881     12.911
REMARK  5 active torsions:
REMARK  status: ('A' for Active; 'I' for Inactive)
REMARK    1  A    between atoms: C_5  and  C_7 
REMARK    2  A    between atoms: C_7  and  O_8 
REMARK    3  A    between atoms: O_8  and  C_9 
REMARK    4  A    between atoms: C_15  and  C_12 
REMARK    5  A    between atoms: C_18  and  C_20 
REMARK       I    between atoms: C_20  and  N_22 
ROOT
HETATM    1  C   UNK N   1      30.263  17.310   7.676  0.00  0.00     0.069 A 
HETATM    2  C   UNK N   1      30.992  18.242   8.420  0.00  0.00     0.037 A 
HETATM    3  C   UNK N   1      32.350  18.041   8.667  0.00  0.00     0.012 A 
HETATM    4  C   UNK N   1      32.992  16.905   8.174  0.00  0.00    -0.036 A 
HETATM    5  C   UNK N   1      32.267  15.968   7.420  0.00  0.00     0.012 A 
HETATM    6  C   UNK N   1      30.908  16.172   7.165  0.00  0.00     0.037 A 
ENDROOT
BRANCH   4   7
HETATM    7  C   UNK N   1      34.428  16.668   8.526  0.00  0.00     0.110 C 
HETATM    8  C   UNK N   1      34.970  15.379   7.916  0.00  0.00     0.032 C 
HETATM    9  C   UNK N   1      35.429  14.558   9.101  0.00  0.00     0.037 C 
HETATM   10  C   UNK N   1      34.613  15.144  10.227  0.00  0.00     0.169 C 
HETATM   11  N   UNK N   1      34.559  16.571   9.976  0.00  0.00    -0.401 N 
HETATM   12  H   UNK N   1      34.602  17.330  10.655  0.00  0.00     0.154 HD
BRANCH  10  13
HETATM   13  C   UNK N   1      35.117  14.862  11.610  0.00  0.00     0.237 C 
HETATM   14  O   UNK N   1      34.581  14.022  12.314  0.00  0.00    -0.271 OA
HETATM   15  N   UNK N   1      36.168  15.560  12.085  0.00  0.00    -0.368 N 
HETATM   16  H   UNK N   1      36.818  16.135  11.622  0.00  0.00     0.159 HD
HETATM   17  H   UNK N   1      36.307  15.483  13.057  0.00  0.00     0.159 HD
ENDBRANCH  10  13
ENDBRANCH   4   7
BRANCH   1  18
HETATM   18  O   UNK N   1      28.950  17.541   7.463  0.00  0.00    -0.347 OA
BRANCH  18  19
HETATM   19  C   UNK N   1      28.301  18.701   7.819  0.00  0.00     0.217 C 
BRANCH  19  20
HETATM   20  C   UNK N   1      27.765  19.342   6.583  0.00  0.00     0.004 A 
HETATM   21  C   UNK N   1      26.900  20.446   6.674  0.00  0.00     0.124 A 
HETATM   22  C   UNK N   1      26.391  21.031   5.513  0.00  0.00     0.043 A 
HETATM   23  F   UNK N   1      26.541  20.942   7.885  0.00  0.00    -0.205 F 
HETATM   24  C   UNK N   1      26.746  20.525   4.260  0.00  0.00     0.003 A 
HETATM   25  C   UNK N   1      27.609  19.430   4.167  0.00  0.00     0.001 A 
HETATM   26  C   UNK N   1      28.117  18.837   5.327  0.00  0.00     0.012 A 
ENDBRANCH  19  20
ENDBRANCH  18  19
ENDBRANCH   1  18
TORSDOF 5
ENDMDL
MODEL 4
REMARK VINA RESULT:      -7.0      9.803     12.352
REMARK  5 active torsions:
REMARK  status: ('A' for Active; 'I' for Inactive)
REMARK    1  A    between atoms: C_5  and  C_7 
REMARK    2  A    between atoms: C_7  and  O_8 
REMARK    3  A    between atoms: O_8  and  C_9 
REMARK    4  A    between atoms: C_15  and  C_12 
REMARK    5  A    between atoms: C_18  and  C_20 
REMARK       I    between atoms: C_20  and  N_22 
ROOT
HETATM    1  C   UNK N   1      30.125  16.976   5.211  0.00  0.00     0.069 A 
HETATM    2  C   UNK N   1      30.475  16.601   6.511  0.00  0.00     0.037 A 
HETATM    3  C   UNK N   1      31.806  16.647   6.926  0.00  0.00     0.012 A 
HETATM    4  C   UNK N   1      32.801  17.069   6.043  0.00  0.00    -0.036 A 
HETATM    5  C   UNK N   1      32.456  17.455   4.737  0.00  0.00     0.012 A 
HETATM    6  C   UNK N   1      31.122  17.415   4.323  0.00  0.00     0.037 A 
ENDROOT
BRANCH   4   7
HETATM    7  C   UNK N   1      34.232  17.027   6.484  0.00  0.00     0.110 C 
HETATM    8  C   UNK N   1      34.811  15.615   6.441  0.00  0.00     0.032 C 
HETATM    9  C   UNK N   1      35.254  15.341   7.861  0.00  0.00     0.037 C 
HETATM   10  C   UNK N   1      34.399  16.303   8.651  0.00  0.00     0.169 C 
HETATM   11  N   UNK N   1      34.328  17.513   7.855  0.00  0.00    -0.401 N 
HETATM   12  H   UNK N   1      34.341  18.480   8.180  0.00  0.00     0.154 HD
BRANCH  10  13
HETATM   13  C   UNK N   1      34.874  16.603  10.041  0.00  0.00     0.237 C 
HETATM   14  O   UNK N   1      35.605  17.555  10.261  0.00  0.00    -0.271 OA
HETATM   15  N   UNK N   1      34.499  15.800  11.056  0.00  0.00    -0.368 N 
HETATM   16  H   UNK N   1      33.798  15.111  11.102  0.00  0.00     0.159 HD
HETATM   17  H   UNK N   1      35.011  15.921  11.888  0.00  0.00     0.159 HD
ENDBRANCH  10  13
ENDBRANCH   4   7
BRANCH   1  18
HETATM   18  O   UNK N   1      28.826  16.913   4.849  0.00  0.00    -0.347 OA
BRANCH  18  19
HETATM   19  C   UNK N   1      27.774  17.181   5.695  0.00  0.00     0.217 C 
BRANCH  19  20
HETATM   20  C   UNK N   1      27.480  18.642   5.638  0.00  0.00     0.004 A 
HETATM   21  C   UNK N   1      27.754  19.464   6.744  0.00  0.00     0.124 A 
HETATM   22  C   UNK N   1      27.462  20.829   6.688  0.00  0.00     0.043 A 
HETATM   23  F   UNK N   1      28.289  18.942   7.876  0.00  0.00    -0.205 F 
HETATM   24  C   UNK N   1      26.905  21.379   5.531  0.00  0.00     0.003 A 
HETATM   25  C   UNK N   1      26.635  20.563   4.429  0.00  0.00     0.001 A 
HETATM   26  C   UNK N   1      26.919  19.196   4.482  0.00  0.00     0.012 A 
ENDBRANCH  19  20
ENDBRANCH  18  19
ENDBRANCH   1  18
TORSDOF 5
ENDMDL
MODEL 5
REMARK VINA RESULT:      -6.9     12.106     14.250
REMARK  5 active torsions:
REMARK  status: ('A' for Active; 'I' for Inactive)
REMARK    1  A    between atoms: C_5  and  C_7 
REMARK    2  A    between atoms: C_7  and  O_8 
REMARK    3  A    between atoms: O_8  and  C_9 
REMARK    4  A    between atoms: C_15  and  C_12 
REMARK    5  A    between atoms: C_18  and  C_20 
REMARK       I    between atoms: C_20  and  N_22 
ROOT
HETATM    1  C   UNK N   1      35.128  14.281  12.113  0.00  0.00     0.069 A 
HETATM    2  C   UNK N   1      34.602  13.613  11.004  0.00  0.00     0.037 A 
HETATM    3  C   UNK N   1      34.467  14.271   9.781  0.00  0.00     0.012 A 
HETATM    4  C   UNK N   1      34.856  15.605   9.656  0.00  0.00    -0.036 A 
HETATM    5  C   UNK N   1      35.392  16.281  10.765  0.00  0.00     0.012 A 
HETATM    6  C   UNK N   1      35.535  15.620  11.988  0.00  0.00     0.037 A 
ENDROOT
BRANCH   4   7
HETATM    7  C   UNK N   1      34.621  16.314   8.358  0.00  0.00     0.110 C 
HETATM    8  C   UNK N   1      34.657  17.833   8.512  0.00  0.00     0.032 C 
HETATM    9  C   UNK N   1      33.300  18.298   8.033  0.00  0.00     0.037 C 
HETATM   10  C   UNK N   1      32.458  17.058   8.213  0.00  0.00     0.169 C 
HETATM   11  N   UNK N   1      33.309  15.945   7.839  0.00  0.00    -0.401 N 
HETATM   12  H   UNK N   1      33.050  15.100   7.330  0.00  0.00     0.154 HD
BRANCH  10  13
HETATM   13  C   UNK N   1      31.171  17.030   7.446  0.00  0.00     0.237 C 
HETATM   14  O   UNK N   1      31.169  16.940   6.229  0.00  0.00    -0.271 OA
HETATM   15  N   UNK N   1      30.003  17.121   8.111  0.00  0.00    -0.368 N 
HETATM   16  H   UNK N   1      29.802  17.027   9.070  0.00  0.00     0.159 HD
HETATM   17  H   UNK N   1      29.221  17.313   7.545  0.00  0.00     0.159 HD
ENDBRANCH  10  13
ENDBRANCH   4   7
BRANCH   1  18
HETATM   18  O   UNK N   1      35.238  13.609  13.278  0.00  0.00    -0.347 OA
BRANCH  18  19
HETATM   19  C   UNK N   1      36.434  13.323  13.896  0.00  0.00     0.217 C 
BRANCH  19  20
HETATM   20  C   UNK N   1      36.447  13.986  15.232  0.00  0.00     0.004 A 
HETATM   21  C   UNK N   1      35.663  13.479  16.283  0.00  0.00     0.124 A 
HETATM   22  C   UNK N   1      35.668  14.115  17.527  0.00  0.00     0.043 A 
HETATM   23  F   UNK N   1      34.887  12.382  16.097  0.00  0.00    -0.205 F 
HETATM   24  C   UNK N   1      36.457  15.250  17.730  0.00  0.00     0.003 A 
HETATM   25  C   UNK N   1      37.240  15.753  16.687  0.00  0.00     0.001 A 
HETATM   26  C   UNK N   1      37.233  15.125  15.439  0.00  0.00     0.012 A 
ENDBRANCH  19  20
ENDBRANCH  18  19
ENDBRANCH   1  18
TORSDOF 5
ENDMDL
MODEL 6
REMARK VINA RESULT:      -6.9     11.579     14.760
REMARK  5 active torsions:
REMARK  status: ('A' for Active; 'I' for Inactive)
REMARK    1  A    between atoms: C_5  and  C_7 
REMARK    2  A    between atoms: C_7  and  O_8 
REMARK    3  A    between atoms: O_8  and  C_9 
REMARK    4  A    between atoms: C_15  and  C_12 
REMARK    5  A    between atoms: C_18  and  C_20 
REMARK       I    between atoms: C_20  and  N_22 
ROOT
HETATM    1  C   UNK N   1      33.432  15.750   8.182  0.00  0.00     0.069 A 
HETATM    2  C   UNK N   1      33.927  16.741   9.035  0.00  0.00     0.037 A 
HETATM    3  C   UNK N   1      35.041  16.492   9.836  0.00  0.00     0.012 A 
HETATM    4  C   UNK N   1      35.670  15.248   9.794  0.00  0.00    -0.036 A 
HETATM    5  C   UNK N   1      35.183  14.249   8.935  0.00  0.00     0.012 A 
HETATM    6  C   UNK N   1      34.071  14.500   8.126  0.00  0.00     0.037 A 
ENDROOT
BRANCH   4   7
HETATM    7  C   UNK N   1      36.809  14.976  10.727  0.00  0.00     0.110 C 
HETATM    8  C   UNK N   1      37.352  13.556  10.582  0.00  0.00     0.032 C 
HETATM    9  C   UNK N   1      37.196  12.945  11.957  0.00  0.00     0.037 C 
HETATM   10  C   UNK N   1      36.103  13.794  12.559  0.00  0.00     0.169 C 
HETATM   11  N   UNK N   1      36.357  15.147  12.103  0.00  0.00    -0.401 N 
HETATM   12  H   UNK N   1      36.245  16.017  12.624  0.00  0.00     0.154 HD
BRANCH  10  13
HETATM   13  C   UNK N   1      35.990  13.745  14.053  0.00  0.00     0.237 C 
HETATM   14  O   UNK N   1      34.948  13.409  14.592  0.00  0.00    -0.271 OA
HETATM   15  N   UNK N   1      37.051  14.092  14.808  0.00  0.00    -0.368 N 
HETATM   16  H   UNK N   1      37.996  14.218  14.565  0.00  0.00     0.159 HD
HETATM   17  H   UNK N   1      36.847  14.246  15.759  0.00  0.00     0.159 HD
ENDBRANCH  10  13
ENDBRANCH   4   7
BRANCH   1  18
HETATM   18  O   UNK N   1      32.350  16.031   7.426  0.00  0.00    -0.347 OA
BRANCH  18  19
HETATM   19  C   UNK N   1      31.935  17.306   7.112  0.00  0.00     0.217 C 
BRANCH  19  20
HETATM   20  C   UNK N   1      30.634  17.561   7.796  0.00  0.00     0.004 A 
HETATM   21  C   UNK N   1      29.434  17.084   7.238  0.00  0.00     0.124 A 
HETATM   22  C   UNK N   1      28.219  17.341   7.876  0.00  0.00     0.043 A 
HETATM   23  F   UNK N   1      29.445  16.387   6.076  0.00  0.00    -0.205 F 
HETATM   24  C   UNK N   1      28.194  18.065   9.070  0.00  0.00     0.003 A 
HETATM   25  C   UNK N   1      29.385  18.537   9.628  0.00  0.00     0.001 A 
HETATM   26  C   UNK N   1      30.604  18.288   8.990  0.00  0.00     0.012 A 
ENDBRANCH  19  20
ENDBRANCH  18  19
ENDBRANCH   1  18
TORSDOF 5
ENDMDL
MODEL 7
REMARK VINA RESULT:      -6.9     12.264     15.769
REMARK  5 active torsions:
REMARK  status: ('A' for Active; 'I' for Inactive)
REMARK    1  A    between atoms: C_5  and  C_7 
REMARK    2  A    between atoms: C_7  and  O_8 
REMARK    3  A    between atoms: O_8  and  C_9 
REMARK    4  A    between atoms: C_15  and  C_12 
REMARK    5  A    between atoms: C_18  and  C_20 
REMARK       I    between atoms: C_20  and  N_22 
ROOT
HETATM    1  C   UNK N   1      34.190  16.306   9.585  0.00  0.00     0.069 A 
HETATM    2  C   UNK N   1      35.331  16.678  10.302  0.00  0.00     0.037 A 
HETATM    3  C   UNK N   1      36.052  15.727  11.024  0.00  0.00     0.012 A 
HETATM    4  C   UNK N   1      35.638  14.395  11.038  0.00  0.00    -0.036 A 
HETATM    5  C   UNK N   1      34.497  14.013  10.314  0.00  0.00     0.012 A 
HETATM    6  C   UNK N   1      33.778  14.963   9.584  0.00  0.00     0.037 A 
ENDROOT
BRANCH   4   7
HETATM    7  C   UNK N   1      36.378  13.411  11.890  0.00  0.00     0.110 C 
HETATM    8  C   UNK N   1      35.496  12.244  12.328  0.00  0.00     0.032 C 
HETATM    9  C   UNK N   1      35.529  12.287  13.840  0.00  0.00     0.037 C 
HETATM   10  C   UNK N   1      35.898  13.726  14.108  0.00  0.00     0.169 C 
HETATM   11  N   UNK N   1      36.866  14.083  13.089  0.00  0.00    -0.401 N 
HETATM   12  H   UNK N   1      37.696  14.667  13.188  0.00  0.00     0.154 HD
BRANCH  10  13
HETATM   13  C   UNK N   1      36.433  14.015  15.479  0.00  0.00     0.237 C 
HETATM   14  O   UNK N   1      37.438  14.689  15.630  0.00  0.00    -0.271 OA
HETATM   15  N   UNK N   1      35.800  13.509  16.555  0.00  0.00    -0.368 N 
HETATM   16  H   UNK N   1      34.908  13.103  16.643  0.00  0.00     0.159 HD
HETATM   17  H   UNK N   1      36.315  13.552  17.393  0.00  0.00     0.159 HD
ENDBRANCH  10  13
ENDBRANCH   4   7
BRANCH   1  18
HETATM   18  O   UNK N   1      33.519  17.258   8.903  0.00  0.00    -0.347 OA
BRANCH  18  19
HETATM   19  C   UNK N   1      32.211  17.138   8.491  0.00  0.00     0.217 C 
BRANCH  19  20
HETATM   20  C   UNK N   1      32.169  17.268   7.005  0.00  0.00     0.004 A 
HETATM   21  C   UNK N   1      30.946  17.174   6.319  0.00  0.00     0.124 A 
HETATM   22  C   UNK N   1      30.917  17.282   4.927  0.00  0.00     0.043 A 
HETATM   23  F   UNK N   1      29.790  16.965   6.997  0.00  0.00    -0.205 F 
HETATM   24  C   UNK N   1      32.101  17.489   4.216  0.00  0.00     0.003 A 
HETATM   25  C   UNK N   1      33.318  17.586   4.897  0.00  0.00     0.001 A 
HETATM   26  C   UNK N   1      33.353  17.473   6.290  0.00  0.00     0.012 A 
ENDBRANCH  19  20
ENDBRANCH  18  19
ENDBRANCH   1  18
TORSDOF 5
ENDMDL
MODEL 8
REMARK VINA RESULT:      -6.9     13.111     17.097
REMARK  5 active torsions:
REMARK  status: ('A' for Active; 'I' for Inactive)
REMARK    1  A    between atoms: C_5  and  C_7 
REMARK    2  A    between atoms: C_7  and  O_8 
REMARK    3  A    between atoms: O_8  and  C_9 
REMARK    4  A    between atoms: C_15  and  C_12 
REMARK    5  A    between atoms: C_18  and  C_20 
REMARK       I    between atoms: C_20  and  N_22 
ROOT
HETATM    1  C   UNK N   1      35.170  14.116  11.473  0.00  0.00     0.069 A 
HETATM    2  C   UNK N   1      34.940  12.805  11.899  0.00  0.00     0.037 A 
HETATM    3  C   UNK N   1      35.405  12.374  13.142  0.00  0.00     0.012 A 
HETATM    4  C   UNK N   1      36.108  13.251  13.969  0.00  0.00    -0.036 A 
HETATM    5  C   UNK N   1      36.338  14.572  13.549  0.00  0.00     0.012 A 
HETATM    6  C   UNK N   1      35.864  15.006  12.308  0.00  0.00     0.037 A 
ENDROOT
BRANCH   4   7
HETATM    7  C   UNK N   1      36.674  12.741  15.258  0.00  0.00     0.110 C 
HETATM    8  C   UNK N   1      35.973  11.471  15.737  0.00  0.00     0.032 C 
HETATM    9  C   UNK N   1      35.429  11.828  17.102  0.00  0.00     0.037 C 
HETATM   10  C   UNK N   1      35.343  13.333  17.026  0.00  0.00     0.169 C 
HETATM   11  N   UNK N   1      36.517  13.759  16.290  0.00  0.00    -0.401 N 
HETATM   12  H   UNK N   1      37.098  14.581  16.455  0.00  0.00     0.154 HD
BRANCH  10  13
HETATM   13  C   UNK N   1      35.248  14.045  18.342  0.00  0.00     0.237 C 
HETATM   14  O   UNK N   1      35.365  15.258  18.407  0.00  0.00    -0.271 OA
HETATM   15  N   UNK N   1      35.046  13.332  19.467  0.00  0.00    -0.368 N 
HETATM   16  H   UNK N   1      34.763  12.398  19.592  0.00  0.00     0.159 HD
HETATM   17  H   UNK N   1      35.210  13.827  20.303  0.00  0.00     0.159 HD
ENDBRANCH  10  13
ENDBRANCH   4   7
BRANCH   1  18
HETATM   18  O   UNK N   1      34.704  14.491  10.262  0.00  0.00    -0.347 OA
BRANCH  18  19
HETATM   19  C   UNK N   1      35.089  15.638   9.607  0.00  0.00     0.217 C 
BRANCH  19  20
HETATM   20  C   UNK N   1      33.870  16.305   9.064  0.00  0.00     0.004 A 
HETATM   21  C   UNK N   1      33.936  17.626   8.588  0.00  0.00     0.124 A 
HETATM   22  C   UNK N   1      32.787  18.248   8.096  0.00  0.00     0.043 A 
HETATM   23  F   UNK N   1      35.107  18.310   8.617  0.00  0.00    -0.205 F 
HETATM   24  C   UNK N   1      31.574  17.557   8.068  0.00  0.00     0.003 A 
HETATM   25  C   UNK N   1      31.507  16.241   8.537  0.00  0.00     0.001 A 
HETATM   26  C   UNK N   1      32.653  15.616   9.037  0.00  0.00     0.012 A 
ENDBRANCH  19  20
ENDBRANCH  18  19
ENDBRANCH   1  18
TORSDOF 5
ENDMDL
MODEL 9
REMARK VINA RESULT:      -6.9     15.571     19.155
REMARK  5 active torsions:
REMARK  status: ('A' for Active; 'I' for Inactive)
REMARK    1  A    between atoms: C_5  and  C_7 
REMARK    2  A    between atoms: C_7  and  O_8 
REMARK    3  A    between atoms: O_8  and  C_9 
REMARK    4  A    between atoms: C_15  and  C_12 
REMARK    5  A    between atoms: C_18  and  C_20 
REMARK       I    between atoms: C_20  and  N_22 
ROOT
HETATM    1  C   UNK N   1      34.845  12.325  15.806  0.00  0.00     0.069 A 
HETATM    2  C   UNK N   1      34.776  13.377  16.722  0.00  0.00     0.037 A 
HETATM    3  C   UNK N   1      35.088  13.167  18.066  0.00  0.00     0.012 A 
HETATM    4  C   UNK N   1      35.469  11.899  18.506  0.00  0.00    -0.036 A 
HETATM    5  C   UNK N   1      35.547  10.837  17.590  0.00  0.00     0.012 A 
HETATM    6  C   UNK N   1      35.243  11.050  16.242  0.00  0.00     0.037 A 
ENDROOT
BRANCH   4   7
HETATM    7  C   UNK N   1      35.713  11.678  19.967  0.00  0.00     0.110 C 
HETATM    8  C   UNK N   1      36.299  10.298  20.255  0.00  0.00     0.032 C 
HETATM    9  C   UNK N   1      35.305   9.650  21.193  0.00  0.00     0.037 C 
HETATM   10  C   UNK N   1      34.040  10.417  20.894  0.00  0.00     0.169 C 
HETATM   11  N   UNK N   1      34.451  11.792  20.689  0.00  0.00    -0.401 N 
HETATM   12  H   UNK N   1      33.970  12.642  20.982  0.00  0.00     0.154 HD
BRANCH  10  13
HETATM   13  C   UNK N   1      32.966  10.329  21.936  0.00  0.00     0.237 C 
HETATM   14  O   UNK N   1      32.053   9.526  21.830  0.00  0.00    -0.271 OA
HETATM   15  N   UNK N   1      33.002  11.162  22.995  0.00  0.00    -0.368 N 
HETATM   16  H   UNK N   1      33.725  11.737  23.333  0.00  0.00     0.159 HD
HETATM   17  H   UNK N   1      32.168  11.201  23.516  0.00  0.00     0.159 HD
ENDBRANCH  10  13
ENDBRANCH   4   7
BRANCH   1  18
HETATM   18  O   UNK N   1      34.532  12.571  14.516  0.00  0.00    -0.347 OA
BRANCH  18  19
HETATM   19  C   UNK N   1      35.311  12.193  13.446  0.00  0.00     0.217 C 
BRANCH  19  20
HETATM   20  C   UNK N   1      35.314  13.302  12.448  0.00  0.00     0.004 A 
HETATM   21  C   UNK N   1      35.924  14.531  12.756  0.00  0.00     0.124 A 
HETATM   22  C   UNK N   1      35.909  15.569  11.822  0.00  0.00     0.043 A 
HETATM   23  F   UNK N   1      36.515  14.724  13.961  0.00  0.00    -0.205 F 
HETATM   24  C   UNK N   1      35.296  15.387  10.581  0.00  0.00     0.003 A 
HETATM   25  C   UNK N   1      34.693  14.164  10.271  0.00  0.00     0.001 A 
HETATM   26  C   UNK N   1      34.699  13.123  11.205  0.00  0.00     0.012 A 
ENDBRANCH  19  20
ENDBRANCH  18  19
ENDBRANCH   1  18
TORSDOF 5
ENDMDL
