REMARK  3 active torsions:
REMARK  status: ('A' for Active; 'I' for Inactive)
REMARK    1  A    between atoms: N_9  and  N_10 
REMARK    2  A    between atoms: C_12  and  C_13 
REMARK    3  A    between atoms: C_16  and  N_18 
ROOT
HETATM    1  N   UNK N   1       3.881  -0.047   0.123  0.00  0.00    -0.311 N 
ATOM      2  HN  UNK N   1       2.924  -0.399   0.137  1.00  0.00     0.185 HD
HETATM    3  C   UNK N   1       4.831  -0.863   0.402  0.00  0.00     0.144 C 
ENDROOT
BRANCH   1   4
HETATM    4  N   UNK N   1       4.081   1.276  -0.194  0.00  0.00    -0.322 N 
HETATM    5  C   UNK N   1       5.402   1.867  -0.210  0.00  0.00     0.158 C 
HETATM    6  C   UNK N   1       5.269   3.267   0.404  0.00  0.00     0.161 C 
HETATM    7  S   UNK N   1       4.436   4.408  -0.787  0.00  0.00     0.148 S 
HETATM    8  C   UNK N   1       3.172   3.462   0.162  0.00  0.00     0.166 C 
HETATM    9  O   UNK N   1       3.425   5.367  -0.143  0.00  0.00    -0.228 OA
HETATM   10  O   UNK N   1       5.402   5.212   0.093  0.00  0.00    -0.228 OA
HETATM   11  C   UNK N   1       2.950   2.119  -0.528  0.00  0.00     0.112 C 
HETATM   12  C   UNK N   1       1.620   1.504  -0.109  0.00  0.00     0.035 C 
ENDBRANCH   1   4
BRANCH   3  13
HETATM   13  C   UNK N   1       4.477  -2.273   0.469  0.00  0.00     0.095 A 
HETATM   14  C   UNK N   1       5.340  -3.352   0.535  0.00  0.00     0.043 A 
HETATM   15  C   UNK N   1       4.539  -4.474   0.347  0.00  0.00     0.065 A 
HETATM   16  C   UNK N   1       3.255  -3.978   0.179  0.00  0.00     0.215 A 
HETATM   17  O   UNK N   1       3.255  -2.682   0.256  0.00  0.00    -0.287 OA
BRANCH  16  18
HETATM   18  N   UNK N   1       2.094  -4.725  -0.125  0.00  0.00    -0.090 N 
HETATM   19  O   UNK N   1       2.168  -5.891  -0.357  0.00  0.00    -0.530 OA
HETATM   20  O   UNK N   1       0.937  -4.107  -0.246  0.00  0.00    -0.530 OA
ENDBRANCH  16  18
ENDBRANCH   3  13
TORSDOF 3
