MODEL 1
REMARK VINA RESULT:     -15.9      0.000      0.000
REMARK  5 active torsions:
REMARK  status: ('A' for Active; 'I' for Inactive)
REMARK    1  A    between atoms: C_15  and  C_17 
REMARK    2  A    between atoms: C_24  and  C_28 
REMARK    3  A    between atoms: C_30  and  C_35 
REMARK    4  A    between atoms: C_31  and  C_36 
REMARK    5  A    between atoms: C_33  and  C_37 
ROOT
HETATM    1  O   UNK N   1      35.924  12.081  14.940  0.00  0.00    -0.350 OA
HETATM    2  O   UNK N   1      35.768  10.830  15.613  0.00  0.00    -0.355 OA
HETATM    3  O   UNK N   1      35.871  14.104  15.481  0.00  0.00    -0.388 OA
HETATM    4  O   UNK N   1      36.081  13.332  14.268  0.00  0.00    -0.354 OA
HETATM    5  O   UNK N   1      35.877   9.607  14.881  0.00  0.00    -0.354 OA
HETATM    6  O   UNK N   1      35.238  10.773  18.421  0.00  0.00    -0.312 OA
HETATM    7  O   UNK N   1      35.506   8.032  16.654  0.00  0.00    -0.383 OA
HETATM    8  O   UNK N   1      36.174  11.284  13.517  0.00  0.00    -0.389 OA
HETATM    9  O   UNK N   1      35.704   7.531  15.535  0.00  0.00    -0.390 OA
HETATM   10  O   UNK N   1      34.986  12.194  19.940  0.00  0.00    -0.385 OA
HETATM   11  O   UNK N   1      35.307  11.654  18.164  0.00  0.00    -0.392 OA
HETATM   12  O   UNK N   1      35.442  14.498  17.806  0.00  0.00    -0.297 OA
HETATM   13  O   UNK N   1      35.395  12.024  17.748  0.00  0.00    -0.265 OA
HETATM   14  N   UNK N   1      36.455  12.137  12.132  0.00  0.00    -0.414 N 
HETATM   15  C   UNK N   1      35.800  12.479  15.652  0.00  0.00     0.165 A 
HETATM   16  C   UNK N   1      35.660  12.053  16.344  0.00  0.00     0.043 A 
HETATM   17  C   UNK N   1      35.816  13.303  15.671  0.00  0.00     0.081 A 
HETATM   18  C   UNK N   1      35.644  11.228  16.325  0.00  0.00     0.144 A 
HETATM   19  C   UNK N   1      35.691  13.701  16.383  0.00  0.00     0.051 A 
HETATM   20  C   UNK N   1      35.503  10.802  17.016  0.00  0.00     0.111 A 
HETATM   21  C   UNK N   1      35.551  13.275  17.075  0.00  0.00     0.054 A 
HETATM   22  C   UNK N   1      36.065  12.506  14.248  0.00  0.00     0.291 A 
HETATM   23  C   UNK N   1      35.752  10.005  15.593  0.00  0.00     0.263 A 
HETATM   24  C   UNK N   1      35.596   8.754  16.265  0.00  0.00     0.089 A 
HETATM   25  C   UNK N   1      35.535  12.451  17.055  0.00  0.00     0.015 A 
HETATM   26  C   UNK N   1      36.189  12.108  13.536  0.00  0.00     0.195 A 
HETATM   27  C   UNK N   1      36.330  12.535  12.844  0.00  0.00     0.114 A 
HETATM   28  C   UNK N   1      35.612   9.579  16.286  0.00  0.00     0.101 A 
HETATM   29  C   UNK N   1      35.968  13.533  14.893  0.00  0.00     0.049 A 
HETATM   30  C   UNK N   1      35.720   8.356  15.554  0.00  0.00     0.181 A 
HETATM   31  C   UNK N   1      35.286  13.248  18.479  0.00  0.00     0.083 A 
HETATM   32  C   UNK N   1      35.130  11.996  19.151  0.00  0.00     0.107 A 
HETATM   33  C   UNK N   1      36.346  13.359  12.864  0.00  0.00     0.059 A 
HETATM   34  C   UNK N   1      35.270  12.423  18.460  0.00  0.00     0.165 A 
HETATM   35  C   UNK N   1      35.861   8.782  14.862  0.00  0.00     0.152 A 
HETATM   36  C   UNK N   1      35.426  13.674  17.787  0.00  0.00     0.137 A 
HETATM   37  C   UNK N   1      36.221  13.758  13.575  0.00  0.00     0.122 A 
HETATM   38  C   UNK N   1      35.114  11.172  19.132  0.00  0.00     0.168 A 
HETATM   39  C   UNK N   1      35.379  11.200  17.728  0.00  0.00     0.265 A 
HETATM   40  C   UNK N   1      35.487   9.977  16.997  0.00  0.00     0.023 A 
HETATM   41  C   UNK N   1      35.675  12.877  16.364  0.00  0.00     0.018 A 
HETATM   42  C   UNK N   1      35.443   8.738  17.077  0.00  0.00     0.049 A 
HETATM   43  C   UNK N   1      35.162  13.646  19.190  0.00  0.00     0.020 A 
HETATM   44  C   UNK N   1      35.079  12.737  19.512  0.00  0.00     0.051 A 
HETATM   45  C   UNK N   1      34.973  10.745  19.824  0.00  0.00     0.031 A 
HETATM   46  C   UNK N   1      35.985   8.383  14.150  0.00  0.00     0.042 A 
HETATM   47  C   UNK N   1      36.237  14.583  13.595  0.00  0.00     0.040 A 
HETATM   48  C   UNK N   1      36.595  12.563  11.440  0.00  0.00     0.143 A 
HETATM   49  C   UNK N   1      36.438  11.312  12.113  0.00  0.00     0.143 A 
HETATM   50  C   UNK N   1      34.957   9.921  19.805  0.00  0.00     0.007 A 
HETATM   51  C   UNK N   1      35.352   8.016  17.465  0.00  0.00     0.202 A 
HETATM   52  H   UNK N   1      36.049  14.373  14.566  0.00  0.00     0.210 HD
HETATM   53  H   UNK N   1      36.008  10.783  14.331  0.00  0.00     0.210 HD
HETATM   54  H   UNK N   1      35.539   7.030  16.349  0.00  0.00     0.210 HD
HETATM   55  H   UNK N   1      34.958  13.126  20.208  0.00  0.00     0.210 HD
HETATM   56  H   UNK N   1      35.177  10.898  18.759  0.00  0.00     0.210 HD
ENDROOT
TORSDOF 5
ENDMDL
MODEL 2
REMARK VINA RESULT:     -15.8     16.374     18.636
REMARK  5 active torsions:
REMARK  status: ('A' for Active; 'I' for Inactive)
REMARK    1  A    between atoms: C_15  and  C_17 
REMARK    2  A    between atoms: C_24  and  C_28 
REMARK    3  A    between atoms: C_30  and  C_35 
REMARK    4  A    between atoms: C_31  and  C_36 
REMARK    5  A    between atoms: C_33  and  C_37 
ROOT
HETATM    1  O   UNK N   1      22.716  19.018   3.548  0.00  0.00    -0.350 OA
HETATM    2  O   UNK N   1      23.387  18.007   4.303  0.00  0.00    -0.355 OA
HETATM    3  O   UNK N   1      23.266  20.782   2.561  0.00  0.00    -0.388 OA
HETATM    4  O   UNK N   1      22.045  20.029   2.794  0.00  0.00    -0.354 OA
HETATM    5  O   UNK N   1      22.648  16.909   4.841  0.00  0.00    -0.354 OA
HETATM    6  O   UNK N   1      26.207  18.180   4.733  0.00  0.00    -0.312 OA
HETATM    7  O   UNK N   1      24.422  15.709   5.923  0.00  0.00    -0.383 OA
HETATM    8  O   UNK N   1      21.284  18.228   3.764  0.00  0.00    -0.389 OA
HETATM    9  O   UNK N   1      23.297  15.194   6.027  0.00  0.00    -0.390 OA
HETATM   10  O   UNK N   1      27.738  19.508   4.203  0.00  0.00    -0.385 OA
HETATM   11  O   UNK N   1      25.953  18.909   4.233  0.00  0.00    -0.392 OA
HETATM   12  O   UNK N   1      25.604  21.300   2.686  0.00  0.00    -0.297 OA
HETATM   13  O   UNK N   1      25.536  19.191   3.979  0.00  0.00    -0.265 OA
HETATM   14  N   UNK N   1      19.895  18.844   3.118  0.00  0.00    -0.414 N 
HETATM   15  C   UNK N   1      23.432  19.413   3.440  0.00  0.00     0.165 A 
HETATM   16  C   UNK N   1      24.125  19.105   3.763  0.00  0.00     0.043 A 
HETATM   17  C   UNK N   1      23.455  20.115   3.010  0.00  0.00     0.081 A 
HETATM   18  C   UNK N   1      24.103  18.402   4.195  0.00  0.00     0.144 A 
HETATM   19  C   UNK N   1      24.171  20.510   2.902  0.00  0.00     0.051 A 
HETATM   20  C   UNK N   1      24.797  18.093   4.518  0.00  0.00     0.111 A 
HETATM   21  C   UNK N   1      24.865  20.203   3.225  0.00  0.00     0.054 A 
HETATM   22  C   UNK N   1      22.022  19.326   3.225  0.00  0.00     0.291 A 
HETATM   23  C   UNK N   1      23.364  17.304   4.734  0.00  0.00     0.263 A 
HETATM   24  C   UNK N   1      24.035  16.292   5.488  0.00  0.00     0.089 A 
HETATM   25  C   UNK N   1      24.842  19.500   3.655  0.00  0.00     0.015 A 
HETATM   26  C   UNK N   1      21.306  18.931   3.333  0.00  0.00     0.195 A 
HETATM   27  C   UNK N   1      20.612  19.240   3.010  0.00  0.00     0.114 A 
HETATM   28  C   UNK N   1      24.058  16.995   5.057  0.00  0.00     0.101 A 
HETATM   29  C   UNK N   1      22.674  20.250   2.778  0.00  0.00     0.049 A 
HETATM   30  C   UNK N   1      23.319  15.898   5.596  0.00  0.00     0.181 A 
HETATM   31  C   UNK N   1      26.274  20.289   3.440  0.00  0.00     0.083 A 
HETATM   32  C   UNK N   1      26.945  19.278   4.194  0.00  0.00     0.107 A 
HETATM   33  C   UNK N   1      20.635  19.942   2.579  0.00  0.00     0.059 A 
HETATM   34  C   UNK N   1      26.252  19.586   3.871  0.00  0.00     0.165 A 
HETATM   35  C   UNK N   1      22.626  16.206   5.273  0.00  0.00     0.152 A 
HETATM   36  C   UNK N   1      25.581  20.597   3.117  0.00  0.00     0.137 A 
HETATM   37  C   UNK N   1      21.351  20.337   2.471  0.00  0.00     0.122 A 
HETATM   38  C   UNK N   1      26.923  18.575   4.625  0.00  0.00     0.168 A 
HETATM   39  C   UNK N   1      25.513  18.488   4.410  0.00  0.00     0.265 A 
HETATM   40  C   UNK N   1      24.775  17.390   4.949  0.00  0.00     0.023 A 
HETATM   41  C   UNK N   1      24.149  19.808   3.332  0.00  0.00     0.018 A 
HETATM   42  C   UNK N   1      24.850  16.342   5.612  0.00  0.00     0.049 A 
HETATM   43  C   UNK N   1      26.991  20.684   3.332  0.00  0.00     0.020 A 
HETATM   44  C   UNK N   1      27.310  19.936   3.856  0.00  0.00     0.051 A 
HETATM   45  C   UNK N   1      27.616  18.267   4.948  0.00  0.00     0.031 A 
HETATM   46  C   UNK N   1      21.909  15.810   5.381  0.00  0.00     0.042 A 
HETATM   47  C   UNK N   1      21.374  21.041   2.040  0.00  0.00     0.040 A 
HETATM   48  C   UNK N   1      19.202  19.152   2.795  0.00  0.00     0.143 A 
HETATM   49  C   UNK N   1      19.873  18.141   3.549  0.00  0.00     0.143 A 
HETATM   50  C   UNK N   1      27.595  17.564   5.380  0.00  0.00     0.007 A 
HETATM   51  C   UNK N   1      25.237  15.759   6.048  0.00  0.00     0.202 A 
HETATM   52  H   UNK N   1      22.349  20.939   2.288  0.00  0.00     0.210 HD
HETATM   53  H   UNK N   1      22.099  17.866   4.144  0.00  0.00     0.210 HD
HETATM   54  H   UNK N   1      24.112  14.832   6.407  0.00  0.00     0.210 HD
HETATM   55  H   UNK N   1      28.011  20.322   3.751  0.00  0.00     0.210 HD
HETATM   56  H   UNK N   1      26.547  18.312   4.716  0.00  0.00     0.210 HD
ENDROOT
TORSDOF 5
ENDMDL
MODEL 3
REMARK VINA RESULT:     -15.7      1.019      3.929
REMARK  5 active torsions:
REMARK  status: ('A' for Active; 'I' for Inactive)
REMARK    1  A    between atoms: C_15  and  C_17 
REMARK    2  A    between atoms: C_24  and  C_28 
REMARK    3  A    between atoms: C_30  and  C_35 
REMARK    4  A    between atoms: C_31  and  C_36 
REMARK    5  A    between atoms: C_33  and  C_37 
ROOT
HETATM    1  O   UNK N   1      35.977  10.184  15.509  0.00  0.00    -0.350 OA
HETATM    2  O   UNK N   1      36.181  11.561  15.187  0.00  0.00    -0.355 OA
HETATM    3  O   UNK N   1      35.387   9.099  17.201  0.00  0.00    -0.388 OA
HETATM    4  O   UNK N   1      35.773   8.807  15.831  0.00  0.00    -0.354 OA
HETATM    5  O   UNK N   1      36.603  11.932  13.873  0.00  0.00    -0.354 OA
HETATM    6  O   UNK N   1      35.747  13.572  17.171  0.00  0.00    -0.312 OA
HETATM    7  O   UNK N   1      36.712  14.316  14.134  0.00  0.00    -0.383 OA
HETATM    8  O   UNK N   1      36.403   9.762  13.972  0.00  0.00    -0.389 OA
HETATM    9  O   UNK N   1      37.015  13.893  13.006  0.00  0.00    -0.390 OA
HETATM   10  O   UNK N   1      35.151  13.610  19.178  0.00  0.00    -0.385 OA
HETATM   11  O   UNK N   1      35.569  12.755  17.553  0.00  0.00    -0.392 OA
HETATM   12  O   UNK N   1      34.918  10.446  19.128  0.00  0.00    -0.297 OA
HETATM   13  O   UNK N   1      35.543  12.195  17.493  0.00  0.00    -0.265 OA
HETATM   14  N   UNK N   1      36.412   8.173  13.524  0.00  0.00    -0.414 N 
HETATM   15  C   UNK N   1      35.764  10.395  16.277  0.00  0.00     0.165 A 
HETATM   16  C   UNK N   1      35.760  11.189  16.500  0.00  0.00     0.043 A 
HETATM   17  C   UNK N   1      35.556   9.812  16.822  0.00  0.00     0.081 A 
HETATM   18  C   UNK N   1      35.969  11.772  15.955  0.00  0.00     0.144 A 
HETATM   19  C   UNK N   1      35.343  10.024  17.591  0.00  0.00     0.051 A 
HETATM   20  C   UNK N   1      35.964  12.566  16.178  0.00  0.00     0.111 A 
HETATM   21  C   UNK N   1      35.339  10.818  17.815  0.00  0.00     0.054 A 
HETATM   22  C   UNK N   1      35.982   9.390  15.285  0.00  0.00     0.291 A 
HETATM   23  C   UNK N   1      36.390  12.144  14.641  0.00  0.00     0.263 A 
HETATM   24  C   UNK N   1      36.594  13.521  14.319  0.00  0.00     0.089 A 
HETATM   25  C   UNK N   1      35.547  11.400  17.269  0.00  0.00     0.015 A 
HETATM   26  C   UNK N   1      36.195   9.179  14.516  0.00  0.00     0.195 A 
HETATM   27  C   UNK N   1      36.199   8.384  14.294  0.00  0.00     0.114 A 
HETATM   28  C   UNK N   1      36.386  12.938  14.865  0.00  0.00     0.101 A 
HETATM   29  C   UNK N   1      35.623   9.100  16.410  0.00  0.00     0.049 A 
HETATM   30  C   UNK N   1      36.807  13.310  13.551  0.00  0.00     0.181 A 
HETATM   31  C   UNK N   1      35.122  11.822  18.806  0.00  0.00     0.083 A 
HETATM   32  C   UNK N   1      35.326  13.200  18.484  0.00  0.00     0.107 A 
HETATM   33  C   UNK N   1      35.991   7.802  14.838  0.00  0.00     0.059 A 
HETATM   34  C   UNK N   1      35.330  12.406  18.261  0.00  0.00     0.165 A 
HETATM   35  C   UNK N   1      36.811  12.516  13.328  0.00  0.00     0.152 A 
HETATM   36  C   UNK N   1      35.126  11.029  18.583  0.00  0.00     0.137 A 
HETATM   37  C   UNK N   1      35.778   8.013  15.607  0.00  0.00     0.122 A 
HETATM   38  C   UNK N   1      35.534  13.783  17.939  0.00  0.00     0.168 A 
HETATM   39  C   UNK N   1      35.751  12.777  16.947  0.00  0.00     0.265 A 
HETATM   40  C   UNK N   1      36.173  13.150  15.634  0.00  0.00     0.023 A 
HETATM   41  C   UNK N   1      35.552  10.606  17.046  0.00  0.00     0.018 A 
HETATM   42  C   UNK N   1      36.469  14.102  14.892  0.00  0.00     0.049 A 
HETATM   43  C   UNK N   1      34.909  12.034  19.575  0.00  0.00     0.020 A 
HETATM   44  C   UNK N   1      35.084  12.917  19.220  0.00  0.00     0.051 A 
HETATM   45  C   UNK N   1      35.530  14.577  18.162  0.00  0.00     0.031 A 
HETATM   46  C   UNK N   1      37.025  12.305  12.558  0.00  0.00     0.042 A 
HETATM   47  C   UNK N   1      35.569   7.430  16.153  0.00  0.00     0.040 A 
HETATM   48  C   UNK N   1      36.416   7.379  13.301  0.00  0.00     0.143 A 
HETATM   49  C   UNK N   1      36.621   8.757  12.979  0.00  0.00     0.143 A 
HETATM   50  C   UNK N   1      35.738  15.160  17.617  0.00  0.00     0.007 A 
HETATM   51  C   UNK N   1      36.586  14.897  14.707  0.00  0.00     0.202 A 
HETATM   52  H   UNK N   1      35.466   8.262  16.716  0.00  0.00     0.210 HD
HETATM   53  H   UNK N   1      36.398  10.695  14.234  0.00  0.00     0.210 HD
HETATM   54  H   UNK N   1      37.010  14.827  13.269  0.00  0.00     0.210 HD
HETATM   55  H   UNK N   1      34.876  13.124  19.972  0.00  0.00     0.210 HD
HETATM   56  H   UNK N   1      35.662  13.719  17.494  0.00  0.00     0.210 HD
ENDROOT
TORSDOF 5
ENDMDL
MODEL 4
REMARK VINA RESULT:     -15.7     16.625     18.803
REMARK  5 active torsions:
REMARK  status: ('A' for Active; 'I' for Inactive)
REMARK    1  A    between atoms: C_15  and  C_17 
REMARK    2  A    between atoms: C_24  and  C_28 
REMARK    3  A    between atoms: C_30  and  C_35 
REMARK    4  A    between atoms: C_31  and  C_36 
REMARK    5  A    between atoms: C_33  and  C_37 
ROOT
HETATM    1  O   UNK N   1      24.787  18.817   4.200  0.00  0.00    -0.350 OA
HETATM    2  O   UNK N   1      23.885  17.786   4.607  0.00  0.00    -0.355 OA
HETATM    3  O   UNK N   1      24.649  20.602   3.111  0.00  0.00    -0.388 OA
HETATM    4  O   UNK N   1      25.688  19.848   3.792  0.00  0.00    -0.354 OA
HETATM    5  O   UNK N   1      24.365  16.679   5.372  0.00  0.00    -0.354 OA
HETATM    6  O   UNK N   1      21.122  17.939   3.891  0.00  0.00    -0.312 OA
HETATM    7  O   UNK N   1      22.323  15.447   5.639  0.00  0.00    -0.383 OA
HETATM    8  O   UNK N   1      26.027  18.028   4.948  0.00  0.00    -0.389 OA
HETATM    9  O   UNK N   1      23.322  14.934   6.169  0.00  0.00    -0.390 OA
HETATM   10  O   UNK N   1      19.909  19.273   2.825  0.00  0.00    -0.385 OA
HETATM   11  O   UNK N   1      21.545  18.680   3.547  0.00  0.00    -0.392 OA
HETATM   12  O   UNK N   1      22.446  21.108   2.312  0.00  0.00    -0.297 OA
HETATM   13  O   UNK N   1      22.024  18.970   3.484  0.00  0.00    -0.265 OA
HETATM   14  N   UNK N   1      27.550  18.664   4.916  0.00  0.00    -0.414 N 
HETATM   15  C   UNK N   1      24.166  19.212   3.825  0.00  0.00     0.165 A 
HETATM   16  C   UNK N   1      23.406  18.894   3.842  0.00  0.00     0.043 A 
HETATM   17  C   UNK N   1      24.307  19.924   3.435  0.00  0.00     0.081 A 
HETATM   18  C   UNK N   1      23.265  18.181   4.232  0.00  0.00     0.144 A 
HETATM   19  C   UNK N   1      23.687  20.319   3.060  0.00  0.00     0.051 A 
HETATM   20  C   UNK N   1      22.504  17.863   4.249  0.00  0.00     0.111 A 
HETATM   21  C   UNK N   1      22.926  20.001   3.076  0.00  0.00     0.054 A 
HETATM   22  C   UNK N   1      25.548  19.135   4.184  0.00  0.00     0.291 A 
HETATM   23  C   UNK N   1      23.745  17.073   4.997  0.00  0.00     0.263 A 
HETATM   24  C   UNK N   1      22.843  16.042   5.404  0.00  0.00     0.089 A 
HETATM   25  C   UNK N   1      22.786  19.288   3.467  0.00  0.00     0.015 A 
HETATM   26  C   UNK N   1      26.168  18.740   4.558  0.00  0.00     0.195 A 
HETATM   27  C   UNK N   1      26.929  19.059   4.541  0.00  0.00     0.114 A 
HETATM   28  C   UNK N   1      22.983  16.755   5.014  0.00  0.00     0.101 A 
HETATM   29  C   UNK N   1      25.114  20.067   3.533  0.00  0.00     0.049 A 
HETATM   30  C   UNK N   1      23.464  15.647   5.779  0.00  0.00     0.181 A 
HETATM   31  C   UNK N   1      21.545  20.078   2.719  0.00  0.00     0.083 A 
HETATM   32  C   UNK N   1      20.643  19.046   3.126  0.00  0.00     0.107 A 
HETATM   33  C   UNK N   1      27.070  19.771   4.151  0.00  0.00     0.059 A 
HETATM   34  C   UNK N   1      21.404  19.365   3.109  0.00  0.00     0.165 A 
HETATM   35  C   UNK N   1      24.224  15.966   5.762  0.00  0.00     0.152 A 
HETATM   36  C   UNK N   1      22.305  20.396   2.702  0.00  0.00     0.137 A 
HETATM   37  C   UNK N   1      26.449  20.166   3.776  0.00  0.00     0.122 A 
HETATM   38  C   UNK N   1      20.502  18.333   3.516  0.00  0.00     0.168 A 
HETATM   39  C   UNK N   1      21.884  18.257   3.874  0.00  0.00     0.265 A 
HETATM   40  C   UNK N   1      22.363  17.150   4.639  0.00  0.00     0.023 A 
HETATM   41  C   UNK N   1      23.546  19.606   3.451  0.00  0.00     0.018 A 
HETATM   42  C   UNK N   1      22.045  16.086   5.198  0.00  0.00     0.049 A 
HETATM   43  C   UNK N   1      20.925  20.472   2.344  0.00  0.00     0.020 A 
HETATM   44  C   UNK N   1      20.434  19.711   2.684  0.00  0.00     0.051 A 
HETATM   45  C   UNK N   1      19.742  18.015   3.533  0.00  0.00     0.031 A 
HETATM   46  C   UNK N   1      24.845  15.571   6.137  0.00  0.00     0.042 A 
HETATM   47  C   UNK N   1      26.590  20.879   3.385  0.00  0.00     0.040 A 
HETATM   48  C   UNK N   1      28.310  18.982   4.899  0.00  0.00     0.143 A 
HETATM   49  C   UNK N   1      27.409  17.951   5.307  0.00  0.00     0.143 A 
HETATM   50  C   UNK N   1      19.600  17.302   3.923  0.00  0.00     0.007 A 
HETATM   51  C   UNK N   1      21.524  15.491   5.433  0.00  0.00     0.202 A 
HETATM   52  H   UNK N   1      25.598  20.768   3.227  0.00  0.00     0.210 HD
HETATM   53  H   UNK N   1      25.133  17.654   4.967  0.00  0.00     0.210 HD
HETATM   54  H   UNK N   1      22.427  14.560   6.189  0.00  0.00     0.210 HD
HETATM   55  H   UNK N   1      19.826  20.096   2.318  0.00  0.00     0.210 HD
HETATM   56  H   UNK N   1      20.815  18.070   3.743  0.00  0.00     0.210 HD
ENDROOT
TORSDOF 5
ENDMDL
MODEL 5
REMARK VINA RESULT:     -15.5     14.543     15.575
REMARK  5 active torsions:
REMARK  status: ('A' for Active; 'I' for Inactive)
REMARK    1  A    between atoms: C_15  and  C_17 
REMARK    2  A    between atoms: C_24  and  C_28 
REMARK    3  A    between atoms: C_30  and  C_35 
REMARK    4  A    between atoms: C_31  and  C_36 
REMARK    5  A    between atoms: C_33  and  C_37 
ROOT
HETATM    1  O   UNK N   1      23.506  14.575   7.575  0.00  0.00    -0.350 OA
HETATM    2  O   UNK N   1      22.201  14.690   8.145  0.00  0.00    -0.355 OA
HETATM    3  O   UNK N   1      25.220  13.428   7.942  0.00  0.00    -0.388 OA
HETATM    4  O   UNK N   1      24.812  14.460   7.004  0.00  0.00    -0.354 OA
HETATM    5  O   UNK N   1      21.264  15.622   7.602  0.00  0.00    -0.354 OA
HETATM    6  O   UNK N   1      21.466  13.056  10.372  0.00  0.00    -0.312 OA
HETATM    7  O   UNK N   1      19.396  15.221   9.054  0.00  0.00    -0.383 OA
HETATM    8  O   UNK N   1      23.127  15.741   6.471  0.00  0.00    -0.389 OA
HETATM    9  O   UNK N   1      19.211  16.086   8.182  0.00  0.00    -0.390 OA
HETATM   10  O   UNK N   1      22.391  11.578  11.533  0.00  0.00    -0.385 OA
HETATM   11  O   UNK N   1      22.331  12.847  10.142  0.00  0.00    -0.392 OA
HETATM   12  O   UNK N   1      25.013  11.894   9.773  0.00  0.00    -0.297 OA
HETATM   13  O   UNK N   1      22.771  12.941   9.801  0.00  0.00    -0.265 OA
HETATM   14  N   UNK N   1      24.242  16.209   5.348  0.00  0.00    -0.414 N 
HETATM   15  C   UNK N   1      23.696  13.992   8.127  0.00  0.00     0.165 A 
HETATM   16  C   UNK N   1      23.139  13.758   8.688  0.00  0.00     0.043 A 
HETATM   17  C   UNK N   1      24.443  13.643   8.117  0.00  0.00     0.081 A 
HETATM   18  C   UNK N   1      22.391  14.107   8.697  0.00  0.00     0.144 A 
HETATM   19  C   UNK N   1      24.633  13.060   8.669  0.00  0.00     0.051 A 
HETATM   20  C   UNK N   1      21.834  13.873   9.258  0.00  0.00     0.111 A 
HETATM   21  C   UNK N   1      24.076  12.826   9.231  0.00  0.00     0.054 A 
HETATM   22  C   UNK N   1      24.063  14.809   7.013  0.00  0.00     0.291 A 
HETATM   23  C   UNK N   1      21.454  15.039   8.154  0.00  0.00     0.263 A 
HETATM   24  C   UNK N   1      20.149  15.155   8.725  0.00  0.00     0.089 A 
HETATM   25  C   UNK N   1      23.329  13.175   9.240  0.00  0.00     0.015 A 
HETATM   26  C   UNK N   1      23.874  15.392   6.461  0.00  0.00     0.195 A 
HETATM   27  C   UNK N   1      24.432  15.626   5.900  0.00  0.00     0.114 A 
HETATM   28  C   UNK N   1      20.896  14.805   8.716  0.00  0.00     0.101 A 
HETATM   29  C   UNK N   1      24.842  14.008   7.494  0.00  0.00     0.049 A 
HETATM   30  C   UNK N   1      19.959  15.738   8.173  0.00  0.00     0.181 A 
HETATM   31  C   UNK N   1      23.709  12.009  10.343  0.00  0.00     0.083 A 
HETATM   32  C   UNK N   1      22.404  12.124  10.914  0.00  0.00     0.107 A 
HETATM   33  C   UNK N   1      25.179  15.277   5.891  0.00  0.00     0.059 A 
HETATM   34  C   UNK N   1      22.961  12.358  10.353  0.00  0.00     0.165 A 
HETATM   35  C   UNK N   1      20.516  15.971   7.612  0.00  0.00     0.152 A 
HETATM   36  C   UNK N   1      24.266  12.243   9.783  0.00  0.00     0.137 A 
HETATM   37  C   UNK N   1      25.369  14.694   6.443  0.00  0.00     0.122 A 
HETATM   38  C   UNK N   1      21.656  12.473  10.924  0.00  0.00     0.168 A 
HETATM   39  C   UNK N   1      22.024  13.290   9.810  0.00  0.00     0.265 A 
HETATM   40  C   UNK N   1      21.086  14.222   9.268  0.00  0.00     0.023 A 
HETATM   41  C   UNK N   1      23.886  13.409   8.679  0.00  0.00     0.018 A 
HETATM   42  C   UNK N   1      19.936  14.683   9.368  0.00  0.00     0.049 A 
HETATM   43  C   UNK N   1      23.898  11.426  10.895  0.00  0.00     0.020 A 
HETATM   44  C   UNK N   1      22.991  11.609  11.177  0.00  0.00     0.051 A 
HETATM   45  C   UNK N   1      21.098  12.240  11.485  0.00  0.00     0.031 A 
HETATM   46  C   UNK N   1      20.326  16.555   7.059  0.00  0.00     0.042 A 
HETATM   47  C   UNK N   1      26.117  14.345   6.434  0.00  0.00     0.040 A 
HETATM   48  C   UNK N   1      24.799  16.443   4.787  0.00  0.00     0.143 A 
HETATM   49  C   UNK N   1      23.494  16.558   5.357  0.00  0.00     0.143 A 
HETATM   50  C   UNK N   1      20.351  12.588  11.494  0.00  0.00     0.007 A 
HETATM   51  C   UNK N   1      19.183  14.749   9.697  0.00  0.00     0.202 A 
HETATM   52  H   UNK N   1      25.689  13.857   7.210  0.00  0.00     0.210 HD
HETATM   53  H   UNK N   1      22.471  15.466   7.131  0.00  0.00     0.210 HD
HETATM   54  H   UNK N   1      18.556  15.811   8.842  0.00  0.00     0.210 HD
HETATM   55  H   UNK N   1      23.176  11.038  11.718  0.00  0.00     0.210 HD
HETATM   56  H   UNK N   1      21.497  12.806  10.636  0.00  0.00     0.210 HD
ENDROOT
TORSDOF 5
ENDMDL
MODEL 6
REMARK VINA RESULT:     -15.4     10.992     14.134
REMARK  5 active torsions:
REMARK  status: ('A' for Active; 'I' for Inactive)
REMARK    1  A    between atoms: C_15  and  C_17 
REMARK    2  A    between atoms: C_24  and  C_28 
REMARK    3  A    between atoms: C_30  and  C_35 
REMARK    4  A    between atoms: C_31  and  C_36 
REMARK    5  A    between atoms: C_33  and  C_37 
ROOT
HETATM    1  O   UNK N   1      28.474  18.498   5.745  0.00  0.00    -0.350 OA
HETATM    2  O   UNK N   1      29.322  17.883   6.718  0.00  0.00    -0.355 OA
HETATM    3  O   UNK N   1      28.018  18.185   3.725  0.00  0.00    -0.388 OA
HETATM    4  O   UNK N   1      27.626  19.113   4.773  0.00  0.00    -0.354 OA
HETATM    5  O   UNK N   1      29.370  18.397   8.050  0.00  0.00    -0.354 OA
HETATM    6  O   UNK N   1      30.922  15.627   5.997  0.00  0.00    -0.312 OA
HETATM    7  O   UNK N   1      30.958  16.880   9.019  0.00  0.00    -0.383 OA
HETATM    8  O   UNK N   1      27.973  19.592   6.874  0.00  0.00    -0.389 OA
HETATM    9  O   UNK N   1      30.517  17.748   9.791  0.00  0.00    -0.390 OA
HETATM   10  O   UNK N   1      31.242  14.493   4.264  0.00  0.00    -0.385 OA
HETATM   11  O   UNK N   1      30.447  15.886   5.253  0.00  0.00    -0.392 OA
HETATM   12  O   UNK N   1      29.177  16.343   2.720  0.00  0.00    -0.297 OA
HETATM   13  O   UNK N   1      30.074  16.242   5.024  0.00  0.00    -0.265 OA
HETATM   14  N   UNK N   1      26.875  20.755   6.467  0.00  0.00    -0.414 N 
HETATM   15  C   UNK N   1      28.725  17.951   5.181  0.00  0.00     0.165 A 
HETATM   16  C   UNK N   1      29.273  17.370   5.385  0.00  0.00     0.043 A 
HETATM   17  C   UNK N   1      28.426  17.985   4.413  0.00  0.00     0.081 A 
HETATM   18  C   UNK N   1      29.573  17.336   6.153  0.00  0.00     0.144 A 
HETATM   19  C   UNK N   1      28.677  17.437   3.849  0.00  0.00     0.051 A 
HETATM   20  C   UNK N   1      30.121  16.756   6.357  0.00  0.00     0.111 A 
HETATM   21  C   UNK N   1      29.226  16.856   4.052  0.00  0.00     0.054 A 
HETATM   22  C   UNK N   1      27.925  19.079   5.542  0.00  0.00     0.291 A 
HETATM   23  C   UNK N   1      29.621  17.850   7.486  0.00  0.00     0.263 A 
HETATM   24  C   UNK N   1      30.469  17.235   8.458  0.00  0.00     0.089 A 
HETATM   25  C   UNK N   1      29.524  16.823   4.821  0.00  0.00     0.015 A 
HETATM   26  C   UNK N   1      27.675  19.626   6.107  0.00  0.00     0.195 A 
HETATM   27  C   UNK N   1      27.126  20.207   5.902  0.00  0.00     0.114 A 
HETATM   28  C   UNK N   1      30.170  17.268   7.690  0.00  0.00     0.101 A 
HETATM   29  C   UNK N   1      27.903  18.622   4.415  0.00  0.00     0.049 A 
HETATM   30  C   UNK N   1      30.218  17.782   9.022  0.00  0.00     0.181 A 
HETATM   31  C   UNK N   1      30.025  15.729   3.692  0.00  0.00     0.083 A 
HETATM   32  C   UNK N   1      30.873  15.114   4.664  0.00  0.00     0.107 A 
HETATM   33  C   UNK N   1      26.827  20.241   5.135  0.00  0.00     0.059 A 
HETATM   34  C   UNK N   1      30.324  15.694   4.460  0.00  0.00     0.165 A 
HETATM   35  C   UNK N   1      29.669  18.363   8.819  0.00  0.00     0.152 A 
HETATM   36  C   UNK N   1      29.476  16.309   3.488  0.00  0.00     0.137 A 
HETATM   37  C   UNK N   1      27.077  19.694   4.570  0.00  0.00     0.122 A 
HETATM   38  C   UNK N   1      31.172  15.080   5.432  0.00  0.00     0.168 A 
HETATM   39  C   UNK N   1      30.372  16.208   5.793  0.00  0.00     0.265 A 
HETATM   40  C   UNK N   1      30.421  16.721   7.125  0.00  0.00     0.023 A 
HETATM   41  C   UNK N   1      28.975  17.404   4.617  0.00  0.00     0.018 A 
HETATM   42  C   UNK N   1      30.931  16.583   8.250  0.00  0.00     0.049 A 
HETATM   43  C   UNK N   1      30.275  15.182   3.127  0.00  0.00     0.020 A 
HETATM   44  C   UNK N   1      30.797  14.869   3.880  0.00  0.00     0.051 A 
HETATM   45  C   UNK N   1      31.721  14.499   5.636  0.00  0.00     0.031 A 
HETATM   46  C   UNK N   1      29.419  18.910   9.384  0.00  0.00     0.042 A 
HETATM   47  C   UNK N   1      26.778  19.727   3.801  0.00  0.00     0.040 A 
HETATM   48  C   UNK N   1      26.326  21.335   6.263  0.00  0.00     0.143 A 
HETATM   49  C   UNK N   1      27.174  20.720   7.235  0.00  0.00     0.143 A 
HETATM   50  C   UNK N   1      32.020  14.465   6.404  0.00  0.00     0.007 A 
HETATM   51  C   UNK N   1      31.420  16.228   8.811  0.00  0.00     0.202 A 
HETATM   52  H   UNK N   1      27.403  18.936   3.727  0.00  0.00     0.210 HD
HETATM   53  H   UNK N   1      28.619  18.909   7.114  0.00  0.00     0.210 HD
HETATM   54  H   UNK N   1      31.163  17.065  10.030  0.00  0.00     0.210 HD
HETATM   55  H   UNK N   1      31.043  14.334   3.328  0.00  0.00     0.210 HD
HETATM   56  H   UNK N   1      31.065  15.363   5.788  0.00  0.00     0.210 HD
ENDROOT
TORSDOF 5
ENDMDL
MODEL 7
REMARK VINA RESULT:     -15.4      9.643     12.571
REMARK  5 active torsions:
REMARK  status: ('A' for Active; 'I' for Inactive)
REMARK    1  A    between atoms: C_15  and  C_17 
REMARK    2  A    between atoms: C_24  and  C_28 
REMARK    3  A    between atoms: C_30  and  C_35 
REMARK    4  A    between atoms: C_31  and  C_36 
REMARK    5  A    between atoms: C_33  and  C_37 
ROOT
HETATM    1  O   UNK N   1      32.303  16.593   6.689  0.00  0.00    -0.350 OA
HETATM    2  O   UNK N   1      31.303  16.730   5.677  0.00  0.00    -0.355 OA
HETATM    3  O   UNK N   1      32.473  17.072   8.721  0.00  0.00    -0.388 OA
HETATM    4  O   UNK N   1      33.304  16.456   7.700  0.00  0.00    -0.354 OA
HETATM    5  O   UNK N   1      31.561  16.266   4.351  0.00  0.00    -0.354 OA
HETATM    6  O   UNK N   1      28.788  17.931   6.309  0.00  0.00    -0.312 OA
HETATM    7  O   UNK N   1      29.478  16.837   3.303  0.00  0.00    -0.383 OA
HETATM    8  O   UNK N   1      33.313  15.884   5.594  0.00  0.00    -0.389 OA
HETATM    9  O   UNK N   1      30.313  16.295   2.560  0.00  0.00    -0.390 OA
HETATM   10  O   UNK N   1      27.894  18.758   8.013  0.00  0.00    -0.385 OA
HETATM   11  O   UNK N   1      29.299  17.928   7.073  0.00  0.00    -0.392 OA
HETATM   12  O   UNK N   1      30.531  18.121   9.658  0.00  0.00    -0.297 OA
HETATM   13  O   UNK N   1      29.788  17.794   7.320  0.00  0.00    -0.265 OA
HETATM   14  N   UNK N   1      34.819  15.391   6.057  0.00  0.00    -0.414 N 
HETATM   15  C   UNK N   1      31.798  16.948   7.236  0.00  0.00     0.165 A 
HETATM   16  C   UNK N   1      31.046  17.193   7.004  0.00  0.00     0.043 A 
HETATM   17  C   UNK N   1      32.046  17.057   8.015  0.00  0.00     0.081 A 
HETATM   18  C   UNK N   1      30.798  17.085   6.225  0.00  0.00     0.144 A 
HETATM   19  C   UNK N   1      31.541  17.411   8.563  0.00  0.00     0.051 A 
HETATM   20  C   UNK N   1      30.046  17.331   5.993  0.00  0.00     0.111 A 
HETATM   21  C   UNK N   1      30.788  17.657   8.331  0.00  0.00     0.054 A 
HETATM   22  C   UNK N   1      33.056  16.347   6.920  0.00  0.00     0.291 A 
HETATM   23  C   UNK N   1      31.056  16.621   4.898  0.00  0.00     0.263 A 
HETATM   24  C   UNK N   1      30.056  16.758   3.887  0.00  0.00     0.089 A 
HETATM   25  C   UNK N   1      30.541  17.548   7.552  0.00  0.00     0.015 A 
HETATM   26  C   UNK N   1      33.561  15.992   6.373  0.00  0.00     0.195 A 
HETATM   27  C   UNK N   1      34.314  15.746   6.605  0.00  0.00     0.114 A 
HETATM   28  C   UNK N   1      30.303  16.867   4.666  0.00  0.00     0.101 A 
HETATM   29  C   UNK N   1      32.812  16.750   8.041  0.00  0.00     0.049 A 
HETATM   30  C   UNK N   1      30.561  16.403   3.339  0.00  0.00     0.181 A 
HETATM   31  C   UNK N   1      29.532  18.258   8.647  0.00  0.00     0.083 A 
HETATM   32  C   UNK N   1      28.531  18.395   7.636  0.00  0.00     0.107 A 
HETATM   33  C   UNK N   1      34.561  15.855   7.384  0.00  0.00     0.059 A 
HETATM   34  C   UNK N   1      29.283  18.149   7.868  0.00  0.00     0.165 A 
HETATM   35  C   UNK N   1      31.313  16.158   3.571  0.00  0.00     0.152 A 
HETATM   36  C   UNK N   1      30.284  18.012   8.879  0.00  0.00     0.137 A 
HETATM   37  C   UNK N   1      34.056  16.210   7.931  0.00  0.00     0.122 A 
HETATM   38  C   UNK N   1      28.283  18.286   6.856  0.00  0.00     0.168 A 
HETATM   39  C   UNK N   1      29.541  17.685   6.541  0.00  0.00     0.265 A 
HETATM   40  C   UNK N   1      29.798  17.222   5.214  0.00  0.00     0.023 A 
HETATM   41  C   UNK N   1      31.293  17.303   7.784  0.00  0.00     0.018 A 
HETATM   42  C   UNK N   1      29.329  17.105   4.069  0.00  0.00     0.049 A 
HETATM   43  C   UNK N   1      29.027  18.613   9.194  0.00  0.00     0.020 A 
HETATM   44  C   UNK N   1      28.449  18.640   8.419  0.00  0.00     0.051 A 
HETATM   45  C   UNK N   1      27.531  18.532   6.624  0.00  0.00     0.031 A 
HETATM   46  C   UNK N   1      31.818  15.802   3.023  0.00  0.00     0.042 A 
HETATM   47  C   UNK N   1      34.304  16.319   8.711  0.00  0.00     0.040 A 
HETATM   48  C   UNK N   1      35.571  15.146   6.289  0.00  0.00     0.143 A 
HETATM   49  C   UNK N   1      34.571  15.283   5.278  0.00  0.00     0.143 A 
HETATM   50  C   UNK N   1      27.283  18.423   5.845  0.00  0.00     0.007 A 
HETATM   51  C   UNK N   1      28.752  17.184   3.485  0.00  0.00     0.202 A 
HETATM   52  H   UNK N   1      33.373  16.711   8.751  0.00  0.00     0.210 HD
HETATM   53  H   UNK N   1      32.429  16.173   5.321  0.00  0.00     0.210 HD
HETATM   54  H   UNK N   1      29.428  16.584   2.287  0.00  0.00     0.210 HD
HETATM   55  H   UNK N   1      27.954  18.987   8.954  0.00  0.00     0.210 HD
HETATM   56  H   UNK N   1      28.527  18.092   6.508  0.00  0.00     0.210 HD
ENDROOT
TORSDOF 5
ENDMDL
MODEL 8
REMARK VINA RESULT:     -15.1     24.281     27.134
REMARK  5 active torsions:
REMARK  status: ('A' for Active; 'I' for Inactive)
REMARK    1  A    between atoms: C_15  and  C_17 
REMARK    2  A    between atoms: C_24  and  C_28 
REMARK    3  A    between atoms: C_30  and  C_35 
REMARK    4  A    between atoms: C_31  and  C_36 
REMARK    5  A    between atoms: C_33  and  C_37 
ROOT
HETATM    1  O   UNK N   1      26.900  24.890  -5.588  0.00  0.00    -0.350 OA
HETATM    2  O   UNK N   1      27.973  23.952  -5.491  0.00  0.00    -0.355 OA
HETATM    3  O   UNK N   1      25.183  25.106  -6.768  0.00  0.00    -0.388 OA
HETATM    4  O   UNK N   1      25.827  25.829  -5.684  0.00  0.00    -0.354 OA
HETATM    5  O   UNK N   1      29.006  24.146  -4.523  0.00  0.00    -0.354 OA
HETATM    6  O   UNK N   1      28.053  21.688  -7.234  0.00  0.00    -0.312 OA
HETATM    7  O   UNK N   1      30.368  22.224  -4.983  0.00  0.00    -0.383 OA
HETATM    8  O   UNK N   1      27.562  25.774  -4.361  0.00  0.00    -0.389 OA
HETATM    9  O   UNK N   1      30.782  22.958  -4.071  0.00  0.00    -0.390 OA
HETATM   10  O   UNK N   1      26.861  20.928  -8.779  0.00  0.00    -0.385 OA
HETATM   11  O   UNK N   1      27.300  22.175  -7.438  0.00  0.00    -0.392 OA
HETATM   12  O   UNK N   1      24.874  23.372  -8.395  0.00  0.00    -0.297 OA
HETATM   13  O   UNK N   1      26.980  22.627  -7.330  0.00  0.00    -0.265 OA
HETATM   14  N   UNK N   1      26.820  27.155  -3.844  0.00  0.00    -0.414 N 
HETATM   15  C   UNK N   1      26.569  24.449  -6.201  0.00  0.00     0.165 A 
HETATM   16  C   UNK N   1      26.940  23.759  -6.459  0.00  0.00     0.043 A 
HETATM   17  C   UNK N   1      25.867  24.697  -6.555  0.00  0.00     0.081 A 
HETATM   18  C   UNK N   1      27.642  23.510  -6.104  0.00  0.00     0.144 A 
HETATM   19  C   UNK N   1      25.536  24.255  -7.168  0.00  0.00     0.051 A 
HETATM   20  C   UNK N   1      28.013  22.821  -6.362  0.00  0.00     0.111 A 
HETATM   21  C   UNK N   1      25.907  23.565  -7.427  0.00  0.00     0.054 A 
HETATM   22  C   UNK N   1      26.529  25.581  -5.329  0.00  0.00     0.291 A 
HETATM   23  C   UNK N   1      28.675  23.704  -5.136  0.00  0.00     0.263 A 
HETATM   24  C   UNK N   1      29.748  22.766  -5.039  0.00  0.00     0.089 A 
HETATM   25  C   UNK N   1      26.609  23.318  -7.072  0.00  0.00     0.015 A 
HETATM   26  C   UNK N   1      26.860  26.022  -4.716  0.00  0.00     0.195 A 
HETATM   27  C   UNK N   1      26.489  26.712  -4.458  0.00  0.00     0.114 A 
HETATM   28  C   UNK N   1      29.046  23.013  -5.394  0.00  0.00     0.101 A 
HETATM   29  C   UNK N   1      25.663  25.393  -6.161  0.00  0.00     0.049 A 
HETATM   30  C   UNK N   1      30.079  23.207  -4.426  0.00  0.00     0.181 A 
HETATM   31  C   UNK N   1      25.946  22.434  -8.298  0.00  0.00     0.083 A 
HETATM   32  C   UNK N   1      27.020  21.496  -8.201  0.00  0.00     0.107 A 
HETATM   33  C   UNK N   1      25.787  26.961  -4.812  0.00  0.00     0.059 A 
HETATM   34  C   UNK N   1      26.649  22.185  -7.943  0.00  0.00     0.165 A 
HETATM   35  C   UNK N   1      29.708  23.897  -4.168  0.00  0.00     0.152 A 
HETATM   36  C   UNK N   1      25.576  23.124  -8.040  0.00  0.00     0.137 A 
HETATM   37  C   UNK N   1      25.456  26.519  -5.426  0.00  0.00     0.122 A 
HETATM   38  C   UNK N   1      27.722  21.247  -7.847  0.00  0.00     0.168 A 
HETATM   39  C   UNK N   1      27.682  22.379  -6.975  0.00  0.00     0.265 A 
HETATM   40  C   UNK N   1      28.715  22.572  -6.007  0.00  0.00     0.023 A 
HETATM   41  C   UNK N   1      26.238  24.007  -6.814  0.00  0.00     0.018 A 
HETATM   42  C   UNK N   1      29.772  22.111  -5.543  0.00  0.00     0.049 A 
HETATM   43  C   UNK N   1      25.615  21.992  -8.911  0.00  0.00     0.020 A 
HETATM   44  C   UNK N   1      26.393  21.444  -8.736  0.00  0.00     0.051 A 
HETATM   45  C   UNK N   1      28.093  20.557  -8.105  0.00  0.00     0.031 A 
HETATM   46  C   UNK N   1      30.040  24.339  -3.554  0.00  0.00     0.042 A 
HETATM   47  C   UNK N   1      24.753  26.768  -5.781  0.00  0.00     0.040 A 
HETATM   48  C   UNK N   1      26.449  27.844  -3.586  0.00  0.00     0.143 A 
HETATM   49  C   UNK N   1      27.523  26.906  -3.490  0.00  0.00     0.143 A 
HETATM   50  C   UNK N   1      28.795  20.308  -7.750  0.00  0.00     0.007 A 
HETATM   51  C   UNK N   1      30.391  21.570  -5.487  0.00  0.00     0.202 A 
HETATM   52  H   UNK N   1      24.943  25.924  -6.305  0.00  0.00     0.210 HD
HETATM   53  H   UNK N   1      27.998  24.963  -4.665  0.00  0.00     0.210 HD
HETATM   54  H   UNK N   1      31.218  22.147  -4.375  0.00  0.00     0.210 HD
HETATM   55  H   UNK N   1      26.070  21.012  -9.335  0.00  0.00     0.210 HD
HETATM   56  H   UNK N   1      27.951  21.458  -7.498  0.00  0.00     0.210 HD
ENDROOT
TORSDOF 5
ENDMDL
MODEL 9
REMARK VINA RESULT:     -15.0     15.786     18.205
REMARK  5 active torsions:
REMARK  status: ('A' for Active; 'I' for Inactive)
REMARK    1  A    between atoms: C_15  and  C_17 
REMARK    2  A    between atoms: C_24  and  C_28 
REMARK    3  A    between atoms: C_30  and  C_35 
REMARK    4  A    between atoms: C_31  and  C_36 
REMARK    5  A    between atoms: C_33  and  C_37 
ROOT
HETATM    1  O   UNK N   1      23.259  16.848   5.570  0.00  0.00    -0.350 OA
HETATM    2  O   UNK N   1      24.546  17.327   5.176  0.00  0.00    -0.355 OA
HETATM    3  O   UNK N   1      21.268  17.390   5.206  0.00  0.00    -0.388 OA
HETATM    4  O   UNK N   1      21.972  16.369   5.965  0.00  0.00    -0.354 OA
HETATM    5  O   UNK N   1      25.726  16.672   5.646  0.00  0.00    -0.354 OA
HETATM    6  O   UNK N   1      24.760  19.594   3.448  0.00  0.00    -0.312 OA
HETATM    7  O   UNK N   1      27.399  18.024   4.579  0.00  0.00    -0.383 OA
HETATM    8  O   UNK N   1      23.975  15.657   6.459  0.00  0.00    -0.389 OA
HETATM    9  O   UNK N   1      27.836  17.093   5.276  0.00  0.00    -0.390 OA
HETATM   10  O   UNK N   1      23.426  20.895   2.491  0.00  0.00    -0.385 OA
HETATM   11  O   UNK N   1      23.866  19.432   3.593  0.00  0.00    -0.392 OA
HETATM   12  O   UNK N   1      21.005  19.290   3.768  0.00  0.00    -0.297 OA
HETATM   13  O   UNK N   1      23.473  19.115   3.843  0.00  0.00    -0.265 OA
HETATM   14  N   UNK N   1      23.046  14.581   7.299  0.00  0.00    -0.414 N 
HETATM   15  C   UNK N   1      22.901  17.444   5.126  0.00  0.00     0.165 A 
HETATM   16  C   UNK N   1      23.365  17.981   4.707  0.00  0.00     0.043 A 
HETATM   17  C   UNK N   1      22.079  17.502   5.101  0.00  0.00     0.081 A 
HETATM   18  C   UNK N   1      24.188  17.923   4.732  0.00  0.00     0.144 A 
HETATM   19  C   UNK N   1      21.721  18.098   4.657  0.00  0.00     0.051 A 
HETATM   20  C   UNK N   1      24.653  18.460   4.313  0.00  0.00     0.111 A 
HETATM   21  C   UNK N   1      22.185  18.636   4.237  0.00  0.00     0.054 A 
HETATM   22  C   UNK N   1      22.795  16.311   5.990  0.00  0.00     0.291 A 
HETATM   23  C   UNK N   1      25.368  17.268   5.201  0.00  0.00     0.263 A 
HETATM   24  C   UNK N   1      26.656  17.747   4.807  0.00  0.00     0.089 A 
HETATM   25  C   UNK N   1      23.008  18.577   4.263  0.00  0.00     0.015 A 
HETATM   26  C   UNK N   1      23.153  15.715   6.434  0.00  0.00     0.195 A 
HETATM   27  C   UNK N   1      22.687  15.178   6.854  0.00  0.00     0.114 A 
HETATM   28  C   UNK N   1      25.833  17.806   4.782  0.00  0.00     0.101 A 
HETATM   29  C   UNK N   1      21.806  16.886   5.576  0.00  0.00     0.049 A 
HETATM   30  C   UNK N   1      27.014  17.151   5.251  0.00  0.00     0.181 A 
HETATM   31  C   UNK N   1      22.292  19.769   3.374  0.00  0.00     0.083 A 
HETATM   32  C   UNK N   1      23.579  20.248   2.979  0.00  0.00     0.107 A 
HETATM   33  C   UNK N   1      21.865  15.236   6.829  0.00  0.00     0.059 A 
HETATM   34  C   UNK N   1      23.115  19.711   3.398  0.00  0.00     0.165 A 
HETATM   35  C   UNK N   1      26.549  16.614   5.670  0.00  0.00     0.152 A 
HETATM   36  C   UNK N   1      21.827  19.232   3.793  0.00  0.00     0.137 A 
HETATM   37  C   UNK N   1      21.507  15.832   6.385  0.00  0.00     0.122 A 
HETATM   38  C   UNK N   1      24.402  20.190   3.004  0.00  0.00     0.168 A 
HETATM   39  C   UNK N   1      24.295  19.056   3.868  0.00  0.00     0.265 A 
HETATM   40  C   UNK N   1      25.476  18.402   4.337  0.00  0.00     0.023 A 
HETATM   41  C   UNK N   1      22.543  18.040   4.682  0.00  0.00     0.018 A 
HETATM   42  C   UNK N   1      26.718  18.402   4.308  0.00  0.00     0.049 A 
HETATM   43  C   UNK N   1      21.934  20.365   2.929  0.00  0.00     0.020 A 
HETATM   44  C   UNK N   1      22.860  20.577   2.746  0.00  0.00     0.051 A 
HETATM   45  C   UNK N   1      24.866  20.726   2.585  0.00  0.00     0.031 A 
HETATM   46  C   UNK N   1      26.907  16.018   6.115  0.00  0.00     0.042 A 
HETATM   47  C   UNK N   1      20.684  15.891   6.359  0.00  0.00     0.040 A 
HETATM   48  C   UNK N   1      22.581  14.044   7.718  0.00  0.00     0.143 A 
HETATM   49  C   UNK N   1      23.868  14.523   7.323  0.00  0.00     0.143 A 
HETATM   50  C   UNK N   1      25.689  20.668   2.609  0.00  0.00     0.007 A 
HETATM   51  C   UNK N   1      27.461  18.678   4.080  0.00  0.00     0.202 A 
HETATM   52  H   UNK N   1      20.948  16.665   5.765  0.00  0.00     0.210 HD
HETATM   53  H   UNK N   1      24.521  16.288   5.966  0.00  0.00     0.210 HD
HETATM   54  H   UNK N   1      28.383  17.725   4.783  0.00  0.00     0.210 HD
HETATM   55  H   UNK N   1      22.511  21.160   2.311  0.00  0.00     0.210 HD
HETATM   56  H   UNK N   1      24.655  19.874   3.238  0.00  0.00     0.210 HD
ENDROOT
TORSDOF 5
ENDMDL
