MODEL 1
REMARK VINA RESULT:      -7.8      0.000      0.000
REMARK  10 active torsions:
REMARK  status: ('A' for Active; 'I' for Inactive)
REMARK    1  A    between atoms: S_1  and  N_8 
REMARK    2  A    between atoms: S_1  and  C_29 
REMARK    3  A    between atoms: O_3  and  C_22 
REMARK       I    between atoms: N_7  and  C_20 
REMARK    4  A    between atoms: C_19  and  N_8 
REMARK    5  A    between atoms: N_10  and  C_34 
REMARK       I    between atoms: N_12  and  C_36 
REMARK       I    between atoms: N_13  and  C_36 
REMARK    6  A    between atoms: C_16  and  C_22 
REMARK    7  A    between atoms: C_19  and  C_20 
REMARK    8  A    between atoms: C_19  and  C_23 
REMARK    9  A    between atoms: C_23  and  C_30 
REMARK   10  A    between atoms: C_30  and  C_34 
ROOT
HETATM    1  C   UNK N   1      20.309  15.598   4.861  0.00  0.00     0.185 C 
ENDROOT
BRANCH   1   2
HETATM    2  N   UNK N   1      19.161  15.317   4.017  0.00  0.00    -0.301 N 
HETATM    3  H   UNK N   1      18.552  16.015   3.588  0.00  0.00     0.173 HD
BRANCH   2   4
HETATM    4  S   UNK N   1      18.994  13.560   3.858  0.00  0.00     0.261 S 
HETATM    5  O   UNK N   1      18.624  13.337   2.385  0.00  0.00    -0.200 OA
HETATM    6  O   UNK N   1      17.691  13.156   4.570  0.00  0.00    -0.200 OA
BRANCH   4   7
HETATM    7  C   UNK N   1      20.389  12.583   4.420  0.00  0.00     0.106 A 
HETATM    8  C   UNK N   1      21.590  12.531   3.691  0.00  0.00     0.058 A 
HETATM    9  N   UNK N   1      21.736  13.275   2.489  0.00  0.00    -0.388 N 
HETATM   10  C   UNK N   1      22.655  11.737   4.159  0.00  0.00    -0.030 A 
HETATM   11  C   UNK N   1      22.936  13.208   1.685  0.00  0.00     0.124 C 
HETATM   12  H   UNK N   1      20.997  13.854   2.195  0.00  0.00     0.159 HD
HETATM   13  C   UNK N   1      24.156  12.915   2.551  0.00  0.00     0.003 C 
HETATM   14  C   UNK N   1      23.932  11.653   3.379  0.00  0.00     0.046 C 
HETATM   15  C   UNK N   1      25.365  12.728   1.662  0.00  0.00     0.012 C 
HETATM   16  C   UNK N   1      22.518  11.010   5.344  0.00  0.00     0.009 A 
HETATM   17  C   UNK N   1      21.327  11.073   6.071  0.00  0.00     0.002 A 
HETATM   18  C   UNK N   1      20.266  11.854   5.608  0.00  0.00     0.028 A 
ENDBRANCH   4   7
ENDBRANCH   2   4
ENDBRANCH   1   2
BRANCH   1  19
HETATM   19  C   UNK N   1      19.859  15.872   6.292  0.00  0.00     0.244 C 
HETATM   20  O   UNK N   1      18.688  16.184   6.428  0.00  0.00    -0.271 OA
HETATM   21  N   UNK N   1      20.674  15.733   7.402  0.00  0.00    -0.336 N 
HETATM   22  C   UNK N   1      20.225  15.950   8.786  0.00  0.00     0.185 C 
HETATM   23  C   UNK N   1      22.028  15.245   7.280  0.00  0.00     0.127 C 
HETATM   24  C   UNK N   1      20.275  14.612   9.528  0.00  0.00     0.040 C 
HETATM   25  C   UNK N   1      21.683  14.022   9.437  0.00  0.00    -0.015 C 
HETATM   26  C   UNK N   1      22.134  13.894   7.983  0.00  0.00     0.024 C 
HETATM   27  C   UNK N   1      21.703  12.657  10.092  0.00  0.00     0.010 C 
BRANCH  22  28
HETATM   28  C   UNK N   1      18.919  16.680   8.998  0.00  0.00     0.163 C 
HETATM   29  O   UNK N   1      18.912  17.899   9.067  0.00  0.00    -0.648 OA
BRANCH  28  30
HETATM   30  O   UNK N   1      17.766  15.999   9.150  0.00  0.00    -0.775 OA
HETATM   31  H   UNK N   1      17.264  15.414   9.683  0.00  0.00     0.167 HD
ENDBRANCH  28  30
ENDBRANCH  22  28
ENDBRANCH   1  19
BRANCH   1  32
HETATM   32  C   UNK N   1      21.244  16.550   4.134  0.00  0.00     0.037 C 
BRANCH  32  33
HETATM   33  C   UNK N   1      20.582  17.072   2.868  0.00  0.00     0.023 C 
BRANCH  33  34
HETATM   34  C   UNK N   1      20.176  18.533   3.044  0.00  0.00     0.138 C 
BRANCH  34  35
HETATM   35  N   UNK N   1      20.121  19.205   1.764  0.00  0.00    -0.227 N 
HETATM   36  C   UNK N   1      20.577  20.398   1.583  0.00  0.00     0.665 C 
HETATM   37  N   UNK N   1      20.515  20.979   0.299  0.00  0.00    -0.235 N 
HETATM   38  N   UNK N   1      21.147  21.130   2.653  0.00  0.00    -0.235 N 
HETATM   39  H   UNK N   1      20.597  21.951   0.173  0.00  0.00     0.174 HD
HETATM   40  H   UNK N   1      20.388  20.399  -0.487  0.00  0.00     0.174 HD
HETATM   41  H   UNK N   1      21.630  20.695   3.392  0.00  0.00     0.174 HD
HETATM   42  H   UNK N   1      21.057  22.110   2.657  0.00  0.00     0.174 HD
ATOM     43  HN  UNK N   1      19.704  18.716   0.972  1.00  0.00     0.177 HD
ENDBRANCH  34  35
ENDBRANCH  33  34
ENDBRANCH  32  33
ENDBRANCH   1  32
TORSDOF 10
ENDMDL
MODEL 2
REMARK VINA RESULT:      -7.6      2.425      4.699
REMARK  10 active torsions:
REMARK  status: ('A' for Active; 'I' for Inactive)
REMARK    1  A    between atoms: S_1  and  N_8 
REMARK    2  A    between atoms: S_1  and  C_29 
REMARK    3  A    between atoms: O_3  and  C_22 
REMARK       I    between atoms: N_7  and  C_20 
REMARK    4  A    between atoms: C_19  and  N_8 
REMARK    5  A    between atoms: N_10  and  C_34 
REMARK       I    between atoms: N_12  and  C_36 
REMARK       I    between atoms: N_13  and  C_36 
REMARK    6  A    between atoms: C_16  and  C_22 
REMARK    7  A    between atoms: C_19  and  C_20 
REMARK    8  A    between atoms: C_19  and  C_23 
REMARK    9  A    between atoms: C_23  and  C_30 
REMARK   10  A    between atoms: C_30  and  C_34 
ROOT
HETATM    1  C   UNK N   1      20.828  15.470   2.690  0.00  0.00     0.185 C 
ENDROOT
BRANCH   1   2
HETATM    2  N   UNK N   1      19.540  15.549   3.355  0.00  0.00    -0.301 N 
HETATM    3  H   UNK N   1      18.776  16.175   3.101  0.00  0.00     0.173 HD
BRANCH   2   4
HETATM    4  S   UNK N   1      19.519  14.376   4.684  0.00  0.00     0.261 S 
HETATM    5  O   UNK N   1      20.392  13.213   4.189  0.00  0.00    -0.200 OA
HETATM    6  O   UNK N   1      18.122  13.729   4.702  0.00  0.00    -0.200 OA
BRANCH   4   7
HETATM    7  C   UNK N   1      19.981  15.006   6.297  0.00  0.00     0.106 A 
HETATM    8  C   UNK N   1      20.654  14.202   7.234  0.00  0.00     0.058 A 
HETATM    9  N   UNK N   1      21.006  12.863   6.914  0.00  0.00    -0.388 N 
HETATM   10  C   UNK N   1      20.983  14.731   8.497  0.00  0.00    -0.030 A 
HETATM   11  C   UNK N   1      21.653  11.989   7.867  0.00  0.00     0.124 C 
HETATM   12  H   UNK N   1      20.803  12.520   6.013  0.00  0.00     0.159 HD
HETATM   13  C   UNK N   1      22.510  12.787   8.842  0.00  0.00     0.003 C 
HETATM   14  C   UNK N   1      21.679  13.878   9.514  0.00  0.00     0.046 C 
HETATM   15  C   UNK N   1      23.065  11.855   9.896  0.00  0.00     0.012 C 
HETATM   16  C   UNK N   1      20.646  16.049   8.813  0.00  0.00     0.009 A 
HETATM   17  C   UNK N   1      19.987  16.848   7.876  0.00  0.00     0.002 A 
HETATM   18  C   UNK N   1      19.653  16.326   6.625  0.00  0.00     0.028 A 
ENDBRANCH   4   7
ENDBRANCH   2   4
ENDBRANCH   1   2
BRANCH   1  19
HETATM   19  C   UNK N   1      21.873  16.264   3.464  0.00  0.00     0.244 C 
HETATM   20  O   UNK N   1      21.503  17.340   3.903  0.00  0.00    -0.271 OA
HETATM   21  N   UNK N   1      23.155  15.811   3.729  0.00  0.00    -0.336 N 
HETATM   22  C   UNK N   1      24.146  16.557   4.518  0.00  0.00     0.185 C 
HETATM   23  C   UNK N   1      23.578  14.489   3.328  0.00  0.00     0.127 C 
HETATM   24  C   UNK N   1      24.425  15.778   5.807  0.00  0.00     0.040 C 
HETATM   25  C   UNK N   1      24.873  14.357   5.466  0.00  0.00    -0.015 C 
HETATM   26  C   UNK N   1      23.848  13.654   4.578  0.00  0.00     0.024 C 
HETATM   27  C   UNK N   1      25.057  13.565   6.744  0.00  0.00     0.010 C 
BRANCH  22  28
HETATM   28  C   UNK N   1      23.886  18.023   4.773  0.00  0.00     0.163 C 
HETATM   29  O   UNK N   1      24.361  18.861   4.023  0.00  0.00    -0.648 OA
BRANCH  28  30
HETATM   30  O   UNK N   1      23.168  18.420   5.843  0.00  0.00    -0.775 OA
HETATM   31  H   UNK N   1      22.904  19.132   6.392  0.00  0.00     0.167 HD
ENDBRANCH  28  30
ENDBRANCH  22  28
ENDBRANCH   1  19
BRANCH   1  32
HETATM   32  C   UNK N   1      20.633  15.673   1.196  0.00  0.00     0.037 C 
BRANCH  32  33
HETATM   33  C   UNK N   1      19.600  16.760   0.944  0.00  0.00     0.023 C 
BRANCH  33  34
HETATM   34  C   UNK N   1      20.285  18.057   0.520  0.00  0.00     0.138 C 
BRANCH  34  35
HETATM   35  N   UNK N   1      20.471  18.932   1.657  0.00  0.00    -0.227 N 
HETATM   36  C   UNK N   1      20.593  20.211   1.539  0.00  0.00     0.665 C 
HETATM   37  N   UNK N   1      20.743  21.004   2.697  0.00  0.00    -0.235 N 
HETATM   38  N   UNK N   1      20.573  20.831   0.267  0.00  0.00    -0.235 N 
HETATM   39  H   UNK N   1      21.101  21.919   2.647  0.00  0.00     0.174 HD
HETATM   40  H   UNK N   1      20.484  20.635   3.571  0.00  0.00     0.174 HD
HETATM   41  H   UNK N   1      20.048  20.474  -0.485  0.00  0.00     0.174 HD
HETATM   42  H   UNK N   1      21.102  21.649   0.130  0.00  0.00     0.174 HD
ATOM     43  HN  UNK N   1      20.507  18.521   2.590  1.00  0.00     0.177 HD
ENDBRANCH  34  35
ENDBRANCH  33  34
ENDBRANCH  32  33
ENDBRANCH   1  32
TORSDOF 10
ENDMDL
MODEL 3
REMARK VINA RESULT:      -7.6     11.404     14.055
REMARK  10 active torsions:
REMARK  status: ('A' for Active; 'I' for Inactive)
REMARK    1  A    between atoms: S_1  and  N_8 
REMARK    2  A    between atoms: S_1  and  C_29 
REMARK    3  A    between atoms: O_3  and  C_22 
REMARK       I    between atoms: N_7  and  C_20 
REMARK    4  A    between atoms: C_19  and  N_8 
REMARK    5  A    between atoms: N_10  and  C_34 
REMARK       I    between atoms: N_12  and  C_36 
REMARK       I    between atoms: N_13  and  C_36 
REMARK    6  A    between atoms: C_16  and  C_22 
REMARK    7  A    between atoms: C_19  and  C_20 
REMARK    8  A    between atoms: C_19  and  C_23 
REMARK    9  A    between atoms: C_23  and  C_30 
REMARK   10  A    between atoms: C_30  and  C_34 
ROOT
HETATM    1  C   UNK N   1      33.437  16.125   8.732  0.00  0.00     0.185 C 
ENDROOT
BRANCH   1   2
HETATM    2  N   UNK N   1      32.125  15.712   9.195  0.00  0.00    -0.301 N 
HETATM    3  H   UNK N   1      31.930  14.909   9.794  0.00  0.00     0.173 HD
BRANCH   2   4
HETATM    4  S   UNK N   1      30.918  16.836   8.545  0.00  0.00     0.261 S 
HETATM    5  O   UNK N   1      31.614  18.204   8.559  0.00  0.00    -0.200 OA
HETATM    6  O   UNK N   1      29.839  17.025   9.627  0.00  0.00    -0.200 OA
BRANCH   4   7
HETATM    7  C   UNK N   1      30.202  16.393   6.962  0.00  0.00     0.106 A 
HETATM    8  C   UNK N   1      29.316  17.253   6.291  0.00  0.00     0.058 A 
HETATM    9  N   UNK N   1      28.980  18.517   6.846  0.00  0.00    -0.388 N 
HETATM   10  C   UNK N   1      28.763  16.859   5.058  0.00  0.00    -0.030 A 
HETATM   11  C   UNK N   1      28.034  19.408   6.211  0.00  0.00     0.124 C 
HETATM   12  H   UNK N   1      29.404  18.795   7.690  0.00  0.00     0.159 HD
HETATM   13  C   UNK N   1      28.040  19.220   4.699  0.00  0.00     0.003 C 
HETATM   14  C   UNK N   1      27.798  17.756   4.342  0.00  0.00     0.046 C 
HETATM   15  C   UNK N   1      26.953  20.076   4.086  0.00  0.00     0.012 C 
HETATM   16  C   UNK N   1      29.097  15.621   4.504  0.00  0.00     0.009 A 
HETATM   17  C   UNK N   1      29.986  14.772   5.169  0.00  0.00     0.002 A 
HETATM   18  C   UNK N   1      30.532  15.157   6.395  0.00  0.00     0.028 A 
ENDBRANCH   4   7
ENDBRANCH   2   4
ENDBRANCH   1   2
BRANCH   1  19
HETATM   19  C   UNK N   1      33.835  15.330   7.493  0.00  0.00     0.244 C 
HETATM   20  O   UNK N   1      33.837  14.118   7.620  0.00  0.00    -0.271 OA
HETATM   21  N   UNK N   1      34.128  15.900   6.266  0.00  0.00    -0.336 N 
HETATM   22  C   UNK N   1      34.464  15.129   5.059  0.00  0.00     0.185 C 
HETATM   23  C   UNK N   1      34.013  17.325   6.055  0.00  0.00     0.127 C 
HETATM   24  C   UNK N   1      33.349  15.331   4.029  0.00  0.00     0.040 C 
HETATM   25  C   UNK N   1      33.158  16.823   3.757  0.00  0.00    -0.015 C 
HETATM   26  C   UNK N   1      32.893  17.589   5.052  0.00  0.00     0.024 C 
HETATM   27  C   UNK N   1      31.992  17.019   2.810  0.00  0.00     0.010 C 
BRANCH  22  28
HETATM   28  C   UNK N   1      34.838  13.676   5.231  0.00  0.00     0.163 C 
HETATM   29  O   UNK N   1      36.007  13.367   5.395  0.00  0.00    -0.648 OA
BRANCH  28  30
HETATM   30  O   UNK N   1      33.898  12.711   5.167  0.00  0.00    -0.775 OA
HETATM   31  H   UNK N   1      33.068  12.401   5.472  0.00  0.00     0.167 HD
ENDBRANCH  28  30
ENDBRANCH  22  28
ENDBRANCH   1  19
BRANCH   1  32
HETATM   32  C   UNK N   1      34.373  16.247   9.923  0.00  0.00     0.037 C 
BRANCH  32  33
HETATM   33  C   UNK N   1      34.166  15.079  10.875  0.00  0.00     0.023 C 
BRANCH  33  34
HETATM   34  C   UNK N   1      35.490  14.365  11.136  0.00  0.00     0.138 C 
BRANCH  34  35
HETATM   35  N   UNK N   1      36.203  14.992  12.227  0.00  0.00    -0.227 N 
HETATM   36  C   UNK N   1      36.224  14.501  13.419  0.00  0.00     0.665 C 
HETATM   37  N   UNK N   1      36.966  15.154  14.427  0.00  0.00    -0.235 N 
HETATM   38  N   UNK N   1      35.520  13.313  13.731  0.00  0.00    -0.235 N 
HETATM   39  H   UNK N   1      36.798  14.978  15.380  0.00  0.00     0.174 HD
HETATM   40  H   UNK N   1      37.665  15.797  14.170  0.00  0.00     0.174 HD
HETATM   41  H   UNK N   1      35.385  12.593  13.074  0.00  0.00     0.174 HD
HETATM   42  H   UNK N   1      35.153  13.204  14.638  0.00  0.00     0.174 HD
ATOM     43  HN  UNK N   1      36.710  15.858  12.046  1.00  0.00     0.177 HD
ENDBRANCH  34  35
ENDBRANCH  33  34
ENDBRANCH  32  33
ENDBRANCH   1  32
TORSDOF 10
ENDMDL
MODEL 4
REMARK VINA RESULT:      -7.5     15.121     16.611
REMARK  10 active torsions:
REMARK  status: ('A' for Active; 'I' for Inactive)
REMARK    1  A    between atoms: S_1  and  N_8 
REMARK    2  A    between atoms: S_1  and  C_29 
REMARK    3  A    between atoms: O_3  and  C_22 
REMARK       I    between atoms: N_7  and  C_20 
REMARK    4  A    between atoms: C_19  and  N_8 
REMARK    5  A    between atoms: N_10  and  C_34 
REMARK       I    between atoms: N_12  and  C_36 
REMARK       I    between atoms: N_13  and  C_36 
REMARK    6  A    between atoms: C_16  and  C_22 
REMARK    7  A    between atoms: C_19  and  C_20 
REMARK    8  A    between atoms: C_19  and  C_23 
REMARK    9  A    between atoms: C_23  and  C_30 
REMARK   10  A    between atoms: C_30  and  C_34 
ROOT
HETATM    1  C   UNK N   1      27.241  25.628  -4.135  0.00  0.00     0.185 C 
ENDROOT
BRANCH   1   2
HETATM    2  N   UNK N   1      26.194  24.798  -4.701  0.00  0.00    -0.301 N 
HETATM    3  H   UNK N   1      25.473  24.306  -4.173  0.00  0.00     0.173 HD
BRANCH   2   4
HETATM    4  S   UNK N   1      26.379  24.780  -6.464  0.00  0.00     0.261 S 
HETATM    5  O   UNK N   1      27.632  25.626  -6.732  0.00  0.00    -0.200 OA
HETATM    6  O   UNK N   1      25.271  25.674  -7.050  0.00  0.00    -0.200 OA
BRANCH   4   7
HETATM    7  C   UNK N   1      26.407  23.162  -7.236  0.00  0.00     0.106 A 
HETATM    8  C   UNK N   1      27.573  22.378  -7.255  0.00  0.00     0.058 A 
HETATM    9  N   UNK N   1      28.764  22.843  -6.637  0.00  0.00    -0.388 N 
HETATM   10  C   UNK N   1      27.556  21.120  -7.887  0.00  0.00    -0.030 A 
HETATM   11  C   UNK N   1      29.997  22.089  -6.679  0.00  0.00     0.124 C 
HETATM   12  H   UNK N   1      28.750  23.708  -6.166  0.00  0.00     0.159 HD
HETATM   13  C   UNK N   1      29.717  20.593  -6.757  0.00  0.00     0.003 C 
HETATM   14  C   UNK N   1      28.798  20.283  -7.936  0.00  0.00     0.046 C 
HETATM   15  C   UNK N   1      31.024  19.849  -6.926  0.00  0.00     0.012 C 
HETATM   16  C   UNK N   1      26.384  20.654  -8.489  0.00  0.00     0.009 A 
HETATM   17  C   UNK N   1      25.224  21.432  -8.459  0.00  0.00     0.002 A 
HETATM   18  C   UNK N   1      25.238  22.683  -7.838  0.00  0.00     0.028 A 
ENDBRANCH   4   7
ENDBRANCH   2   4
ENDBRANCH   1   2
BRANCH   1  19
HETATM   19  C   UNK N   1      28.419  24.766  -3.694  0.00  0.00     0.244 C 
HETATM   20  O   UNK N   1      28.158  23.603  -3.440  0.00  0.00    -0.271 OA
HETATM   21  N   UNK N   1      29.727  25.214  -3.626  0.00  0.00    -0.336 N 
HETATM   22  C   UNK N   1      30.870  24.368  -3.247  0.00  0.00     0.185 C 
HETATM   23  C   UNK N   1      30.083  26.552  -4.040  0.00  0.00     0.127 C 
HETATM   24  C   UNK N   1      31.787  24.220  -4.464  0.00  0.00     0.040 C 
HETATM   25  C   UNK N   1      32.202  25.602  -4.971  0.00  0.00    -0.015 C 
HETATM   26  C   UNK N   1      30.981  26.468  -5.271  0.00  0.00     0.024 C 
HETATM   27  C   UNK N   1      33.033  25.450  -6.228  0.00  0.00     0.010 C 
BRANCH  22  28
HETATM   28  C   UNK N   1      30.577  23.046  -2.579  0.00  0.00     0.163 C 
HETATM   29  O   UNK N   1      30.474  22.992  -1.363  0.00  0.00    -0.648 OA
BRANCH  28  30
HETATM   30  O   UNK N   1      30.467  21.916  -3.306  0.00  0.00    -0.775 OA
HETATM   31  H   UNK N   1      30.882  21.319  -3.897  0.00  0.00     0.167 HD
ENDBRANCH  28  30
ENDBRANCH  22  28
ENDBRANCH   1  19
BRANCH   1  32
HETATM   32  C   UNK N   1      26.619  26.650  -3.198  0.00  0.00     0.037 C 
BRANCH  32  33
HETATM   33  C   UNK N   1      25.601  27.496  -3.945  0.00  0.00     0.023 C 
BRANCH  33  34
HETATM   34  C   UNK N   1      26.273  28.727  -4.550  0.00  0.00     0.138 C 
BRANCH  34  35
HETATM   35  N   UNK N   1      26.774  28.436  -5.875  0.00  0.00    -0.227 N 
HETATM   36  C   UNK N   1      27.896  28.897  -6.313  0.00  0.00     0.665 C 
HETATM   37  N   UNK N   1      28.334  28.546  -7.608  0.00  0.00    -0.235 N 
HETATM   38  N   UNK N   1      28.699  29.745  -5.511  0.00  0.00    -0.235 N 
HETATM   39  H   UNK N   1      29.023  29.072  -8.074  0.00  0.00     0.174 HD
HETATM   40  H   UNK N   1      27.943  27.761  -8.053  0.00  0.00     0.174 HD
HETATM   41  H   UNK N   1      28.726  29.671  -4.530  0.00  0.00     0.174 HD
HETATM   42  H   UNK N   1      29.248  30.432  -5.952  0.00  0.00     0.174 HD
ATOM     43  HN  UNK N   1      26.218  27.841  -6.489  1.00  0.00     0.177 HD
ENDBRANCH  34  35
ENDBRANCH  33  34
ENDBRANCH  32  33
ENDBRANCH   1  32
TORSDOF 10
ENDMDL
MODEL 5
REMARK VINA RESULT:      -7.5     11.792     14.041
REMARK  10 active torsions:
REMARK  status: ('A' for Active; 'I' for Inactive)
REMARK    1  A    between atoms: S_1  and  N_8 
REMARK    2  A    between atoms: S_1  and  C_29 
REMARK    3  A    between atoms: O_3  and  C_22 
REMARK       I    between atoms: N_7  and  C_20 
REMARK    4  A    between atoms: C_19  and  N_8 
REMARK    5  A    between atoms: N_10  and  C_34 
REMARK       I    between atoms: N_12  and  C_36 
REMARK       I    between atoms: N_13  and  C_36 
REMARK    6  A    between atoms: C_16  and  C_22 
REMARK    7  A    between atoms: C_19  and  C_20 
REMARK    8  A    between atoms: C_19  and  C_23 
REMARK    9  A    between atoms: C_23  and  C_30 
REMARK   10  A    between atoms: C_30  and  C_34 
ROOT
HETATM    1  C   UNK N   1      34.911  13.544   6.682  0.00  0.00     0.185 C 
ENDROOT
BRANCH   1   2
HETATM    2  N   UNK N   1      35.210  13.673   5.267  0.00  0.00    -0.301 N 
HETATM    3  H   UNK N   1      36.136  13.821   4.865  0.00  0.00     0.173 HD
BRANCH   2   4
HETATM    4  S   UNK N   1      33.697  13.527   4.355  0.00  0.00     0.261 S 
HETATM    5  O   UNK N   1      32.874  12.489   5.130  0.00  0.00    -0.200 OA
HETATM    6  O   UNK N   1      34.016  12.764   3.057  0.00  0.00    -0.200 OA
BRANCH   4   7
HETATM    7  C   UNK N   1      32.825  15.060   4.028  0.00  0.00     0.106 A 
HETATM    8  C   UNK N   1      31.530  15.065   3.482  0.00  0.00     0.058 A 
HETATM    9  N   UNK N   1      30.865  13.844   3.192  0.00  0.00    -0.388 N 
HETATM   10  C   UNK N   1      30.888  16.292   3.224  0.00  0.00    -0.030 A 
HETATM   11  C   UNK N   1      29.554  13.808   2.583  0.00  0.00     0.124 C 
HETATM   12  H   UNK N   1      31.312  12.994   3.412  0.00  0.00     0.159 HD
HETATM   13  C   UNK N   1      28.744  15.042   2.962  0.00  0.00     0.003 C 
HETATM   14  C   UNK N   1      29.517  16.313   2.620  0.00  0.00     0.046 C 
HETATM   15  C   UNK N   1      27.433  15.029   2.207  0.00  0.00     0.012 C 
HETATM   16  C   UNK N   1      31.535  17.495   3.516  0.00  0.00     0.009 A 
HETATM   17  C   UNK N   1      32.818  17.486   4.069  0.00  0.00     0.002 A 
HETATM   18  C   UNK N   1      33.461  16.272   4.320  0.00  0.00     0.028 A 
ENDBRANCH   4   7
ENDBRANCH   2   4
ENDBRANCH   1   2
BRANCH   1  19
HETATM   19  C   UNK N   1      34.722  14.921   7.310  0.00  0.00     0.244 C 
HETATM   20  O   UNK N   1      35.662  15.689   7.193  0.00  0.00    -0.271 OA
HETATM   21  N   UNK N   1      33.558  15.338   7.931  0.00  0.00    -0.336 N 
HETATM   22  C   UNK N   1      33.361  16.683   8.493  0.00  0.00     0.185 C 
HETATM   23  C   UNK N   1      32.387  14.493   7.973  0.00  0.00     0.127 C 
HETATM   24  C   UNK N   1      32.278  17.395   7.677  0.00  0.00     0.040 C 
HETATM   25  C   UNK N   1      31.001  16.554   7.666  0.00  0.00    -0.015 C 
HETATM   26  C   UNK N   1      31.276  15.142   7.152  0.00  0.00     0.024 C 
HETATM   27  C   UNK N   1      29.966  17.217   6.782  0.00  0.00     0.010 C 
BRANCH  22  28
HETATM   28  C   UNK N   1      34.583  17.544   8.708  0.00  0.00     0.163 C 
HETATM   29  O   UNK N   1      35.230  17.431   9.736  0.00  0.00    -0.648 OA
BRANCH  28  30
HETATM   30  O   UNK N   1      34.945  18.467   7.793  0.00  0.00    -0.775 OA
HETATM   31  H   UNK N   1      35.638  18.836   7.282  0.00  0.00     0.167 HD
ENDBRANCH  28  30
ENDBRANCH  22  28
ENDBRANCH   1  19
BRANCH   1  32
HETATM   32  C   UNK N   1      35.845  12.518   7.301  0.00  0.00     0.037 C 
BRANCH  32  33
HETATM   33  C   UNK N   1      35.715  12.535   8.815  0.00  0.00     0.023 C 
BRANCH  33  34
HETATM   34  C   UNK N   1      36.883  13.292   9.442  0.00  0.00     0.138 C 
BRANCH  34  35
HETATM   35  N   UNK N   1      36.410  14.438  10.187  0.00  0.00    -0.227 N 
HETATM   36  C   UNK N   1      36.554  14.548  11.463  0.00  0.00     0.665 C 
HETATM   37  N   UNK N   1      36.092  15.709  12.118  0.00  0.00    -0.235 N 
HETATM   38  N   UNK N   1      37.176  13.523  12.218  0.00  0.00    -0.235 N 
HETATM   39  H   UNK N   1      35.937  15.721  13.090  0.00  0.00     0.174 HD
HETATM   40  H   UNK N   1      35.921  16.524  11.592  0.00  0.00     0.174 HD
HETATM   41  H   UNK N   1      37.889  12.955  11.847  0.00  0.00     0.174 HD
HETATM   42  H   UNK N   1      36.884  13.375  13.146  0.00  0.00     0.174 HD
ATOM     43  HN  UNK N   1      35.942  15.191   9.681  1.00  0.00     0.177 HD
ENDBRANCH  34  35
ENDBRANCH  33  34
ENDBRANCH  32  33
ENDBRANCH   1  32
TORSDOF 10
ENDMDL
MODEL 6
REMARK VINA RESULT:      -7.4      5.179      7.219
REMARK  10 active torsions:
REMARK  status: ('A' for Active; 'I' for Inactive)
REMARK    1  A    between atoms: S_1  and  N_8 
REMARK    2  A    between atoms: S_1  and  C_29 
REMARK    3  A    between atoms: O_3  and  C_22 
REMARK       I    between atoms: N_7  and  C_20 
REMARK    4  A    between atoms: C_19  and  N_8 
REMARK    5  A    between atoms: N_10  and  C_34 
REMARK       I    between atoms: N_12  and  C_36 
REMARK       I    between atoms: N_13  and  C_36 
REMARK    6  A    between atoms: C_16  and  C_22 
REMARK    7  A    between atoms: C_19  and  C_20 
REMARK    8  A    between atoms: C_19  and  C_23 
REMARK    9  A    between atoms: C_23  and  C_30 
REMARK   10  A    between atoms: C_30  and  C_34 
ROOT
HETATM    1  C   UNK N   1      25.411  19.355   4.055  0.00  0.00     0.185 C 
ENDROOT
BRANCH   1   2
HETATM    2  N   UNK N   1      26.114  18.396   3.222  0.00  0.00    -0.301 N 
HETATM    3  H   UNK N   1      26.417  18.552   2.260  0.00  0.00     0.173 HD
BRANCH   2   4
HETATM    4  S   UNK N   1      26.360  16.910   4.156  0.00  0.00     0.261 S 
HETATM    5  O   UNK N   1      25.877  17.257   5.572  0.00  0.00    -0.200 OA
HETATM    6  O   UNK N   1      27.875  16.752   4.375  0.00  0.00    -0.200 OA
BRANCH   4   7
HETATM    7  C   UNK N   1      25.626  15.423   3.475  0.00  0.00     0.106 A 
HETATM    8  C   UNK N   1      25.303  14.324   4.290  0.00  0.00     0.058 A 
HETATM    9  N   UNK N   1      25.532  14.375   5.692  0.00  0.00    -0.388 N 
HETATM   10  C   UNK N   1      24.745  13.168   3.712  0.00  0.00    -0.030 A 
HETATM   11  C   UNK N   1      25.260  13.248   6.556  0.00  0.00     0.124 C 
HETATM   12  H   UNK N   1      25.887  15.204   6.087  0.00  0.00     0.159 HD
HETATM   13  C   UNK N   1      24.120  12.401   6.003  0.00  0.00     0.003 C 
HETATM   14  C   UNK N   1      24.417  11.981   4.566  0.00  0.00     0.046 C 
HETATM   15  C   UNK N   1      23.952  11.168   6.864  0.00  0.00     0.012 C 
HETATM   16  C   UNK N   1      24.510  13.117   2.336  0.00  0.00     0.009 A 
HETATM   17  C   UNK N   1      24.823  14.215   1.530  0.00  0.00     0.002 A 
HETATM   18  C   UNK N   1      25.383  15.361   2.099  0.00  0.00     0.028 A 
ENDBRANCH   4   7
ENDBRANCH   2   4
ENDBRANCH   1   2
BRANCH   1  19
HETATM   19  C   UNK N   1      24.062  19.704   3.435  0.00  0.00     0.244 C 
HETATM   20  O   UNK N   1      24.095  20.495   2.508  0.00  0.00    -0.271 OA
HETATM   21  N   UNK N   1      22.859  19.144   3.828  0.00  0.00    -0.336 N 
HETATM   22  C   UNK N   1      21.565  19.445   3.196  0.00  0.00     0.185 C 
HETATM   23  C   UNK N   1      22.808  18.113   4.839  0.00  0.00     0.127 C 
HETATM   24  C   UNK N   1      21.057  18.177   2.504  0.00  0.00     0.040 C 
HETATM   25  C   UNK N   1      20.983  17.030   3.513  0.00  0.00    -0.015 C 
HETATM   26  C   UNK N   1      22.329  16.812   4.199  0.00  0.00     0.024 C 
HETATM   27  C   UNK N   1      20.569  15.758   2.803  0.00  0.00     0.010 C 
BRANCH  22  28
HETATM   28  C   UNK N   1      21.480  20.663   2.308  0.00  0.00     0.163 C 
HETATM   29  O   UNK N   1      21.228  20.530   1.121  0.00  0.00    -0.648 OA
BRANCH  28  30
HETATM   30  O   UNK N   1      21.719  21.894   2.802  0.00  0.00    -0.775 OA
HETATM   31  H   UNK N   1      22.360  22.514   3.092  0.00  0.00     0.167 HD
ENDBRANCH  28  30
ENDBRANCH  22  28
ENDBRANCH   1  19
BRANCH   1  32
HETATM   32  C   UNK N   1      26.379  20.441   4.496  0.00  0.00     0.037 C 
BRANCH  32  33
HETATM   33  C   UNK N   1      26.281  20.652   5.999  0.00  0.00     0.023 C 
BRANCH  33  34
HETATM   34  C   UNK N   1      27.653  20.487   6.649  0.00  0.00     0.138 C 
BRANCH  34  35
HETATM   35  N   UNK N   1      28.104  19.116   6.549  0.00  0.00    -0.227 N 
HETATM   36  C   UNK N   1      28.141  18.319   7.562  0.00  0.00     0.665 C 
HETATM   37  N   UNK N   1      28.567  16.985   7.382  0.00  0.00    -0.235 N 
HETATM   38  N   UNK N   1      27.755  18.759   8.851  0.00  0.00    -0.235 N 
HETATM   39  H   UNK N   1      28.862  16.436   8.143  0.00  0.00     0.174 HD
HETATM   40  H   UNK N   1      28.567  16.597   6.477  0.00  0.00     0.174 HD
HETATM   41  H   UNK N   1      27.061  19.443   8.988  0.00  0.00     0.174 HD
HETATM   42  H   UNK N   1      28.196  18.366   9.638  0.00  0.00     0.174 HD
ATOM     43  HN  UNK N   1      28.406  18.765   5.640  1.00  0.00     0.177 HD
ENDBRANCH  34  35
ENDBRANCH  33  34
ENDBRANCH  32  33
ENDBRANCH   1  32
TORSDOF 10
ENDMDL
MODEL 7
REMARK VINA RESULT:      -7.4      1.025      1.976
REMARK  10 active torsions:
REMARK  status: ('A' for Active; 'I' for Inactive)
REMARK    1  A    between atoms: S_1  and  N_8 
REMARK    2  A    between atoms: S_1  and  C_29 
REMARK    3  A    between atoms: O_3  and  C_22 
REMARK       I    between atoms: N_7  and  C_20 
REMARK    4  A    between atoms: C_19  and  N_8 
REMARK    5  A    between atoms: N_10  and  C_34 
REMARK       I    between atoms: N_12  and  C_36 
REMARK       I    between atoms: N_13  and  C_36 
REMARK    6  A    between atoms: C_16  and  C_22 
REMARK    7  A    between atoms: C_19  and  C_20 
REMARK    8  A    between atoms: C_19  and  C_23 
REMARK    9  A    between atoms: C_23  and  C_30 
REMARK   10  A    between atoms: C_30  and  C_34 
ROOT
HETATM    1  C   UNK N   1      20.224  15.455   4.867  0.00  0.00     0.185 C 
ENDROOT
BRANCH   1   2
HETATM    2  N   UNK N   1      19.088  15.040   4.066  0.00  0.00    -0.301 N 
HETATM    3  H   UNK N   1      18.254  15.598   3.881  0.00  0.00     0.173 HD
BRANCH   2   4
HETATM    4  S   UNK N   1      19.391  13.401   3.463  0.00  0.00     0.261 S 
HETATM    5  O   UNK N   1      18.118  13.030   2.688  0.00  0.00    -0.200 OA
HETATM    6  O   UNK N   1      19.308  12.447   4.668  0.00  0.00    -0.200 OA
BRANCH   4   7
HETATM    7  C   UNK N   1      20.908  13.171   2.536  0.00  0.00     0.106 A 
HETATM    8  C   UNK N   1      22.077  12.687   3.149  0.00  0.00     0.058 A 
HETATM    9  N   UNK N   1      22.078  12.344   4.528  0.00  0.00    -0.388 N 
HETATM   10  C   UNK N   1      23.252  12.538   2.388  0.00  0.00    -0.030 A 
HETATM   11  C   UNK N   1      23.272  11.891   5.206  0.00  0.00     0.124 C 
HETATM   12  H   UNK N   1      21.239  12.417   5.038  0.00  0.00     0.159 HD
HETATM   13  C   UNK N   1      24.203  11.165   4.242  0.00  0.00     0.003 C 
HETATM   14  C   UNK N   1      24.512  12.046   3.034  0.00  0.00     0.046 C 
HETATM   15  C   UNK N   1      25.491  10.820   4.958  0.00  0.00     0.012 C 
HETATM   16  C   UNK N   1      23.253  12.867   1.030  0.00  0.00     0.009 A 
HETATM   17  C   UNK N   1      22.087  13.338   0.422  0.00  0.00     0.002 A 
HETATM   18  C   UNK N   1      20.921  13.492   1.174  0.00  0.00     0.028 A 
ENDBRANCH   4   7
ENDBRANCH   2   4
ENDBRANCH   1   2
BRANCH   1  19
HETATM   19  C   UNK N   1      19.779  15.782   6.288  0.00  0.00     0.244 C 
HETATM   20  O   UNK N   1      18.615  16.124   6.412  0.00  0.00    -0.271 OA
HETATM   21  N   UNK N   1      20.588  15.658   7.404  0.00  0.00    -0.336 N 
HETATM   22  C   UNK N   1      20.142  15.926   8.780  0.00  0.00     0.185 C 
HETATM   23  C   UNK N   1      21.932  15.136   7.300  0.00  0.00     0.127 C 
HETATM   24  C   UNK N   1      20.162  14.609   9.561  0.00  0.00     0.040 C 
HETATM   25  C   UNK N   1      21.557  13.986   9.491  0.00  0.00    -0.015 C 
HETATM   26  C   UNK N   1      22.006  13.805   8.043  0.00  0.00     0.024 C 
HETATM   27  C   UNK N   1      21.545  12.640  10.186  0.00  0.00     0.010 C 
BRANCH  22  28
HETATM   28  C   UNK N   1      18.853  16.690   8.967  0.00  0.00     0.163 C 
HETATM   29  O   UNK N   1      18.874  17.910   9.012  0.00  0.00    -0.648 OA
BRANCH  28  30
HETATM   30  O   UNK N   1      17.683  16.040   9.124  0.00  0.00    -0.775 OA
HETATM   31  H   UNK N   1      17.246  15.276   9.446  0.00  0.00     0.167 HD
ENDBRANCH  28  30
ENDBRANCH  22  28
ENDBRANCH   1  19
BRANCH   1  32
HETATM   32  C   UNK N   1      21.074  16.428   4.066  0.00  0.00     0.037 C 
BRANCH  32  33
HETATM   33  C   UNK N   1      20.259  17.022   2.928  0.00  0.00     0.023 C 
BRANCH  33  34
HETATM   34  C   UNK N   1      20.149  18.536   3.086  0.00  0.00     0.138 C 
BRANCH  34  35
HETATM   35  N   UNK N   1      20.109  19.184   1.793  0.00  0.00    -0.227 N 
HETATM   36  C   UNK N   1      20.557  20.377   1.598  0.00  0.00     0.665 C 
HETATM   37  N   UNK N   1      20.511  20.933   0.301  0.00  0.00    -0.235 N 
HETATM   38  N   UNK N   1      21.102  21.135   2.662  0.00  0.00    -0.235 N 
HETATM   39  H   UNK N   1      20.586  21.904   0.158  0.00  0.00     0.174 HD
HETATM   40  H   UNK N   1      20.403  20.338  -0.475  0.00  0.00     0.174 HD
HETATM   41  H   UNK N   1      21.576  20.719   3.417  0.00  0.00     0.174 HD
HETATM   42  H   UNK N   1      21.003  22.114   2.646  0.00  0.00     0.174 HD
ATOM     43  HN  UNK N   1      19.710  18.676   1.004  1.00  0.00     0.177 HD
ENDBRANCH  34  35
ENDBRANCH  33  34
ENDBRANCH  32  33
ENDBRANCH   1  32
TORSDOF 10
ENDMDL
MODEL 8
REMARK VINA RESULT:      -7.3     10.851     12.879
REMARK  10 active torsions:
REMARK  status: ('A' for Active; 'I' for Inactive)
REMARK    1  A    between atoms: S_1  and  N_8 
REMARK    2  A    between atoms: S_1  and  C_29 
REMARK    3  A    between atoms: O_3  and  C_22 
REMARK       I    between atoms: N_7  and  C_20 
REMARK    4  A    between atoms: C_19  and  N_8 
REMARK    5  A    between atoms: N_10  and  C_34 
REMARK       I    between atoms: N_12  and  C_36 
REMARK       I    between atoms: N_13  and  C_36 
REMARK    6  A    between atoms: C_16  and  C_22 
REMARK    7  A    between atoms: C_19  and  C_20 
REMARK    8  A    between atoms: C_19  and  C_23 
REMARK    9  A    between atoms: C_23  and  C_30 
REMARK   10  A    between atoms: C_30  and  C_34 
ROOT
HETATM    1  C   UNK N   1      33.619  15.037   5.534  0.00  0.00     0.185 C 
ENDROOT
BRANCH   1   2
HETATM    2  N   UNK N   1      33.812  15.640   4.228  0.00  0.00    -0.301 N 
HETATM    3  H   UNK N   1      34.651  15.557   3.652  0.00  0.00     0.173 HD
BRANCH   2   4
HETATM    4  S   UNK N   1      32.349  16.543   3.800  0.00  0.00     0.261 S 
HETATM    5  O   UNK N   1      32.521  16.880   2.312  0.00  0.00    -0.200 OA
HETATM    6  O   UNK N   1      32.463  17.934   4.449  0.00  0.00    -0.200 OA
BRANCH   4   7
HETATM    7  C   UNK N   1      30.791  15.750   4.198  0.00  0.00     0.106 A 
HETATM    8  C   UNK N   1      29.634  16.501   4.469  0.00  0.00     0.058 A 
HETATM    9  N   UNK N   1      29.666  17.920   4.414  0.00  0.00    -0.388 N 
HETATM   10  C   UNK N   1      28.434  15.839   4.795  0.00  0.00    -0.030 A 
HETATM   11  C   UNK N   1      28.511  18.729   4.736  0.00  0.00     0.124 C 
HETATM   12  H   UNK N   1      30.502  18.367   4.148  0.00  0.00     0.159 HD
HETATM   13  C   UNK N   1      27.220  17.985   4.414  0.00  0.00     0.003 C 
HETATM   14  C   UNK N   1      27.199  16.627   5.110  0.00  0.00     0.046 C 
HETATM   15  C   UNK N   1      26.040  18.810   4.881  0.00  0.00     0.012 C 
HETATM   16  C   UNK N   1      28.396  14.443   4.843  0.00  0.00     0.009 A 
HETATM   17  C   UNK N   1      29.545  13.700   4.562  0.00  0.00     0.002 A 
HETATM   18  C   UNK N   1      30.738  14.353   4.245  0.00  0.00     0.028 A 
ENDBRANCH   4   7
ENDBRANCH   2   4
ENDBRANCH   1   2
BRANCH   1  19
HETATM   19  C   UNK N   1      33.854  16.068   6.632  0.00  0.00     0.244 C 
HETATM   20  O   UNK N   1      34.851  16.759   6.505  0.00  0.00    -0.271 OA
HETATM   21  N   UNK N   1      32.991  16.284   7.693  0.00  0.00    -0.336 N 
HETATM   22  C   UNK N   1      33.194  17.313   8.725  0.00  0.00     0.185 C 
HETATM   23  C   UNK N   1      31.742  15.566   7.800  0.00  0.00     0.127 C 
HETATM   24  C   UNK N   1      32.078  18.354   8.597  0.00  0.00     0.040 C 
HETATM   25  C   UNK N   1      30.716  17.667   8.691  0.00  0.00    -0.015 C 
HETATM   26  C   UNK N   1      30.587  16.554   7.654  0.00  0.00     0.024 C 
HETATM   27  C   UNK N   1      29.619  18.688   8.471  0.00  0.00     0.010 C 
BRANCH  22  28
HETATM   28  C   UNK N   1      34.563  17.941   8.834  0.00  0.00     0.163 C 
HETATM   29  O   UNK N   1      35.355  17.527   9.665  0.00  0.00    -0.648 OA
BRANCH  28  30
HETATM   30  O   UNK N   1      34.907  18.983   8.049  0.00  0.00    -0.775 OA
HETATM   31  H   UNK N   1      34.749  19.454   7.255  0.00  0.00     0.167 HD
ENDBRANCH  28  30
ENDBRANCH  22  28
ENDBRANCH   1  19
BRANCH   1  32
HETATM   32  C   UNK N   1      34.305  13.682   5.568  0.00  0.00     0.037 C 
BRANCH  32  33
HETATM   33  C   UNK N   1      33.660  12.793   6.619  0.00  0.00     0.023 C 
BRANCH  33  34
HETATM   34  C   UNK N   1      34.617  12.572   7.789  0.00  0.00     0.138 C 
BRANCH  34  35
HETATM   35  N   UNK N   1      34.031  13.045   9.024  0.00  0.00    -0.227 N 
HETATM   36  C   UNK N   1      34.574  13.965   9.746  0.00  0.00     0.665 C 
HETATM   37  N   UNK N   1      33.929  14.396  10.925  0.00  0.00    -0.235 N 
HETATM   38  N   UNK N   1      35.805  14.555   9.370  0.00  0.00    -0.235 N 
HETATM   39  H   UNK N   1      34.418  14.881  11.627  0.00  0.00     0.174 HD
HETATM   40  H   UNK N   1      32.971  14.207  11.046  0.00  0.00     0.174 HD
HETATM   41  H   UNK N   1      36.070  14.667   8.428  0.00  0.00     0.174 HD
HETATM   42  H   UNK N   1      36.417  14.864  10.075  0.00  0.00     0.174 HD
ATOM     43  HN  UNK N   1      33.152  12.633   9.337  1.00  0.00     0.177 HD
ENDBRANCH  34  35
ENDBRANCH  33  34
ENDBRANCH  32  33
ENDBRANCH   1  32
TORSDOF 10
ENDMDL
MODEL 9
REMARK VINA RESULT:      -7.3      5.337      7.272
REMARK  10 active torsions:
REMARK  status: ('A' for Active; 'I' for Inactive)
REMARK    1  A    between atoms: S_1  and  N_8 
REMARK    2  A    between atoms: S_1  and  C_29 
REMARK    3  A    between atoms: O_3  and  C_22 
REMARK       I    between atoms: N_7  and  C_20 
REMARK    4  A    between atoms: C_19  and  N_8 
REMARK    5  A    between atoms: N_10  and  C_34 
REMARK       I    between atoms: N_12  and  C_36 
REMARK       I    between atoms: N_13  and  C_36 
REMARK    6  A    between atoms: C_16  and  C_22 
REMARK    7  A    between atoms: C_19  and  C_20 
REMARK    8  A    between atoms: C_19  and  C_23 
REMARK    9  A    between atoms: C_23  and  C_30 
REMARK   10  A    between atoms: C_30  and  C_34 
ROOT
HETATM    1  C   UNK N   1      25.353  19.327   3.884  0.00  0.00     0.185 C 
ENDROOT
BRANCH   1   2
HETATM    2  N   UNK N   1      25.864  18.188   3.142  0.00  0.00    -0.301 N 
HETATM    3  H   UNK N   1      25.869  18.094   2.126  0.00  0.00     0.173 HD
BRANCH   2   4
HETATM    4  S   UNK N   1      26.475  16.991   4.297  0.00  0.00     0.261 S 
HETATM    5  O   UNK N   1      26.009  17.500   5.668  0.00  0.00    -0.200 OA
HETATM    6  O   UNK N   1      27.998  17.185   4.395  0.00  0.00    -0.200 OA
BRANCH   4   7
HETATM    7  C   UNK N   1      26.042  15.283   3.962  0.00  0.00     0.106 A 
HETATM    8  C   UNK N   1      26.794  14.496   3.074  0.00  0.00     0.058 A 
HETATM    9  N   UNK N   1      27.940  15.033   2.429  0.00  0.00    -0.388 N 
HETATM   10  C   UNK N   1      26.409  13.164   2.826  0.00  0.00    -0.030 A 
HETATM   11  C   UNK N   1      28.711  14.272   1.470  0.00  0.00     0.124 C 
HETATM   12  H   UNK N   1      28.219  15.953   2.641  0.00  0.00     0.159 HD
HETATM   13  C   UNK N   1      28.641  12.781   1.778  0.00  0.00     0.003 C 
HETATM   14  C   UNK N   1      27.188  12.321   1.863  0.00  0.00     0.046 C 
HETATM   15  C   UNK N   1      29.351  12.013   0.684  0.00  0.00     0.012 C 
HETATM   16  C   UNK N   1      25.288  12.629   3.464  0.00  0.00     0.009 A 
HETATM   17  C   UNK N   1      24.548  13.412   4.355  0.00  0.00     0.002 A 
HETATM   18  C   UNK N   1      24.923  14.734   4.599  0.00  0.00     0.028 A 
ENDBRANCH   4   7
ENDBRANCH   2   4
ENDBRANCH   1   2
BRANCH   1  19
HETATM   19  C   UNK N   1      23.993  19.747   3.338  0.00  0.00     0.244 C 
HETATM   20  O   UNK N   1      24.016  20.539   2.411  0.00  0.00    -0.271 OA
HETATM   21  N   UNK N   1      22.785  19.248   3.794  0.00  0.00    -0.336 N 
HETATM   22  C   UNK N   1      21.477  19.617   3.234  0.00  0.00     0.185 C 
HETATM   23  C   UNK N   1      22.736  18.218   4.806  0.00  0.00     0.127 C 
HETATM   24  C   UNK N   1      20.868  18.380   2.569  0.00  0.00     0.040 C 
HETATM   25  C   UNK N   1      20.789  17.235   3.579  0.00  0.00    -0.015 C 
HETATM   26  C   UNK N   1      22.157  16.945   4.191  0.00  0.00     0.024 C 
HETATM   27  C   UNK N   1      20.272  15.988   2.891  0.00  0.00     0.010 C 
BRANCH  22  28
HETATM   28  C   UNK N   1      21.407  20.841   2.352  0.00  0.00     0.163 C 
HETATM   29  O   UNK N   1      21.027  20.734   1.197  0.00  0.00    -0.648 OA
BRANCH  28  30
HETATM   30  O   UNK N   1      21.798  22.046   2.814  0.00  0.00    -0.775 OA
HETATM   31  H   UNK N   1      22.405  22.526   3.342  0.00  0.00     0.167 HD
ENDBRANCH  28  30
ENDBRANCH  22  28
ENDBRANCH   1  19
BRANCH   1  32
HETATM   32  C   UNK N   1      26.470  20.339   4.078  0.00  0.00     0.037 C 
BRANCH  32  33
HETATM   33  C   UNK N   1      26.425  20.906   5.489  0.00  0.00     0.023 C 
BRANCH  33  34
HETATM   34  C   UNK N   1      27.711  20.568   6.239  0.00  0.00     0.138 C 
BRANCH  34  35
HETATM   35  N   UNK N   1      27.413  19.918   7.497  0.00  0.00    -0.227 N 
HETATM   36  C   UNK N   1      27.971  18.814   7.861  0.00  0.00     0.665 C 
HETATM   37  N   UNK N   1      27.652  18.255   9.117  0.00  0.00    -0.235 N 
HETATM   38  N   UNK N   1      28.906  18.159   7.023  0.00  0.00    -0.235 N 
HETATM   39  H   UNK N   1      27.836  17.309   9.317  0.00  0.00     0.174 HD
HETATM   40  H   UNK N   1      27.237  18.822   9.806  0.00  0.00     0.174 HD
HETATM   41  H   UNK N   1      29.501  18.650   6.412  0.00  0.00     0.174 HD
HETATM   42  H   UNK N   1      28.962  17.177   7.054  0.00  0.00     0.174 HD
ATOM     43  HN  UNK N   1      26.733  20.351   8.122  1.00  0.00     0.177 HD
ENDBRANCH  34  35
ENDBRANCH  33  34
ENDBRANCH  32  33
ENDBRANCH   1  32
TORSDOF 10
ENDMDL
