REMARK  10 active torsions:
REMARK  status: ('A' for Active; 'I' for Inactive)
REMARK    1  A    between atoms: S_1  and  N_8 
REMARK    2  A    between atoms: S_1  and  C_29 
REMARK    3  A    between atoms: O_3  and  C_22 
REMARK       I    between atoms: N_7  and  C_20 
REMARK    4  A    between atoms: C_19  and  N_8 
REMARK    5  A    between atoms: N_10  and  C_34 
REMARK       I    between atoms: N_12  and  C_36 
REMARK       I    between atoms: N_13  and  C_36 
REMARK    6  A    between atoms: C_16  and  C_22 
REMARK    7  A    between atoms: C_19  and  C_20 
REMARK    8  A    between atoms: C_19  and  C_23 
REMARK    9  A    between atoms: C_23  and  C_30 
REMARK   10  A    between atoms: C_30  and  C_34 
ROOT
HETATM    1  C   UNK N   1       5.666  -0.490  -0.201  0.00  0.00     0.185 C 
ENDROOT
BRANCH   1   2
HETATM    2  N   UNK N   1       6.819   0.244  -0.690  0.00  0.00    -0.301 N 
HETATM    3  H   UNK N   1       7.228   0.159  -1.621  0.00  0.00     0.173 HD
BRANCH   2   4
HETATM    4  S   UNK N   1       7.397   1.312   0.601  0.00  0.00     0.261 S 
HETATM    5  O   UNK N   1       8.711   0.674   1.074  0.00  0.00    -0.200 OA
HETATM    6  O   UNK N   1       6.487   1.089   1.822  0.00  0.00    -0.200 OA
BRANCH   4   7
HETATM    7  C   UNK N   1       7.534   3.050   0.182  0.00  0.00     0.106 A 
HETATM    8  C   UNK N   1       8.783   3.690   0.105  0.00  0.00     0.058 A 
HETATM    9  N   UNK N   1       9.981   2.963   0.339  0.00  0.00    -0.388 N 
HETATM   10  C   UNK N   1       8.845   5.061  -0.210  0.00  0.00    -0.030 A 
HETATM   11  C   UNK N   1      11.281   3.596   0.319  0.00  0.00     0.124 C 
HETATM   12  H   UNK N   1       9.924   1.997   0.521  0.00  0.00     0.159 HD
HETATM   13  C   UNK N   1      11.290   4.790  -0.628  0.00  0.00     0.003 C 
HETATM   14  C   UNK N   1      10.168   5.762  -0.272  0.00  0.00     0.046 C 
HETATM   15  C   UNK N   1      12.623   5.498  -0.525  0.00  0.00     0.012 C 
HETATM   16  C   UNK N   1       7.670   5.778  -0.449  0.00  0.00     0.009 A 
HETATM   17  C   UNK N   1       6.431   5.136  -0.382  0.00  0.00     0.002 A 
HETATM   18  C   UNK N   1       6.365   3.778  -0.064  0.00  0.00     0.028 A 
ENDBRANCH   4   7
ENDBRANCH   2   4
ENDBRANCH   1   2
BRANCH   1  19
HETATM   19  C   UNK N   1       5.978  -1.981  -0.133  0.00  0.00     0.244 C 
HETATM   20  O   UNK N   1       7.002  -2.281   0.457  0.00  0.00    -0.271 OA
HETATM   21  N   UNK N   1       5.155  -2.971  -0.642  0.00  0.00    -0.336 N 
HETATM   22  C   UNK N   1       5.433  -4.411  -0.532  0.00  0.00     0.185 C 
HETATM   23  C   UNK N   1       3.877  -2.650  -1.235  0.00  0.00     0.127 C 
HETATM   24  C   UNK N   1       4.364  -5.044   0.363  0.00  0.00     0.040 C 
HETATM   25  C   UNK N   1       2.974  -4.740  -0.196  0.00  0.00    -0.015 C 
HETATM   26  C   UNK N   1       2.766  -3.237  -0.368  0.00  0.00     0.024 C 
HETATM   27  C   UNK N   1       1.920  -5.289   0.743  0.00  0.00     0.010 C 
BRANCH  22  28
HETATM   28  C   UNK N   1       6.832  -4.832  -0.149  0.00  0.00     0.163 C 
HETATM   29  O   UNK N   1       7.772  -4.535  -0.869  0.00  0.00    -0.648 OA
BRANCH  28  30
HETATM   30  O   UNK N   1       7.051  -5.567   0.960  0.00  0.00    -0.775 OA
HETATM   31  H   UNK N   1       6.685  -5.954   1.731  0.00  0.00     0.167 HD
ENDBRANCH  28  30
ENDBRANCH  22  28
ENDBRANCH   1  19
BRANCH   1  32
HETATM   32  C   UNK N   1       4.415   0.021  -0.896  0.00  0.00     0.037 C 
BRANCH  32  33
HETATM   33  C   UNK N   1       3.887   1.257  -0.185  0.00  0.00     0.023 C 
BRANCH  33  34
HETATM   34  C   UNK N   1       3.161   0.863   1.099  0.00  0.00     0.138 C 
BRANCH  34  35
HETATM   35  N   UNK N   1       2.033   0.006   0.806  0.00  0.00    -0.227 N 
HETATM   36  C   UNK N   1       0.969   0.432   0.215  0.00  0.00     0.665 C 
HETATM   37  N   UNK N   1      -0.080  -0.470  -0.064  0.00  0.00    -0.235 N 
HETATM   38  N   UNK N   1       0.840   1.790  -0.165  0.00  0.00    -0.235 N 
HETATM   39  H   UNK N   1      -0.990  -0.151  -0.259  0.00  0.00     0.174 HD
HETATM   40  H   UNK N   1       0.103  -1.437  -0.064  0.00  0.00     0.174 HD
HETATM   41  H   UNK N   1       1.613   2.339  -0.429  0.00  0.00     0.174 HD
HETATM   42  H   UNK N   1      -0.055   2.199  -0.165  0.00  0.00     0.174 HD
ATOM     43  HN  UNK N   1       2.081  -0.976   1.078  1.00  0.00     0.177 HD
ENDBRANCH  34  35
ENDBRANCH  33  34
ENDBRANCH  32  33
ENDBRANCH   1  32
TORSDOF 10
