REMARK  10 active torsions:
REMARK  status: ('A' for Active; 'I' for Inactive)
REMARK    1  A    between atoms: C_25  and  C_28 
REMARK    2  A    between atoms: C_27  and  C_31 
REMARK    3  A    between atoms: C_34  and  C_35 
REMARK    4  A    between atoms: C_35  and  C_36 
REMARK    5  A    between atoms: C_38  and  C_42 
REMARK    6  A    between atoms: C_48  and  C_51 
REMARK    7  A    between atoms: C_59  and  C_60 
REMARK    8  A    between atoms: C_64  and  C_65 
REMARK    9  A    between atoms: C_70  and  C_71 
REMARK   10  A    between atoms: C_76  and  C_77 
ROOT
HETATM    1  O   UNK N   1       8.321   2.780   0.000  0.00  0.00    -0.393 OA
HETATM    2  O   UNK N   1       5.685   1.035   0.000  0.00  0.00    -0.271 OA
HETATM    3  O   UNK N   1       8.283   1.440   0.000  0.00  0.00    -0.271 OA
HETATM    4  O   UNK N   1       5.260  -2.765   0.000  0.00  0.00    -0.394 OA
HETATM    5  O   UNK N   1       4.112   3.498   0.000  0.00  0.00    -0.393 OA
HETATM    6  O   UNK N   1       8.597   0.267   0.000  0.00  0.00    -0.374 OA
HETATM    7  O   UNK N   1       8.337  -1.528   0.000  0.00  0.00    -0.391 OA
HETATM    8  O   UNK N   1       5.129  -1.342   0.000  0.00  0.00    -0.272 OA
HETATM    9  O   UNK N   1       7.429  -0.767   0.000  0.00  0.00    -0.277 OA
HETATM   10  O   UNK N   1       6.182   1.242   0.000  0.00  0.00    -0.390 OA
HETATM   11  O   UNK N   1       3.398   0.610   0.000  0.00  0.00    -0.271 OA
HETATM   12  O   UNK N   1       7.218  -3.799   0.000  0.00  0.00    -0.393 OA
HETATM   13  O   UNK N   1       5.605   2.649   0.000  0.00  0.00    -0.388 OA
HETATM   14  O   UNK N   1       5.074  -2.040   0.000  0.00  0.00    -0.271 OA
HETATM   15  O   UNK N   1       6.740   0.376   0.000  0.00  0.00    -0.268 OA
HETATM   16  O   UNK N   1       1.825   2.590   0.000  0.00  0.00    -0.361 OA
HETATM   17  O   UNK N   1      15.635   0.621   0.000  0.00  0.00    -0.351 OA
HETATM   18  N   UNK N   1       6.256   2.260   0.000  0.00  0.00    -0.334 N 
HETATM   19  N   UNK N   1       6.970  -0.628   0.000  0.00  0.00    -0.235 N 
HETATM   20  N   UNK N   1       7.252   0.535   0.000  0.00  0.00    -0.331 N 
HETATM   21  N   UNK N   1       4.112   1.847   0.000  0.00  0.00    -0.344 N 
HETATM   22  N   UNK N   1       4.827  -0.215   0.000  0.00  0.00    -0.344 N 
HETATM   23  N   UNK N   1       6.085  -2.623   0.000  0.00  0.00    -0.344 N 
HETATM   24  N   UNK N   1       6.668  -0.446   0.000  0.00  0.00    -0.344 N 
HETATM   25  C   UNK N   1       6.981   3.372   0.000  0.00  0.00     0.031 A 
HETATM   26  C   UNK N   1       7.497   2.735   0.000  0.00  0.00     0.155 A 
HETATM   27  C   UNK N   1       7.053   2.046   0.000  0.00  0.00     0.208 A 
HETATM   28  C   UNK N   1       6.215   3.079   0.000  0.00  0.00     0.134 A 
HETATM   29  C   UNK N   1       7.194   4.169   0.000  0.00  0.00     0.014 A 
HETATM   30  C   UNK N   1       5.541   1.847   0.000  0.00  0.00     0.246 A 
HETATM   31  C   UNK N   1       7.465   1.332   0.000  0.00  0.00     0.245 A 
HETATM   32  C   UNK N   1       4.827   2.260   0.000  0.00  0.00     0.205 A 
HETATM   33  C   UNK N   1       6.256  -0.215   0.000  0.00  0.00     0.160 A 
HETATM   34  C   UNK N   1       5.226  -0.898   0.000  0.00  0.00     0.062 A 
HETATM   35  C   UNK N   1       5.673  -2.050   0.000  0.00  0.00     0.133 A 
HETATM   36  C   UNK N   1       6.894  -1.861   0.000  0.00  0.00     0.131 A 
HETATM   37  C   UNK N   1       4.827   3.085   0.000  0.00  0.00     0.146 A 
HETATM   38  C   UNK N   1       7.835  -0.048   0.000  0.00  0.00     0.249 A 
HETATM   39  C   UNK N   1       4.827   0.610   0.000  0.00  0.00     0.208 A 
HETATM   40  C   UNK N   1       5.541  -0.628   0.000  0.00  0.00     0.236 A 
HETATM   41  C   UNK N   1       6.970  -1.453   0.000  0.00  0.00     0.226 A 
HETATM   42  C   UNK N   1       7.835  -0.873   0.000  0.00  0.00     0.169 A 
HETATM   43  C   UNK N   1       4.112   1.022   0.000  0.00  0.00     0.243 A 
HETATM   44  C   UNK N   1       6.882  -2.410   0.000  0.00  0.00     0.199 A 
HETATM   45  C   UNK N   1       5.357   1.242   0.000  0.00  0.00     0.183 A 
HETATM   46  C   UNK N   1       7.252  -1.457   0.000  0.00  0.00     0.071 A 
HETATM   47  C   UNK N   1       5.239   3.799   0.000  0.00  0.00     0.042 A 
HETATM   48  C   UNK N   1       6.455  -1.243   0.000  0.00  0.00     0.179 A 
HETATM   49  C   UNK N   1       7.451  -3.007   0.000  0.00  0.00     0.145 A 
HETATM   50  C   UNK N   1       5.075   2.017   0.000  0.00  0.00     0.182 A 
HETATM   51  C   UNK N   1       5.871  -1.827   0.000  0.00  0.00     0.241 A 
HETATM   52  C   UNK N   1       8.253  -2.813   0.000  0.00  0.00     0.042 A 
HETATM   53  C   UNK N   1       4.262   2.160   0.000  0.00  0.00    -0.027 A 
HETATM   54  C   UNK N   1       7.416  -0.098   0.000  0.00  0.00     0.252 A 
HETATM   55  C   UNK N   1       3.980   2.936   0.000  0.00  0.00     0.012 A 
HETATM   56  C   UNK N   1       3.732   1.528   0.000  0.00  0.00     0.012 A 
HETATM   57  C   UNK N   1       8.238  -0.026   0.000  0.00  0.00     0.032 A 
HETATM   58  C   UNK N   1       3.168   3.079   0.000  0.00  0.00     0.037 A 
HETATM   59  C   UNK N   1       2.920   1.672   0.000  0.00  0.00     0.037 A 
HETATM   60  C   UNK N   1       2.638   2.447   0.000  0.00  0.00     0.065 A 
HETATM   61  C   UNK N   1       8.586   0.722   0.000  0.00  0.00     0.018 A 
HETATM   62  C   UNK N   1       8.711  -0.702   0.000  0.00  0.00     0.018 A 
HETATM   63  C   UNK N   1       9.408   0.794   0.000  0.00  0.00     0.013 A 
HETATM   64  C   UNK N   1       9.533  -0.630   0.000  0.00  0.00     0.013 A 
HETATM   65  C   UNK N   1       9.882   0.118   0.000  0.00  0.00    -0.026 A 
HETATM   66  C   UNK N   1      10.704   0.190   0.000  0.00  0.00    -0.026 A 
HETATM   67  C   UNK N   1      11.052   0.938   0.000  0.00  0.00     0.013 A 
HETATM   68  C   UNK N   1      11.177  -0.486   0.000  0.00  0.00     0.013 A 
HETATM   69  C   UNK N   1      11.874   1.010   0.000  0.00  0.00     0.013 A 
HETATM   70  C   UNK N   1      11.998  -0.414   0.000  0.00  0.00     0.013 A 
HETATM   71  C   UNK N   1      12.347   0.334   0.000  0.00  0.00    -0.026 A 
HETATM   72  C   UNK N   1      13.169   0.406   0.000  0.00  0.00    -0.026 A 
HETATM   73  C   UNK N   1      13.642  -0.270   0.000  0.00  0.00     0.015 A 
HETATM   74  C   UNK N   1      13.518   1.153   0.000  0.00  0.00     0.015 A 
HETATM   75  C   UNK N   1      14.464  -0.198   0.000  0.00  0.00     0.037 A 
HETATM   76  C   UNK N   1      14.340   1.225   0.000  0.00  0.00     0.037 A 
HETATM   77  C   UNK N   1      14.813   0.549   0.000  0.00  0.00     0.068 A 
HETATM   78  C   UNK N   1      16.930   0.018   0.000  0.00  0.00     0.027 A 
HETATM   79  C   UNK N   1      16.108  -0.054   0.000  0.00  0.00     0.175 A 
HETATM   80  C   UNK N   1      17.403  -0.658   0.000  0.00  0.00     0.002 A 
HETATM   81  C   UNK N   1      18.225  -0.586   0.000  0.00  0.00    -0.004 A 
HETATM   82  C   UNK N   1      18.698  -1.262   0.000  0.00  0.00     0.005 A 
HETATM   83  H   UNK N   1       8.851   1.967   0.000  0.00  0.00     0.210 HD
HETATM   84  H   UNK N   1       4.290  -2.765   0.000  0.00  0.00     0.210 HD
HETATM   85  H   UNK N   1       4.112   4.467   0.000  0.00  0.00     0.210 HD
HETATM   86  H   UNK N   1       9.367  -0.323   0.000  0.00  0.00     0.212 HD
HETATM   87  H   UNK N   1       7.966  -2.424   0.000  0.00  0.00     0.210 HD
HETATM   88  H   UNK N   1       6.667   0.402   0.000  0.00  0.00     0.210 HD
HETATM   89  H   UNK N   1       6.275  -4.027   0.000  0.00  0.00     0.210 HD
HETATM   90  H   UNK N   1       6.560   2.481   0.000  0.00  0.00     0.210 HD
HETATM   91  H   UNK N   1       1.504   3.471   0.000  0.00  0.00     0.217 HD
HETATM   92  H   UNK N   1       6.301   0.280   0.000  0.00  0.00     0.165 HD
HETATM   93  H   UNK N   1       3.260   2.340   0.000  0.00  0.00     0.163 HD
HETATM   94  H   UNK N   1       3.974  -0.707   0.000  0.00  0.00     0.163 HD
HETATM   95  H   UNK N   1       5.593  -3.476   0.000  0.00  0.00     0.163 HD
HETATM   96  H   UNK N   1       5.914   0.187   0.000  0.00  0.00     0.163 HD
ENDROOT
TORSDOF 10
