MODEL 1
REMARK VINA RESULT:     -25.1      0.000      0.000
REMARK  10 active torsions:
REMARK  status: ('A' for Active; 'I' for Inactive)
REMARK    1  A    between atoms: C_25  and  C_28 
REMARK    2  A    between atoms: C_27  and  C_31 
REMARK    3  A    between atoms: C_34  and  C_35 
REMARK    4  A    between atoms: C_35  and  C_36 
REMARK    5  A    between atoms: C_38  and  C_42 
REMARK    6  A    between atoms: C_48  and  C_51 
REMARK    7  A    between atoms: C_59  and  C_60 
REMARK    8  A    between atoms: C_64  and  C_65 
REMARK    9  A    between atoms: C_70  and  C_71 
REMARK   10  A    between atoms: C_76  and  C_77 
ROOT
HETATM    1  O   UNK N   1      31.106  16.381   4.438  0.00  0.00    -0.393 OA
HETATM    2  O   UNK N   1      31.723  17.540   7.314  0.00  0.00    -0.271 OA
HETATM    3  O   UNK N   1      30.187  16.634   5.381  0.00  0.00    -0.271 OA
HETATM    4  O   UNK N   1      29.340  18.357  10.191  0.00  0.00    -0.394 OA
HETATM    5  O   UNK N   1      34.563  17.603   6.627  0.00  0.00    -0.393 OA
HETATM    6  O   UNK N   1      29.140  16.743   5.986  0.00  0.00    -0.374 OA
HETATM    7  O   UNK N   1      28.056  17.148   7.382  0.00  0.00    -0.391 OA
HETATM    8  O   UNK N   1      30.436  18.144   9.298  0.00  0.00    -0.272 OA
HETATM    9  O   UNK N   1      29.229  17.303   7.439  0.00  0.00    -0.277 OA
HETATM   10  O   UNK N   1      31.520  17.343   6.856  0.00  0.00    -0.390 OA
HETATM   11  O   UNK N   1      33.026  18.350   9.062  0.00  0.00    -0.271 OA
HETATM   12  O   UNK N   1      27.238  17.914   9.653  0.00  0.00    -0.393 OA
HETATM   13  O   UNK N   1      32.917  17.276   6.258  0.00  0.00    -0.388 OA
HETATM   14  O   UNK N   1      29.982  18.287   9.812  0.00  0.00    -0.271 OA
HETATM   15  O   UNK N   1      30.518  17.319   7.094  0.00  0.00    -0.268 OA
HETATM   16  O   UNK N   1      35.525  18.500   8.707  0.00  0.00    -0.361 OA
HETATM   17  O   UNK N   1      24.457  14.421   1.260  0.00  0.00    -0.351 OA
HETATM   18  N   UNK N   1      32.187  17.137   6.110  0.00  0.00    -0.334 N 
HETATM   19  N   UNK N   1      29.649  17.426   7.636  0.00  0.00    -0.235 N 
HETATM   20  N   UNK N   1      30.272  17.127   6.659  0.00  0.00    -0.331 N 
HETATM   21  N   UNK N   1      33.398  17.899   7.759  0.00  0.00    -0.344 N 
HETATM   22  N   UNK N   1      31.442  18.039   8.718  0.00  0.00    -0.344 N 
HETATM   23  N   UNK N   1      28.862  18.067   9.568  0.00  0.00    -0.344 N 
HETATM   24  N   UNK N   1      29.989  17.490   7.704  0.00  0.00    -0.344 N 
HETATM   25  C   UNK N   1      32.463  16.705   4.886  0.00  0.00     0.031 A 
HETATM   26  C   UNK N   1      31.652  16.654   4.994  0.00  0.00     0.155 A 
HETATM   27  C   UNK N   1      31.477  16.920   5.749  0.00  0.00     0.208 A 
HETATM   28  C   UNK N   1      32.793  17.003   5.575  0.00  0.00     0.134 A 
HETATM   29  C   UNK N   1      32.876  16.494   4.204  0.00  0.00     0.014 A 
HETATM   30  C   UNK N   1      32.396  17.440   6.849  0.00  0.00     0.246 A 
HETATM   31  C   UNK N   1      30.685  16.915   5.977  0.00  0.00     0.245 A 
HETATM   32  C   UNK N   1      33.188  17.596   7.021  0.00  0.00     0.205 A 
HETATM   33  C   UNK N   1      30.441  17.581   7.808  0.00  0.00     0.160 A 
HETATM   34  C   UNK N   1      30.681  18.034   8.932  0.00  0.00     0.062 A 
HETATM   35  C   UNK N   1      29.555  18.097   9.437  0.00  0.00     0.133 A 
HETATM   36  C   UNK N   1      28.833  17.671   8.530  0.00  0.00     0.131 A 
HETATM   37  C   UNK N   1      33.770  17.448   6.455  0.00  0.00     0.146 A 
HETATM   38  C   UNK N   1      29.452  17.044   6.687  0.00  0.00     0.249 A 
HETATM   39  C   UNK N   1      32.024  17.891   8.152  0.00  0.00     0.208 A 
HETATM   40  C   UNK N   1      30.651  17.884   8.546  0.00  0.00     0.236 A 
HETATM   41  C   UNK N   1      29.067  17.573   8.202  0.00  0.00     0.226 A 
HETATM   42  C   UNK N   1      28.870  17.192   7.253  0.00  0.00     0.169 A 
HETATM   43  C   UNK N   1      32.816  18.047   8.325  0.00  0.00     0.243 A 
HETATM   44  C   UNK N   1      28.454  17.773   8.914  0.00  0.00     0.199 A 
HETATM   45  C   UNK N   1      32.099  17.608   7.381  0.00  0.00     0.183 A 
HETATM   46  C   UNK N   1      28.867  17.484   8.025  0.00  0.00     0.071 A 
HETATM   47  C   UNK N   1      33.985  17.187   5.703  0.00  0.00     0.042 A 
HETATM   48  C   UNK N   1      29.576  17.701   8.386  0.00  0.00     0.179 A 
HETATM   49  C   UNK N   1      27.634  17.698   8.961  0.00  0.00     0.145 A 
HETATM   50  C   UNK N   1      32.843  17.560   7.029  0.00  0.00     0.182 A 
HETATM   51  C   UNK N   1      29.574  17.993   9.158  0.00  0.00     0.241 A 
HETATM   52  C   UNK N   1      27.209  17.406   8.317  0.00  0.00     0.042 A 
HETATM   53  C   UNK N   1      33.514  17.795   7.449  0.00  0.00    -0.027 A 
HETATM   54  C   UNK N   1      29.710  17.187   6.988  0.00  0.00     0.252 A 
HETATM   55  C   UNK N   1      34.259  17.746   7.097  0.00  0.00     0.012 A 
HETATM   56  C   UNK N   1      33.439  18.078   8.220  0.00  0.00     0.012 A 
HETATM   57  C   UNK N   1      29.185  16.911   6.415  0.00  0.00     0.032 A 
HETATM   58  C   UNK N   1      34.929  17.981   7.516  0.00  0.00     0.037 A 
HETATM   59  C   UNK N   1      34.110  18.313   8.639  0.00  0.00     0.037 A 
HETATM   60  C   UNK N   1      34.854  18.264   8.287  0.00  0.00     0.065 A 
HETATM   61  C   UNK N   1      29.469  16.665   5.681  0.00  0.00     0.018 A 
HETATM   62  C   UNK N   1      28.377  16.880   6.578  0.00  0.00     0.018 A 
HETATM   63  C   UNK N   1      28.943  16.388   5.108  0.00  0.00     0.013 A 
HETATM   64  C   UNK N   1      27.851  16.604   6.005  0.00  0.00     0.013 A 
HETATM   65  C   UNK N   1      28.134  16.358   5.269  0.00  0.00    -0.026 A 
HETATM   66  C   UNK N   1      27.609  16.081   4.696  0.00  0.00    -0.026 A 
HETATM   67  C   UNK N   1      27.893  15.835   3.962  0.00  0.00     0.013 A 
HETATM   68  C   UNK N   1      26.801  16.050   4.859  0.00  0.00     0.013 A 
HETATM   69  C   UNK N   1      27.367  15.558   3.389  0.00  0.00     0.013 A 
HETATM   70  C   UNK N   1      26.276  15.774   4.286  0.00  0.00     0.013 A 
HETATM   71  C   UNK N   1      26.559  15.528   3.551  0.00  0.00    -0.026 A 
HETATM   72  C   UNK N   1      26.034  15.251   2.978  0.00  0.00    -0.026 A 
HETATM   73  C   UNK N   1      25.225  15.221   3.140  0.00  0.00     0.015 A 
HETATM   74  C   UNK N   1      26.316  15.005   2.243  0.00  0.00     0.015 A 
HETATM   75  C   UNK N   1      24.700  14.944   2.567  0.00  0.00     0.037 A 
HETATM   76  C   UNK N   1      25.791  14.729   1.670  0.00  0.00     0.037 A 
HETATM   77  C   UNK N   1      24.982  14.698   1.833  0.00  0.00     0.068 A 
HETATM   78  C   UNK N   1      23.124  14.114   0.848  0.00  0.00     0.027 A 
HETATM   79  C   UNK N   1      23.649  14.391   1.421  0.00  0.00     0.175 A 
HETATM   80  C   UNK N   1      22.316  14.083   1.011  0.00  0.00     0.002 A 
HETATM   81  C   UNK N   1      21.790  13.807   0.438  0.00  0.00    -0.004 A 
HETATM   82  C   UNK N   1      20.982  13.776   0.600  0.00  0.00     0.005 A 
HETATM   83  H   UNK N   1      30.161  16.357   4.658  0.00  0.00     0.210 HD
HETATM   84  H   UNK N   1      30.020  18.669  10.809  0.00  0.00     0.210 HD
HETATM   85  H   UNK N   1      35.246  17.429   5.963  0.00  0.00     0.210 HD
HETATM   86  H   UNK N   1      28.184  16.602   5.900  0.00  0.00     0.212 HD
HETATM   87  H   UNK N   1      27.684  17.428   8.233  0.00  0.00     0.210 HD
HETATM   88  H   UNK N   1      30.588  17.338   7.123  0.00  0.00     0.210 HD
HETATM   89  H   UNK N   1      27.739  18.258  10.410  0.00  0.00     0.210 HD
HETATM   90  H   UNK N   1      32.129  17.000   5.765  0.00  0.00     0.210 HD
HETATM   91  H   UNK N   1      36.371  18.445   8.307  0.00  0.00     0.217 HD
HETATM   92  H   UNK N   1      30.758  17.478   7.440  0.00  0.00     0.165 HD
HETATM   93  H   UNK N   1      34.343  18.084   7.964  0.00  0.00     0.163 HD
HETATM   94  H   UNK N   1      31.693  18.401   9.599  0.00  0.00     0.163 HD
HETATM   95  H   UNK N   1      28.605  18.378  10.466  0.00  0.00     0.163 HD
HETATM   96  H   UNK N   1      30.964  17.618   7.750  0.00  0.00     0.163 HD
ENDROOT
TORSDOF 10
ENDMDL
MODEL 2
REMARK VINA RESULT:     -24.0      2.547      2.790
REMARK  10 active torsions:
REMARK  status: ('A' for Active; 'I' for Inactive)
REMARK    1  A    between atoms: C_25  and  C_28 
REMARK    2  A    between atoms: C_27  and  C_31 
REMARK    3  A    between atoms: C_34  and  C_35 
REMARK    4  A    between atoms: C_35  and  C_36 
REMARK    5  A    between atoms: C_38  and  C_42 
REMARK    6  A    between atoms: C_48  and  C_51 
REMARK    7  A    between atoms: C_59  and  C_60 
REMARK    8  A    between atoms: C_64  and  C_65 
REMARK    9  A    between atoms: C_70  and  C_71 
REMARK   10  A    between atoms: C_76  and  C_77 
ROOT
HETATM    1  O   UNK N   1      30.549  17.729   3.845  0.00  0.00    -0.393 OA
HETATM    2  O   UNK N   1      31.859  16.830   6.578  0.00  0.00    -0.271 OA
HETATM    3  O   UNK N   1      29.928  17.726   5.034  0.00  0.00    -0.271 OA
HETATM    4  O   UNK N   1      30.360  16.712  10.094  0.00  0.00    -0.394 OA
HETATM    5  O   UNK N   1      34.344  16.268   5.146  0.00  0.00    -0.393 OA
HETATM    6  O   UNK N   1      29.101  17.844   5.915  0.00  0.00    -0.374 OA
HETATM    7  O   UNK N   1      28.442  17.767   7.603  0.00  0.00    -0.391 OA
HETATM    8  O   UNK N   1      31.159  16.656   8.910  0.00  0.00    -0.272 OA
HETATM    9  O   UNK N   1      29.555  17.447   7.354  0.00  0.00    -0.277 OA
HETATM   10  O   UNK N   1      31.552  17.001   6.170  0.00  0.00    -0.390 OA
HETATM   11  O   UNK N   1      33.525  16.042   7.997  0.00  0.00    -0.271 OA
HETATM   12  O   UNK N   1      28.255  17.397  10.101  0.00  0.00    -0.393 OA
HETATM   13  O   UNK N   1      32.709  16.791   5.204  0.00  0.00    -0.388 OA
HETATM   14  O   UNK N   1      30.865  16.642   9.546  0.00  0.00    -0.271 OA
HETATM   15  O   UNK N   1      30.675  17.200   6.671  0.00  0.00    -0.268 OA
HETATM   16  O   UNK N   1      35.775  15.483   6.988  0.00  0.00    -0.361 OA
HETATM   17  O   UNK N   1      23.511  20.276   2.381  0.00  0.00    -0.351 OA
HETATM   18  N   UNK N   1      31.987  17.019   5.246  0.00  0.00    -0.334 N 
HETATM   19  N   UNK N   1      29.999  17.288   7.443  0.00  0.00    -0.235 N 
HETATM   20  N   UNK N   1      30.333  17.376   6.297  0.00  0.00    -0.331 N 
HETATM   21  N   UNK N   1      33.541  16.280   6.589  0.00  0.00    -0.344 N 
HETATM   22  N   UNK N   1      31.954  16.543   8.064  0.00  0.00    -0.344 N 
HETATM   23  N   UNK N   1      29.754  16.996   9.592  0.00  0.00    -0.344 N 
HETATM   24  N   UNK N   1      30.334  17.182   7.422  0.00  0.00    -0.344 N 
HETATM   25  C   UNK N   1      31.933  17.261   3.942  0.00  0.00     0.031 A 
HETATM   26  C   UNK N   1      31.201  17.445   4.262  0.00  0.00     0.155 A 
HETATM   27  C   UNK N   1      31.230  17.296   5.068  0.00  0.00     0.208 A 
HETATM   28  C   UNK N   1      32.418  16.998   4.549  0.00  0.00     0.134 A 
HETATM   29  C   UNK N   1      32.146  17.329   3.148  0.00  0.00     0.014 A 
HETATM   30  C   UNK N   1      32.371  16.775   5.934  0.00  0.00     0.246 A 
HETATM   31  C   UNK N   1      30.546  17.444   5.503  0.00  0.00     0.245 A 
HETATM   32  C   UNK N   1      33.157  16.524   5.901  0.00  0.00     0.205 A 
HETATM   33  C   UNK N   1      30.784  17.037   7.409  0.00  0.00     0.160 A 
HETATM   34  C   UNK N   1      31.295  16.686   8.478  0.00  0.00     0.062 A 
HETATM   35  C   UNK N   1      30.370  16.850   9.280  0.00  0.00     0.133 A 
HETATM   36  C   UNK N   1      29.462  17.271   8.555  0.00  0.00     0.131 A 
HETATM   37  C   UNK N   1      33.557  16.518   5.180  0.00  0.00     0.146 A 
HETATM   38  C   UNK N   1      29.572  17.582   6.540  0.00  0.00     0.249 A 
HETATM   39  C   UNK N   1      32.355  16.537   7.343  0.00  0.00     0.208 A 
HETATM   40  C   UNK N   1      31.169  16.793   8.098  0.00  0.00     0.236 A 
HETATM   41  C   UNK N   1      29.598  17.294   8.164  0.00  0.00     0.226 A 
HETATM   42  C   UNK N   1      29.171  17.589   7.261  0.00  0.00     0.169 A 
HETATM   43  C   UNK N   1      33.140  16.286   7.310  0.00  0.00     0.243 A 
HETATM   44  C   UNK N   1      29.205  17.270   9.041  0.00  0.00     0.199 A 
HETATM   45  C   UNK N   1      32.228  16.715   6.548  0.00  0.00     0.183 A 
HETATM   46  C   UNK N   1      29.365  17.391   8.038  0.00  0.00     0.071 A 
HETATM   47  C   UNK N   1      33.567  16.655   4.367  0.00  0.00     0.042 A 
HETATM   48  C   UNK N   1      30.121  17.114   8.216  0.00  0.00     0.179 A 
HETATM   49  C   UNK N   1      28.449  17.472   9.302  0.00  0.00     0.145 A 
HETATM   50  C   UNK N   1      32.835  16.612   5.999  0.00  0.00     0.182 A 
HETATM   51  C   UNK N   1      30.316  16.916   8.994  0.00  0.00     0.241 A 
HETATM   52  C   UNK N   1      27.886  17.748   8.765  0.00  0.00     0.042 A 
HETATM   53  C   UNK N   1      33.571  16.330   6.247  0.00  0.00    -0.027 A 
HETATM   54  C   UNK N   1      29.891  17.438   6.775  0.00  0.00     0.252 A 
HETATM   55  C   UNK N   1      34.179  16.226   5.698  0.00  0.00     0.012 A 
HETATM   56  C   UNK N   1      33.697  16.151   7.042  0.00  0.00     0.012 A 
HETATM   57  C   UNK N   1      29.253  17.722   6.336  0.00  0.00     0.032 A 
HETATM   58  C   UNK N   1      34.913  15.944   5.945  0.00  0.00     0.037 A 
HETATM   59  C   UNK N   1      34.432  15.869   7.288  0.00  0.00     0.037 A 
HETATM   60  C   UNK N   1      35.040  15.766   6.740  0.00  0.00     0.065 A 
HETATM   61  C   UNK N   1      29.332  17.836   5.522  0.00  0.00     0.018 A 
HETATM   62  C   UNK N   1      28.537  17.890   6.710  0.00  0.00     0.018 A 
HETATM   63  C   UNK N   1      28.693  18.120   5.083  0.00  0.00     0.013 A 
HETATM   64  C   UNK N   1      27.899  18.174   6.270  0.00  0.00     0.013 A 
HETATM   65  C   UNK N   1      27.977  18.289   5.457  0.00  0.00    -0.026 A 
HETATM   66  C   UNK N   1      27.339  18.573   5.017  0.00  0.00    -0.026 A 
HETATM   67  C   UNK N   1      27.417  18.688   4.204  0.00  0.00     0.013 A 
HETATM   68  C   UNK N   1      26.623  18.742   5.391  0.00  0.00     0.013 A 
HETATM   69  C   UNK N   1      26.779  18.972   3.764  0.00  0.00     0.013 A 
HETATM   70  C   UNK N   1      25.986  19.025   4.952  0.00  0.00     0.013 A 
HETATM   71  C   UNK N   1      26.064  19.140   4.138  0.00  0.00    -0.026 A 
HETATM   72  C   UNK N   1      25.426  19.424   3.699  0.00  0.00    -0.026 A 
HETATM   73  C   UNK N   1      24.710  19.593   4.073  0.00  0.00     0.015 A 
HETATM   74  C   UNK N   1      25.503  19.539   2.886  0.00  0.00     0.015 A 
HETATM   75  C   UNK N   1      24.072  19.877   3.633  0.00  0.00     0.037 A 
HETATM   76  C   UNK N   1      24.865  19.823   2.446  0.00  0.00     0.037 A 
HETATM   77  C   UNK N   1      24.149  19.992   2.820  0.00  0.00     0.068 A 
HETATM   78  C   UNK N   1      22.158  20.728   2.314  0.00  0.00     0.027 A 
HETATM   79  C   UNK N   1      22.796  20.444   2.754  0.00  0.00     0.175 A 
HETATM   80  C   UNK N   1      21.442  20.897   2.689  0.00  0.00     0.002 A 
HETATM   81  C   UNK N   1      20.804  21.181   2.249  0.00  0.00    -0.004 A 
HETATM   82  C   UNK N   1      20.088  21.350   2.623  0.00  0.00     0.005 A 
HETATM   83  H   UNK N   1      29.720  17.919   4.313  0.00  0.00     0.210 HD
HETATM   84  H   UNK N   1      31.155  16.376  10.538  0.00  0.00     0.210 HD
HETATM   85  H   UNK N   1      34.814  16.260   4.299  0.00  0.00     0.210 HD
HETATM   86  H   UNK N   1      28.184  18.114   6.078  0.00  0.00     0.212 HD
HETATM   87  H   UNK N   1      28.310  17.646   8.556  0.00  0.00     0.210 HD
HETATM   88  H   UNK N   1      30.747  17.175   6.681  0.00  0.00     0.210 HD
HETATM   89  H   UNK N   1      28.916  17.073  10.732  0.00  0.00     0.210 HD
HETATM   90  H   UNK N   1      31.845  17.122   4.913  0.00  0.00     0.210 HD
HETATM   91  H   UNK N   1      36.466  15.366   6.365  0.00  0.00     0.217 HD
HETATM   92  H   UNK N   1      30.988  17.049   6.956  0.00  0.00     0.165 HD
HETATM   93  H   UNK N   1      34.478  15.982   6.549  0.00  0.00     0.163 HD
HETATM   94  H   UNK N   1      32.413  16.252   8.885  0.00  0.00     0.163 HD
HETATM   95  H   UNK N   1      29.742  16.833  10.563  0.00  0.00     0.163 HD
HETATM   96  H   UNK N   1      31.259  16.916   7.214  0.00  0.00     0.163 HD
ENDROOT
TORSDOF 10
ENDMDL
MODEL 3
REMARK VINA RESULT:     -23.9     11.957     14.195
REMARK  10 active torsions:
REMARK  status: ('A' for Active; 'I' for Inactive)
REMARK    1  A    between atoms: C_25  and  C_28 
REMARK    2  A    between atoms: C_27  and  C_31 
REMARK    3  A    between atoms: C_34  and  C_35 
REMARK    4  A    between atoms: C_35  and  C_36 
REMARK    5  A    between atoms: C_38  and  C_42 
REMARK    6  A    between atoms: C_48  and  C_51 
REMARK    7  A    between atoms: C_59  and  C_60 
REMARK    8  A    between atoms: C_64  and  C_65 
REMARK    9  A    between atoms: C_70  and  C_71 
REMARK   10  A    between atoms: C_76  and  C_77 
ROOT
HETATM    1  O   UNK N   1      27.662  22.748  -7.519  0.00  0.00    -0.393 OA
HETATM    2  O   UNK N   1      28.058  24.031  -4.657  0.00  0.00    -0.271 OA
HETATM    3  O   UNK N   1      28.568  22.351  -6.614  0.00  0.00    -0.271 OA
HETATM    4  O   UNK N   1      30.532  23.127  -1.886  0.00  0.00    -0.394 OA
HETATM    5  O   UNK N   1      25.894  25.903  -5.250  0.00  0.00    -0.393 OA
HETATM    6  O   UNK N   1      29.467  21.762  -6.049  0.00  0.00    -0.374 OA
HETATM    7  O   UNK N   1      30.618  21.376  -4.701  0.00  0.00    -0.391 OA
HETATM    8  O   UNK N   1      29.518  23.668  -2.735  0.00  0.00    -0.272 OA
HETATM    9  O   UNK N   1      29.821  22.249  -4.609  0.00  0.00    -0.277 OA
HETATM   10  O   UNK N   1      28.067  23.751  -5.117  0.00  0.00    -0.390 OA
HETATM   11  O   UNK N   1      27.656  25.488  -2.889  0.00  0.00    -0.271 OA
HETATM   12  O   UNK N   1      31.834  21.438  -2.481  0.00  0.00    -0.393 OA
HETATM   13  O   UNK N   1      26.928  24.596  -5.665  0.00  0.00    -0.388 OA
HETATM   14  O   UNK N   1      29.979  23.485  -2.240  0.00  0.00    -0.271 OA
HETATM   15  O   UNK N   1      28.829  23.089  -4.911  0.00  0.00    -0.268 OA
HETATM   16  O   UNK N   1      25.822  27.208  -3.165  0.00  0.00    -0.361 OA
HETATM   17  O   UNK N   1      31.359  16.977 -10.863  0.00  0.00    -0.351 OA
HETATM   18  N   UNK N   1      27.392  24.020  -5.833  0.00  0.00    -0.334 N 
HETATM   19  N   UNK N   1      29.587  22.612  -4.402  0.00  0.00    -0.235 N 
HETATM   20  N   UNK N   1      28.876  22.783  -5.349  0.00  0.00    -0.331 N 
HETATM   21  N   UNK N   1      27.025  25.382  -4.166  0.00  0.00    -0.344 N 
HETATM   22  N   UNK N   1      28.654  24.233  -3.278  0.00  0.00    -0.344 N 
HETATM   23  N   UNK N   1      30.685  22.598  -2.516  0.00  0.00    -0.344 N 
HETATM   24  N   UNK N   1      29.371  22.879  -4.325  0.00  0.00    -0.344 N 
HETATM   25  C   UNK N   1      26.850  23.867  -7.035  0.00  0.00     0.031 A 
HETATM   26  C   UNK N   1      27.443  23.307  -6.953  0.00  0.00     0.155 A 
HETATM   27  C   UNK N   1      27.780  23.398  -6.211  0.00  0.00     0.208 A 
HETATM   28  C   UNK N   1      26.818  24.308  -6.344  0.00  0.00     0.134 A 
HETATM   29  C   UNK N   1      26.369  23.970  -7.697  0.00  0.00     0.014 A 
HETATM   30  C   UNK N   1      27.458  24.388  -5.097  0.00  0.00     0.246 A 
HETATM   31  C   UNK N   1      28.394  22.886  -6.011  0.00  0.00     0.245 A 
HETATM   32  C   UNK N   1      26.959  25.015  -4.903  0.00  0.00     0.205 A 
HETATM   33  C   UNK N   1      29.087  23.239  -4.208  0.00  0.00     0.160 A 
HETATM   34  C   UNK N   1      29.243  23.740  -3.089  0.00  0.00     0.062 A 
HETATM   35  C   UNK N   1      30.168  23.065  -2.624  0.00  0.00     0.133 A 
HETATM   36  C   UNK N   1      30.408  22.275  -3.543  0.00  0.00     0.131 A 
HETATM   37  C   UNK N   1      26.393  25.275  -5.445  0.00  0.00     0.146 A 
HETATM   38  C   UNK N   1      29.452  22.193  -5.346  0.00  0.00     0.249 A 
HETATM   39  C   UNK N   1      28.089  24.494  -3.820  0.00  0.00     0.208 A 
HETATM   40  C   UNK N   1      29.153  23.606  -3.472  0.00  0.00     0.236 A 
HETATM   41  C   UNK N   1      30.152  22.351  -3.860  0.00  0.00     0.226 A 
HETATM   42  C   UNK N   1      30.017  21.933  -4.804  0.00  0.00     0.169 A 
HETATM   43  C   UNK N   1      27.590  25.122  -3.625  0.00  0.00     0.243 A 
HETATM   44  C   UNK N   1      30.781  22.110  -3.175  0.00  0.00     0.199 A 
HETATM   45  C   UNK N   1      27.817  24.325  -4.580  0.00  0.00     0.183 A 
HETATM   46  C   UNK N   1      30.240  22.154  -4.041  0.00  0.00     0.071 A 
HETATM   47  C   UNK N   1      26.029  25.214  -6.181  0.00  0.00     0.042 A 
HETATM   48  C   UNK N   1      29.852  22.776  -3.663  0.00  0.00     0.179 A 
HETATM   49  C   UNK N   1      31.362  21.526  -3.153  0.00  0.00     0.145 A 
HETATM   50  C   UNK N   1      27.200  24.766  -4.905  0.00  0.00     0.182 A 
HETATM   51  C   UNK N   1      30.075  22.998  -2.899  0.00  0.00     0.241 A 
HETATM   52  C   UNK N   1      31.473  21.029  -3.803  0.00  0.00     0.042 A 
HETATM   53  C   UNK N   1      26.856  25.376  -4.469  0.00  0.00    -0.027 A 
HETATM   54  C   UNK N   1      29.359  22.469  -5.040  0.00  0.00     0.252 A 
HETATM   55  C   UNK N   1      26.239  25.818  -4.795  0.00  0.00     0.012 A 
HETATM   56  C   UNK N   1      27.128  25.546  -3.709  0.00  0.00     0.012 A 
HETATM   57  C   UNK N   1      29.559  21.920  -5.623  0.00  0.00     0.032 A 
HETATM   58  C   UNK N   1      25.895  26.428  -4.361  0.00  0.00     0.037 A 
HETATM   59  C   UNK N   1      26.783  26.156  -3.275  0.00  0.00     0.037 A 
HETATM   60  C   UNK N   1      26.167  26.597  -3.601  0.00  0.00     0.065 A 
HETATM   61  C   UNK N   1      29.152  21.914  -6.340  0.00  0.00     0.018 A 
HETATM   62  C   UNK N   1      30.165  21.377  -5.487  0.00  0.00     0.018 A 
HETATM   63  C   UNK N   1      29.352  21.364  -6.923  0.00  0.00     0.013 A 
HETATM   64  C   UNK N   1      30.365  20.828  -6.069  0.00  0.00     0.013 A 
HETATM   65  C   UNK N   1      29.959  20.821  -6.787  0.00  0.00    -0.026 A 
HETATM   66  C   UNK N   1      30.159  20.272  -7.370  0.00  0.00    -0.026 A 
HETATM   67  C   UNK N   1      29.752  20.266  -8.087  0.00  0.00     0.013 A 
HETATM   68  C   UNK N   1      30.765  19.729  -7.234  0.00  0.00     0.013 A 
HETATM   69  C   UNK N   1      29.952  19.716  -8.670  0.00  0.00     0.013 A 
HETATM   70  C   UNK N   1      30.965  19.181  -7.816  0.00  0.00     0.013 A 
HETATM   71  C   UNK N   1      30.558  19.174  -8.534  0.00  0.00    -0.026 A 
HETATM   72  C   UNK N   1      30.758  18.625  -9.116  0.00  0.00    -0.026 A 
HETATM   73  C   UNK N   1      31.365  18.082  -8.980  0.00  0.00     0.015 A 
HETATM   74  C   UNK N   1      30.352  18.618  -9.834  0.00  0.00     0.015 A 
HETATM   75  C   UNK N   1      31.565  17.533  -9.563  0.00  0.00     0.037 A 
HETATM   76  C   UNK N   1      30.552  18.068 -10.416  0.00  0.00     0.037 A 
HETATM   77  C   UNK N   1      31.159  17.526 -10.280  0.00  0.00     0.068 A 
HETATM   78  C   UNK N   1      32.165  15.885 -11.310  0.00  0.00     0.027 A 
HETATM   79  C   UNK N   1      31.965  16.434 -10.728  0.00  0.00     0.175 A 
HETATM   80  C   UNK N   1      32.771  15.342 -11.174  0.00  0.00     0.002 A 
HETATM   81  C   UNK N   1      32.971  14.793 -11.757  0.00  0.00    -0.004 A 
HETATM   82  C   UNK N   1      33.578  14.251 -11.621  0.00  0.00     0.005 A 
HETATM   83  H   UNK N   1      28.380  22.122  -7.330  0.00  0.00     0.210 HD
HETATM   84  H   UNK N   1      30.238  23.802  -1.254  0.00  0.00     0.210 HD
HETATM   85  H   UNK N   1      25.230  26.209  -5.886  0.00  0.00     0.210 HD
HETATM   86  H   UNK N   1      30.105  21.040  -6.163  0.00  0.00     0.212 HD
HETATM   87  H   UNK N   1      31.119  21.352  -3.871  0.00  0.00     0.210 HD
HETATM   88  H   UNK N   1      28.789  23.148  -4.881  0.00  0.00     0.210 HD
HETATM   89  H   UNK N   1      31.704  22.022  -1.718  0.00  0.00     0.210 HD
HETATM   90  H   UNK N   1      27.333  23.879  -6.176  0.00  0.00     0.210 HD
HETATM   91  H   UNK N   1      25.121  27.710  -3.535  0.00  0.00     0.217 HD
HETATM   92  H   UNK N   1      28.762  23.364  -4.562  0.00  0.00     0.165 HD
HETATM   93  H   UNK N   1      26.429  26.131  -3.935  0.00  0.00     0.163 HD
HETATM   94  H   UNK N   1      28.732  24.672  -2.400  0.00  0.00     0.163 HD
HETATM   95  H   UNK N   1      31.120  22.671  -1.636  0.00  0.00     0.163 HD
HETATM   96  H   UNK N   1      28.708  23.604  -4.249  0.00  0.00     0.163 HD
ENDROOT
TORSDOF 10
ENDMDL
MODEL 4
REMARK VINA RESULT:     -23.5      4.230      8.675
REMARK  10 active torsions:
REMARK  status: ('A' for Active; 'I' for Inactive)
REMARK    1  A    between atoms: C_25  and  C_28 
REMARK    2  A    between atoms: C_27  and  C_31 
REMARK    3  A    between atoms: C_34  and  C_35 
REMARK    4  A    between atoms: C_35  and  C_36 
REMARK    5  A    between atoms: C_38  and  C_42 
REMARK    6  A    between atoms: C_48  and  C_51 
REMARK    7  A    between atoms: C_59  and  C_60 
REMARK    8  A    between atoms: C_64  and  C_65 
REMARK    9  A    between atoms: C_70  and  C_71 
REMARK   10  A    between atoms: C_76  and  C_77 
ROOT
HETATM    1  O   UNK N   1      26.349  19.560   3.423  0.00  0.00    -0.393 OA
HETATM    2  O   UNK N   1      23.454  18.539   4.177  0.00  0.00    -0.271 OA
HETATM    3  O   UNK N   1      26.083  18.472   4.159  0.00  0.00    -0.271 OA
HETATM    4  O   UNK N   1      22.385  15.501   6.239  0.00  0.00    -0.394 OA
HETATM    5  O   UNK N   1      22.326  20.791   2.695  0.00  0.00    -0.393 OA
HETATM    6  O   UNK N   1      26.191  17.466   4.831  0.00  0.00    -0.374 OA
HETATM    7  O   UNK N   1      25.628  16.040   5.800  0.00  0.00    -0.391 OA
HETATM    8  O   UNK N   1      22.500  16.683   5.444  0.00  0.00    -0.272 OA
HETATM    9  O   UNK N   1      24.864  16.800   5.309  0.00  0.00    -0.277 OA
HETATM   10  O   UNK N   1      23.979  18.632   4.103  0.00  0.00    -0.390 OA
HETATM   11  O   UNK N   1      21.129  18.542   4.231  0.00  0.00    -0.271 OA
HETATM   12  O   UNK N   1      24.137  14.357   6.964  0.00  0.00    -0.393 OA
HETATM   13  O   UNK N   1      23.652  19.869   3.281  0.00  0.00    -0.388 OA
HETATM   14  O   UNK N   1      22.326  16.122   5.825  0.00  0.00    -0.271 OA
HETATM   15  O   UNK N   1      24.381  17.839   4.624  0.00  0.00    -0.268 OA
HETATM   16  O   UNK N   1      19.918  20.399   3.015  0.00  0.00    -0.361 OA
HETATM   17  O   UNK N   1      33.185  16.677   5.191  0.00  0.00    -0.351 OA
HETATM   18  N   UNK N   1      24.226  19.452   3.547  0.00  0.00    -0.334 N 
HETATM   19  N   UNK N   1      24.435  16.984   5.196  0.00  0.00    -0.235 N 
HETATM   20  N   UNK N   1      24.912  17.891   4.577  0.00  0.00    -0.331 N 
HETATM   21  N   UNK N   1      22.044  19.443   3.606  0.00  0.00    -0.344 N 
HETATM   22  N   UNK N   1      22.395  17.649   4.799  0.00  0.00    -0.344 N 
HETATM   23  N   UNK N   1      23.222  15.491   6.226  0.00  0.00    -0.344 N 
HETATM   24  N   UNK N   1      24.169  17.179   5.072  0.00  0.00    -0.344 N 
HETATM   25  C   UNK N   1      25.131  20.248   2.991  0.00  0.00     0.031 A 
HETATM   26  C   UNK N   1      25.530  19.649   3.383  0.00  0.00     0.155 A 
HETATM   27  C   UNK N   1      24.975  19.155   3.728  0.00  0.00     0.208 A 
HETATM   28  C   UNK N   1      24.326  20.126   3.092  0.00  0.00     0.134 A 
HETATM   29  C   UNK N   1      25.477  20.867   2.568  0.00  0.00     0.014 A 
HETATM   30  C   UNK N   1      23.451  19.224   3.718  0.00  0.00     0.246 A 
HETATM   31  C   UNK N   1      25.258  18.509   4.154  0.00  0.00     0.245 A 
HETATM   32  C   UNK N   1      22.819  19.670   3.434  0.00  0.00     0.205 A 
HETATM   33  C   UNK N   1      23.803  17.431   4.912  0.00  0.00     0.160 A 
HETATM   34  C   UNK N   1      22.671  17.031   5.207  0.00  0.00     0.062 A 
HETATM   35  C   UNK N   1      22.915  16.022   5.878  0.00  0.00     0.133 A 
HETATM   36  C   UNK N   1      24.150  15.989   5.870  0.00  0.00     0.131 A 
HETATM   37  C   UNK N   1      22.960  20.344   2.979  0.00  0.00     0.146 A 
HETATM   38  C   UNK N   1      25.387  17.325   4.944  0.00  0.00     0.249 A 
HETATM   39  C   UNK N   1      22.536  18.323   4.344  0.00  0.00     0.208 A 
HETATM   40  C   UNK N   1      23.028  17.203   5.083  0.00  0.00     0.236 A 
HETATM   41  C   UNK N   1      24.294  16.311   5.651  0.00  0.00     0.226 A 
HETATM   42  C   UNK N   1      25.246  16.652   5.399  0.00  0.00     0.169 A 
HETATM   43  C   UNK N   1      21.903  18.769   4.060  0.00  0.00     0.243 A 
HETATM   44  C   UNK N   1      24.044  15.543   6.172  0.00  0.00     0.199 A 
HETATM   45  C   UNK N   1      23.167  18.758   4.037  0.00  0.00     0.183 A 
HETATM   46  C   UNK N   1      24.571  16.264   5.675  0.00  0.00     0.071 A 
HETATM   47  C   UNK N   1      23.488  20.864   2.618  0.00  0.00     0.042 A 
HETATM   48  C   UNK N   1      23.823  16.561   5.494  0.00  0.00     0.179 A 
HETATM   49  C   UNK N   1      24.502  14.968   6.546  0.00  0.00     0.145 A 
HETATM   50  C   UNK N   1      23.021  19.434   3.588  0.00  0.00     0.182 A 
HETATM   51  C   UNK N   1      23.148  16.173   5.770  0.00  0.00     0.241 A 
HETATM   52  C   UNK N   1      25.325  15.004   6.502  0.00  0.00     0.042 A 
HETATM   53  C   UNK N   1      22.245  19.675   3.445  0.00  0.00    -0.027 A 
HETATM   54  C   UNK N   1      24.965  17.349   4.939  0.00  0.00     0.252 A 
HETATM   55  C   UNK N   1      22.100  20.352   2.995  0.00  0.00     0.012 A 
HETATM   56  C   UNK N   1      21.615  19.240   3.751  0.00  0.00     0.012 A 
HETATM   57  C   UNK N   1      25.788  17.281   4.964  0.00  0.00     0.032 A 
HETATM   58  C   UNK N   1      21.325  20.593   2.852  0.00  0.00     0.037 A 
HETATM   59  C   UNK N   1      20.840  19.482   3.608  0.00  0.00     0.037 A 
HETATM   60  C   UNK N   1      20.694  20.158   3.158  0.00  0.00     0.065 A 
HETATM   61  C   UNK N   1      26.258  17.839   4.579  0.00  0.00     0.018 A 
HETATM   62  C   UNK N   1      26.138  16.657   5.374  0.00  0.00     0.018 A 
HETATM   63  C   UNK N   1      27.080  17.772   4.604  0.00  0.00     0.013 A 
HETATM   64  C   UNK N   1      26.960  16.590   5.399  0.00  0.00     0.013 A 
HETATM   65  C   UNK N   1      27.432  17.147   5.014  0.00  0.00    -0.026 A 
HETATM   66  C   UNK N   1      28.254  17.080   5.040  0.00  0.00    -0.026 A 
HETATM   67  C   UNK N   1      28.724  17.638   4.655  0.00  0.00     0.013 A 
HETATM   68  C   UNK N   1      28.604  16.456   5.450  0.00  0.00     0.013 A 
HETATM   69  C   UNK N   1      29.546  17.571   4.680  0.00  0.00     0.013 A 
HETATM   70  C   UNK N   1      29.425  16.389   5.475  0.00  0.00     0.013 A 
HETATM   71  C   UNK N   1      29.897  16.946   5.090  0.00  0.00    -0.026 A 
HETATM   72  C   UNK N   1      30.719  16.879   5.115  0.00  0.00    -0.026 A 
HETATM   73  C   UNK N   1      31.069  16.255   5.525  0.00  0.00     0.015 A 
HETATM   74  C   UNK N   1      31.190  17.436   4.731  0.00  0.00     0.015 A 
HETATM   75  C   UNK N   1      31.891  16.188   5.550  0.00  0.00     0.037 A 
HETATM   76  C   UNK N   1      32.012  17.369   4.756  0.00  0.00     0.037 A 
HETATM   77  C   UNK N   1      32.363  16.744   5.166  0.00  0.00     0.068 A 
HETATM   78  C   UNK N   1      34.357  15.986   5.626  0.00  0.00     0.027 A 
HETATM   79  C   UNK N   1      33.535  16.054   5.601  0.00  0.00     0.175 A 
HETATM   80  C   UNK N   1      34.707  15.362   6.036  0.00  0.00     0.002 A 
HETATM   81  C   UNK N   1      35.529  15.295   6.061  0.00  0.00    -0.004 A 
HETATM   82  C   UNK N   1      35.880  14.671   6.471  0.00  0.00     0.005 A 
HETATM   83  H   UNK N   1      26.732  18.815   3.913  0.00  0.00     0.210 HD
HETATM   84  H   UNK N   1      21.430  15.650   6.163  0.00  0.00     0.210 HD
HETATM   85  H   UNK N   1      22.492  21.582   2.161  0.00  0.00     0.210 HD
HETATM   86  H   UNK N   1      26.849  16.866   5.217  0.00  0.00     0.212 HD
HETATM   87  H   UNK N   1      25.109  15.365   6.265  0.00  0.00     0.210 HD
HETATM   88  H   UNK N   1      24.313  17.872   4.604  0.00  0.00     0.210 HD
HETATM   89  H   UNK N   1      23.169  14.315   7.015  0.00  0.00     0.210 HD
HETATM   90  H   UNK N   1      24.564  19.585   3.449  0.00  0.00     0.210 HD
HETATM   91  H   UNK N   1      19.753  21.168   2.504  0.00  0.00     0.217 HD
HETATM   92  H   UNK N   1      23.932  17.828   4.642  0.00  0.00     0.165 HD
HETATM   93  H   UNK N   1      21.289  19.976   3.266  0.00  0.00     0.163 HD
HETATM   94  H   UNK N   1      21.471  17.378   5.003  0.00  0.00     0.163 HD
HETATM   95  H   UNK N   1      22.592  14.870   6.658  0.00  0.00     0.163 HD
HETATM   96  H   UNK N   1      23.535  17.811   4.663  0.00  0.00     0.163 HD
ENDROOT
TORSDOF 10
ENDMDL
MODEL 5
REMARK VINA RESULT:     -23.2     12.101     14.621
REMARK  10 active torsions:
REMARK  status: ('A' for Active; 'I' for Inactive)
REMARK    1  A    between atoms: C_25  and  C_28 
REMARK    2  A    between atoms: C_27  and  C_31 
REMARK    3  A    between atoms: C_34  and  C_35 
REMARK    4  A    between atoms: C_35  and  C_36 
REMARK    5  A    between atoms: C_38  and  C_42 
REMARK    6  A    between atoms: C_48  and  C_51 
REMARK    7  A    between atoms: C_59  and  C_60 
REMARK    8  A    between atoms: C_64  and  C_65 
REMARK    9  A    between atoms: C_70  and  C_71 
REMARK   10  A    between atoms: C_76  and  C_77 
ROOT
HETATM    1  O   UNK N   1      35.325   9.230  15.171  0.00  0.00    -0.393 OA
HETATM    2  O   UNK N   1      35.705  12.359  15.412  0.00  0.00    -0.271 OA
HETATM    3  O   UNK N   1      35.218   9.935  16.306  0.00  0.00    -0.271 OA
HETATM    4  O   UNK N   1      35.466  14.628  18.481  0.00  0.00    -0.394 OA
HETATM    5  O   UNK N   1      36.231  12.468  12.540  0.00  0.00    -0.393 OA
HETATM    6  O   UNK N   1      35.055  10.254  17.466  0.00  0.00    -0.374 OA
HETATM    7  O   UNK N   1      34.954  11.377  18.887  0.00  0.00    -0.391 OA
HETATM    8  O   UNK N   1      35.614  14.027  17.193  0.00  0.00    -0.272 OA
HETATM    9  O   UNK N   1      35.201  11.772  17.798  0.00  0.00    -0.277 OA
HETATM   10  O   UNK N   1      35.623  11.830  15.472  0.00  0.00    -0.390 OA
HETATM   11  O   UNK N   1      36.128  14.527  14.685  0.00  0.00    -0.271 OA
HETATM   12  O   UNK N   1      34.985  13.473  20.307  0.00  0.00    -0.393 OA
HETATM   13  O   UNK N   1      35.859  11.618  13.985  0.00  0.00    -0.388 OA
HETATM   14  O   UNK N   1      35.565  14.424  17.767  0.00  0.00    -0.271 OA
HETATM   15  O   UNK N   1      35.437  11.787  16.484  0.00  0.00    -0.268 OA
HETATM   16  O   UNK N   1      36.613  14.879  12.228  0.00  0.00    -0.361 OA
HETATM   17  O   UNK N   1      33.673   4.059  20.527  0.00  0.00    -0.351 OA
HETATM   18  N   UNK N   1      35.695  11.256  14.631  0.00  0.00    -0.334 N 
HETATM   19  N   UNK N   1      35.305  12.094  17.459  0.00  0.00    -0.235 N 
HETATM   20  N   UNK N   1      35.348  11.270  16.592  0.00  0.00    -0.331 N 
HETATM   21  N   UNK N   1      36.090  13.297  13.961  0.00  0.00    -0.344 N 
HETATM   22  N   UNK N   1      35.771  13.719  16.078  0.00  0.00    -0.344 N 
HETATM   23  N   UNK N   1      35.312  13.852  18.753  0.00  0.00    -0.344 N 
HETATM   24  N   UNK N   1      35.381  12.261  17.157  0.00  0.00    -0.344 N 
HETATM   25  C   UNK N   1      35.645  10.079  14.020  0.00  0.00     0.031 A 
HETATM   26  C   UNK N   1      35.487   9.957  14.815  0.00  0.00     0.155 A 
HETATM   27  C   UNK N   1      35.517  10.682  15.196  0.00  0.00     0.208 A 
HETATM   28  C   UNK N   1      35.774  10.881  13.906  0.00  0.00     0.134 A 
HETATM   29  C   UNK N   1      35.670   9.497  13.436  0.00  0.00     0.014 A 
HETATM   30  C   UNK N   1      35.804  12.075  14.644  0.00  0.00     0.246 A 
HETATM   31  C   UNK N   1      35.373  10.688  16.008  0.00  0.00     0.245 A 
HETATM   32  C   UNK N   1      35.982  12.478  13.947  0.00  0.00     0.205 A 
HETATM   33  C   UNK N   1      35.484  12.498  16.762  0.00  0.00     0.160 A 
HETATM   34  C   UNK N   1      35.632  13.721  16.857  0.00  0.00     0.062 A 
HETATM   35  C   UNK N   1      35.444  13.917  18.062  0.00  0.00     0.133 A 
HETATM   36  C   UNK N   1      35.215  12.778  18.484  0.00  0.00     0.131 A 
HETATM   37  C   UNK N   1      36.053  12.064  13.237  0.00  0.00     0.146 A 
HETATM   38  C   UNK N   1      35.181  11.064  17.373  0.00  0.00     0.249 A 
HETATM   39  C   UNK N   1      35.841  13.306  15.368  0.00  0.00     0.208 A 
HETATM   40  C   UNK N   1      35.592  13.316  16.775  0.00  0.00     0.236 A 
HETATM   41  C   UNK N   1      35.235  12.508  18.169  0.00  0.00     0.226 A 
HETATM   42  C   UNK N   1      35.111  11.478  18.083  0.00  0.00     0.169 A 
HETATM   43  C   UNK N   1      36.020  13.710  14.671  0.00  0.00     0.243 A 
HETATM   44  C   UNK N   1      35.171  13.063  18.951  0.00  0.00     0.199 A 
HETATM   45  C   UNK N   1      35.789  12.536  15.077  0.00  0.00     0.183 A 
HETATM   46  C   UNK N   1      35.178  12.269  18.307  0.00  0.00     0.071 A 
HETATM   47  C   UNK N   1      36.031  11.354  12.820  0.00  0.00     0.042 A 
HETATM   48  C   UNK N   1      35.356  12.843  17.742  0.00  0.00     0.179 A 
HETATM   49  C   UNK N   1      35.006  12.876  19.737  0.00  0.00     0.145 A 
HETATM   50  C   UNK N   1      35.912  12.388  14.275  0.00  0.00     0.182 A 
HETATM   51  C   UNK N   1      35.423  13.635  17.965  0.00  0.00     0.241 A 
HETATM   52  C   UNK N   1      34.861  12.093  19.953  0.00  0.00     0.042 A 
HETATM   53  C   UNK N   1      36.087  13.011  13.763  0.00  0.00    -0.027 A 
HETATM   54  C   UNK N   1      35.261  11.447  17.216  0.00  0.00     0.252 A 
HETATM   55  C   UNK N   1      36.210  12.863  12.960  0.00  0.00     0.012 A 
HETATM   56  C   UNK N   1      36.139  13.781  14.054  0.00  0.00     0.012 A 
HETATM   57  C   UNK N   1      35.102  10.708  17.547  0.00  0.00     0.032 A 
HETATM   58  C   UNK N   1      36.385  13.486  12.449  0.00  0.00     0.037 A 
HETATM   59  C   UNK N   1      36.315  14.404  13.542  0.00  0.00     0.037 A 
HETATM   60  C   UNK N   1      36.438  14.256  12.740  0.00  0.00     0.065 A 
HETATM   61  C   UNK N   1      35.096  10.036  17.069  0.00  0.00     0.018 A 
HETATM   62  C   UNK N   1      34.950  10.643  18.355  0.00  0.00     0.018 A 
HETATM   63  C   UNK N   1      34.938   9.297  17.400  0.00  0.00     0.013 A 
HETATM   64  C   UNK N   1      34.791   9.904  18.686  0.00  0.00     0.013 A 
HETATM   65  C   UNK N   1      34.785   9.230  18.209  0.00  0.00    -0.026 A 
HETATM   66  C   UNK N   1      34.626   8.492  18.540  0.00  0.00    -0.026 A 
HETATM   67  C   UNK N   1      34.620   7.819  18.063  0.00  0.00     0.013 A 
HETATM   68  C   UNK N   1      34.473   8.426  19.348  0.00  0.00     0.013 A 
HETATM   69  C   UNK N   1      34.461   7.080  18.394  0.00  0.00     0.013 A 
HETATM   70  C   UNK N   1      34.314   7.688  19.679  0.00  0.00     0.013 A 
HETATM   71  C   UNK N   1      34.308   7.015  19.202  0.00  0.00    -0.026 A 
HETATM   72  C   UNK N   1      34.150   6.276  19.533  0.00  0.00    -0.026 A 
HETATM   73  C   UNK N   1      33.997   6.210  20.341  0.00  0.00     0.015 A 
HETATM   74  C   UNK N   1      34.143   5.603  19.057  0.00  0.00     0.015 A 
HETATM   75  C   UNK N   1      33.838   5.471  20.672  0.00  0.00     0.037 A 
HETATM   76  C   UNK N   1      33.984   4.864  19.388  0.00  0.00     0.037 A 
HETATM   77  C   UNK N   1      33.832   4.798  20.196  0.00  0.00     0.068 A 
HETATM   78  C   UNK N   1      33.362   3.255  21.665  0.00  0.00     0.027 A 
HETATM   79  C   UNK N   1      33.520   3.993  21.334  0.00  0.00     0.175 A 
HETATM   80  C   UNK N   1      33.209   3.189  22.474  0.00  0.00     0.002 A 
HETATM   81  C   UNK N   1      33.050   2.450  22.805  0.00  0.00    -0.004 A 
HETATM   82  C   UNK N   1      32.897   2.385  23.613  0.00  0.00     0.005 A 
HETATM   83  H   UNK N   1      35.150   9.185  16.124  0.00  0.00     0.210 HD
HETATM   84  H   UNK N   1      35.661  15.458  18.017  0.00  0.00     0.210 HD
HETATM   85  H   UNK N   1      36.314  11.982  11.706  0.00  0.00     0.210 HD
HETATM   86  H   UNK N   1      34.850   9.892  18.342  0.00  0.00     0.212 HD
HETATM   87  H   UNK N   1      34.952  12.144  19.481  0.00  0.00     0.210 HD
HETATM   88  H   UNK N   1      35.454  11.837  16.427  0.00  0.00     0.210 HD
HETATM   89  H   UNK N   1      35.154  14.393  20.052  0.00  0.00     0.210 HD
HETATM   90  H   UNK N   1      35.653  10.886  14.586  0.00  0.00     0.210 HD
HETATM   91  H   UNK N   1      36.753  14.712  11.316  0.00  0.00     0.217 HD
HETATM   92  H   UNK N   1      35.517  12.211  16.357  0.00  0.00     0.165 HD
HETATM   93  H   UNK N   1      36.304  13.778  13.129  0.00  0.00     0.163 HD
HETATM   94  H   UNK N   1      35.900  14.696  16.094  0.00  0.00     0.163 HD
HETATM   95  H   UNK N   1      35.338  14.700  19.252  0.00  0.00     0.163 HD
HETATM   96  H   UNK N   1      35.587  12.588  16.252  0.00  0.00     0.163 HD
ENDROOT
TORSDOF 10
ENDMDL
MODEL 6
REMARK VINA RESULT:     -23.0      4.405      9.462
REMARK  10 active torsions:
REMARK  status: ('A' for Active; 'I' for Inactive)
REMARK    1  A    between atoms: C_25  and  C_28 
REMARK    2  A    between atoms: C_27  and  C_31 
REMARK    3  A    between atoms: C_34  and  C_35 
REMARK    4  A    between atoms: C_35  and  C_36 
REMARK    5  A    between atoms: C_38  and  C_42 
REMARK    6  A    between atoms: C_48  and  C_51 
REMARK    7  A    between atoms: C_59  and  C_60 
REMARK    8  A    between atoms: C_64  and  C_65 
REMARK    9  A    between atoms: C_70  and  C_71 
REMARK   10  A    between atoms: C_76  and  C_77 
ROOT
HETATM    1  O   UNK N   1      24.424  16.268   6.145  0.00  0.00    -0.393 OA
HETATM    2  O   UNK N   1      22.817  18.123   4.153  0.00  0.00    -0.271 OA
HETATM    3  O   UNK N   1      24.929  17.331   5.504  0.00  0.00    -0.271 OA
HETATM    4  O   UNK N   1      23.971  21.197   2.194  0.00  0.00    -0.394 OA
HETATM    5  O   UNK N   1      20.450  16.466   4.595  0.00  0.00    -0.393 OA
HETATM    6  O   UNK N   1      25.675  18.200   5.099  0.00  0.00    -0.374 OA
HETATM    7  O   UNK N   1      26.168  19.663   4.147  0.00  0.00    -0.391 OA
HETATM    8  O   UNK N   1      23.284  20.099   2.798  0.00  0.00    -0.272 OA
HETATM    9  O   UNK N   1      25.067  19.227   4.095  0.00  0.00    -0.277 OA
HETATM   10  O   UNK N   1      23.169  17.869   4.472  0.00  0.00    -0.390 OA
HETATM   11  O   UNK N   1      20.985  18.873   2.931  0.00  0.00    -0.271 OA
HETATM   12  O   UNK N   1      26.100  21.657   2.590  0.00  0.00    -0.393 OA
HETATM   13  O   UNK N   1      22.098  16.864   4.868  0.00  0.00    -0.388 OA
HETATM   14  O   UNK N   1      23.517  20.659   2.448  0.00  0.00    -0.271 OA
HETATM   15  O   UNK N   1      24.005  18.451   4.319  0.00  0.00    -0.268 OA
HETATM   16  O   UNK N   1      18.812  17.597   3.148  0.00  0.00    -0.361 OA
HETATM   17  O   UNK N   1      31.694  16.642   8.415  0.00  0.00    -0.351 OA
HETATM   18  N   UNK N   1      22.825  17.053   4.979  0.00  0.00    -0.334 N 
HETATM   19  N   UNK N   1      24.609  19.201   3.954  0.00  0.00    -0.235 N 
HETATM   20  N   UNK N   1      24.389  18.233   4.622  0.00  0.00    -0.331 N 
HETATM   21  N   UNK N   1      21.113  17.768   3.827  0.00  0.00    -0.344 N 
HETATM   22  N   UNK N   1      22.567  19.265   3.187  0.00  0.00    -0.344 N 
HETATM   23  N   UNK N   1      24.636  20.935   2.630  0.00  0.00    -0.344 N 
HETATM   24  N   UNK N   1      24.272  19.112   3.904  0.00  0.00    -0.344 N 
HETATM   25  C   UNK N   1      23.013  16.044   5.821  0.00  0.00     0.031 A 
HETATM   26  C   UNK N   1      23.720  16.453   5.755  0.00  0.00     0.155 A 
HETATM   27  C   UNK N   1      23.608  17.077   5.236  0.00  0.00     0.208 A 
HETATM   28  C   UNK N   1      22.460  16.414   5.341  0.00  0.00     0.134 A 
HETATM   29  C   UNK N   1      22.879  15.377   6.287  0.00  0.00     0.014 A 
HETATM   30  C   UNK N   1      22.364  17.508   4.466  0.00  0.00     0.246 A 
HETATM   31  C   UNK N   1      24.256  17.565   5.088  0.00  0.00     0.245 A 
HETATM   32  C   UNK N   1      21.573  17.312   4.339  0.00  0.00     0.205 A 
HETATM   33  C   UNK N   1      23.818  19.005   3.827  0.00  0.00     0.160 A 
HETATM   34  C   UNK N   1      23.191  19.731   3.048  0.00  0.00     0.062 A 
HETATM   35  C   UNK N   1      24.045  20.558   2.712  0.00  0.00     0.133 A 
HETATM   36  C   UNK N   1      25.038  20.188   3.346  0.00  0.00     0.131 A 
HETATM   37  C   UNK N   1      21.242  16.662   4.723  0.00  0.00     0.146 A 
HETATM   38  C   UNK N   1      25.134  18.587   4.611  0.00  0.00     0.249 A 
HETATM   39  C   UNK N   1      22.236  18.614   3.571  0.00  0.00     0.208 A 
HETATM   40  C   UNK N   1      23.358  19.461   3.315  0.00  0.00     0.236 A 
HETATM   41  C   UNK N   1      24.941  19.852   3.570  0.00  0.00     0.226 A 
HETATM   42  C   UNK N   1      25.465  19.237   4.228  0.00  0.00     0.169 A 
HETATM   43  C   UNK N   1      21.445  18.419   3.443  0.00  0.00     0.243 A 
HETATM   44  C   UNK N   1      25.248  20.623   3.086  0.00  0.00     0.199 A 
HETATM   45  C   UNK N   1      22.446  18.019   4.102  0.00  0.00     0.183 A 
HETATM   46  C   UNK N   1      25.189  19.804   3.695  0.00  0.00     0.071 A 
HETATM   47  C   UNK N   1      21.316  16.024   5.239  0.00  0.00     0.042 A 
HETATM   48  C   UNK N   1      24.406  19.780   3.437  0.00  0.00     0.179 A 
HETATM   49  C   UNK N   1      25.986  20.990   3.063  0.00  0.00     0.145 A 
HETATM   50  C   UNK N   1      21.888  17.459   4.337  0.00  0.00     0.182 A 
HETATM   51  C   UNK N   1      24.129  20.346   2.904  0.00  0.00     0.241 A 
HETATM   52  C   UNK N   1      26.610  20.692   3.512  0.00  0.00     0.042 A 
HETATM   53  C   UNK N   1      21.119  17.494   4.039  0.00  0.00    -0.027 A 
HETATM   54  C   UNK N   1      24.787  18.702   4.401  0.00  0.00     0.252 A 
HETATM   55  C   UNK N   1      20.560  16.933   4.274  0.00  0.00     0.012 A 
HETATM   56  C   UNK N   1      20.909  18.089   3.508  0.00  0.00     0.012 A 
HETATM   57  C   UNK N   1      25.478  18.496   4.802  0.00  0.00     0.032 A 
HETATM   58  C   UNK N   1      19.792  16.968   3.977  0.00  0.00     0.037 A 
HETATM   59  C   UNK N   1      20.140  18.123   3.211  0.00  0.00     0.037 A 
HETATM   60  C   UNK N   1      19.582  17.563   3.446  0.00  0.00     0.065 A 
HETATM   61  C   UNK N   1      25.482  17.843   5.306  0.00  0.00     0.018 A 
HETATM   62  C   UNK N   1      26.164  18.943   4.699  0.00  0.00     0.018 A 
HETATM   63  C   UNK N   1      26.173  17.637   5.708  0.00  0.00     0.013 A 
HETATM   64  C   UNK N   1      26.854  18.737   5.101  0.00  0.00     0.013 A 
HETATM   65  C   UNK N   1      26.859  18.084   5.605  0.00  0.00    -0.026 A 
HETATM   66  C   UNK N   1      27.550  17.878   6.007  0.00  0.00    -0.026 A 
HETATM   67  C   UNK N   1      27.555  17.225   6.511  0.00  0.00     0.013 A 
HETATM   68  C   UNK N   1      28.236  18.325   5.904  0.00  0.00     0.013 A 
HETATM   69  C   UNK N   1      28.245  17.018   6.912  0.00  0.00     0.013 A 
HETATM   70  C   UNK N   1      28.926  18.119   6.305  0.00  0.00     0.013 A 
HETATM   71  C   UNK N   1      28.931  17.466   6.809  0.00  0.00    -0.026 A 
HETATM   72  C   UNK N   1      29.622  17.260   7.211  0.00  0.00    -0.026 A 
HETATM   73  C   UNK N   1      30.307  17.707   7.108  0.00  0.00     0.015 A 
HETATM   74  C   UNK N   1      29.627  16.607   7.715  0.00  0.00     0.015 A 
HETATM   75  C   UNK N   1      30.998  17.501   7.509  0.00  0.00     0.037 A 
HETATM   76  C   UNK N   1      30.318  16.401   8.116  0.00  0.00     0.037 A 
HETATM   77  C   UNK N   1      31.004  16.848   8.013  0.00  0.00     0.068 A 
HETATM   78  C   UNK N   1      33.070  16.883   8.714  0.00  0.00     0.027 A 
HETATM   79  C   UNK N   1      32.380  17.089   8.312  0.00  0.00     0.175 A 
HETATM   80  C   UNK N   1      33.756  17.330   8.611  0.00  0.00     0.002 A 
HETATM   81  C   UNK N   1      34.447  17.124   9.013  0.00  0.00    -0.004 A 
HETATM   82  C   UNK N   1      35.132  17.571   8.910  0.00  0.00     0.005 A 
HETATM   83  H   UNK N   1      25.214  16.813   6.004  0.00  0.00     0.210 HD
HETATM   84  H   UNK N   1      23.121  21.374   1.760  0.00  0.00     0.210 HD
HETATM   85  H   UNK N   1      20.061  15.701   5.046  0.00  0.00     0.210 HD
HETATM   86  H   UNK N   1      26.586  18.525   5.169  0.00  0.00     0.212 HD
HETATM   87  H   UNK N   1      26.203  20.437   3.564  0.00  0.00     0.210 HD
HETATM   88  H   UNK N   1      23.931  18.444   4.298  0.00  0.00     0.210 HD
HETATM   89  H   UNK N   1      25.366  22.008   2.061  0.00  0.00     0.210 HD
HETATM   90  H   UNK N   1      23.002  16.823   5.218  0.00  0.00     0.210 HD
HETATM   91  H   UNK N   1      18.178  16.961   3.415  0.00  0.00     0.217 HD
HETATM   92  H   UNK N   1      23.659  18.606   4.077  0.00  0.00     0.165 HD
HETATM   93  H   UNK N   1      20.169  17.534   3.675  0.00  0.00     0.163 HD
HETATM   94  H   UNK N   1      22.018  19.808   2.576  0.00  0.00     0.163 HD
HETATM   95  H   UNK N   1      24.548  21.698   2.012  0.00  0.00     0.163 HD
HETATM   96  H   UNK N   1      23.358  18.750   3.861  0.00  0.00     0.163 HD
ENDROOT
TORSDOF 10
ENDMDL
MODEL 7
REMARK VINA RESULT:     -23.0     12.962     15.000
REMARK  10 active torsions:
REMARK  status: ('A' for Active; 'I' for Inactive)
REMARK    1  A    between atoms: C_25  and  C_28 
REMARK    2  A    between atoms: C_27  and  C_31 
REMARK    3  A    between atoms: C_34  and  C_35 
REMARK    4  A    between atoms: C_35  and  C_36 
REMARK    5  A    between atoms: C_38  and  C_42 
REMARK    6  A    between atoms: C_48  and  C_51 
REMARK    7  A    between atoms: C_59  and  C_60 
REMARK    8  A    between atoms: C_64  and  C_65 
REMARK    9  A    between atoms: C_70  and  C_71 
REMARK   10  A    between atoms: C_76  and  C_77 
ROOT
HETATM    1  O   UNK N   1      30.546  26.476  -3.400  0.00  0.00    -0.393 OA
HETATM    2  O   UNK N   1      27.588  27.272  -4.181  0.00  0.00    -0.271 OA
HETATM    3  O   UNK N   1      29.642  25.648  -3.943  0.00  0.00    -0.271 OA
HETATM    4  O   UNK N   1      24.805  25.155  -5.729  0.00  0.00    -0.394 OA
HETATM    5  O   UNK N   1      28.118  29.984  -3.230  0.00  0.00    -0.393 OA
HETATM    6  O   UNK N   1      29.089  24.672  -4.408  0.00  0.00    -0.374 OA
HETATM    7  O   UNK N   1      27.734  23.714  -5.141  0.00  0.00    -0.391 OA
HETATM    8  O   UNK N   1      25.648  26.158  -5.157  0.00  0.00    -0.272 OA
HETATM    9  O   UNK N   1      27.608  24.858  -4.859  0.00  0.00    -0.277 OA
HETATM   10  O   UNK N   1      28.065  27.044  -4.083  0.00  0.00    -0.390 OA
HETATM   11  O   UNK N   1      25.735  28.658  -4.418  0.00  0.00    -0.271 OA
HETATM   12  O   UNK N   1      25.476  23.076  -6.091  0.00  0.00    -0.393 OA
HETATM   13  O   UNK N   1      28.590  28.360  -3.531  0.00  0.00    -0.388 OA
HETATM   14  O   UNK N   1      25.152  25.752  -5.441  0.00  0.00    -0.271 OA
HETATM   15  O   UNK N   1      27.882  26.087  -4.417  0.00  0.00    -0.268 OA
HETATM   16  O   UNK N   1      25.949  31.062  -3.662  0.00  0.00    -0.361 OA
HETATM   17  O   UNK N   1      34.167  19.797  -4.064  0.00  0.00    -0.351 OA
HETATM   18  N   UNK N   1      28.783  27.640  -3.669  0.00  0.00    -0.334 N 
HETATM   19  N   UNK N   1      27.383  25.279  -4.816  0.00  0.00    -0.235 N 
HETATM   20  N   UNK N   1      28.339  25.817  -4.338  0.00  0.00    -0.331 N 
HETATM   21  N   UNK N   1      27.037  28.930  -3.897  0.00  0.00    -0.344 N 
HETATM   22  N   UNK N   1      26.178  27.096  -4.710  0.00  0.00    -0.344 N 
HETATM   23  N   UNK N   1      25.466  24.647  -5.648  0.00  0.00    -0.344 N 
HETATM   24  N   UNK N   1      27.294  25.614  -4.751  0.00  0.00    -0.344 N 
HETATM   25  C   UNK N   1      30.011  27.825  -3.199  0.00  0.00     0.031 A 
HETATM   26  C   UNK N   1      29.949  27.044  -3.442  0.00  0.00     0.155 A 
HETATM   27  C   UNK N   1      29.192  26.926  -3.733  0.00  0.00     0.208 A 
HETATM   28  C   UNK N   1      29.292  28.193  -3.339  0.00  0.00     0.134 A 
HETATM   29  C   UNK N   1      30.680  28.179  -2.871  0.00  0.00     0.014 A 
HETATM   30  C   UNK N   1      28.020  27.895  -3.857  0.00  0.00     0.246 A 
HETATM   31  C   UNK N   1      29.008  26.172  -4.010  0.00  0.00     0.245 A 
HETATM   32  C   UNK N   1      27.800  28.676  -3.710  0.00  0.00     0.205 A 
HETATM   33  C   UNK N   1      27.162  26.060  -4.670  0.00  0.00     0.160 A 
HETATM   34  C   UNK N   1      26.005  26.371  -4.975  0.00  0.00     0.062 A 
HETATM   35  C   UNK N   1      25.558  25.312  -5.428  0.00  0.00     0.133 A 
HETATM   36  C   UNK N   1      26.523  24.547  -5.317  0.00  0.00     0.131 A 
HETATM   37  C   UNK N   1      28.340  29.202  -3.377  0.00  0.00     0.146 A 
HETATM   38  C   UNK N   1      28.358  25.023  -4.557  0.00  0.00     0.249 A 
HETATM   39  C   UNK N   1      26.718  27.623  -4.377  0.00  0.00     0.208 A 
HETATM   40  C   UNK N   1      26.399  26.315  -4.857  0.00  0.00     0.236 A 
HETATM   41  C   UNK N   1      26.842  24.753  -5.150  0.00  0.00     0.226 A 
HETATM   42  C   UNK N   1      27.818  24.496  -4.890  0.00  0.00     0.169 A 
HETATM   43  C   UNK N   1      26.496  28.404  -4.231  0.00  0.00     0.243 A 
HETATM   44  C   UNK N   1      26.155  24.206  -5.539  0.00  0.00     0.199 A 
HETATM   45  C   UNK N   1      27.497  27.642  -4.106  0.00  0.00     0.183 A 
HETATM   46  C   UNK N   1      27.034  24.546  -5.143  0.00  0.00     0.071 A 
HETATM   47  C   UNK N   1      29.091  29.360  -3.076  0.00  0.00     0.042 A 
HETATM   48  C   UNK N   1      26.625  25.260  -5.079  0.00  0.00     0.179 A 
HETATM   49  C   UNK N   1      26.155  23.412  -5.764  0.00  0.00     0.145 A 
HETATM   50  C   UNK N   1      27.811  28.341  -3.801  0.00  0.00     0.182 A 
HETATM   51  C   UNK N   1      25.841  25.310  -5.332  0.00  0.00     0.241 A 
HETATM   52  C   UNK N   1      26.835  22.955  -5.663  0.00  0.00     0.042 A 
HETATM   53  C   UNK N   1      27.345  29.021  -3.767  0.00  0.00    -0.027 A 
HETATM   54  C   UNK N   1      28.037  25.294  -4.589  0.00  0.00     0.252 A 
HETATM   55  C   UNK N   1      27.659  29.721  -3.461  0.00  0.00     0.012 A 
HETATM   56  C   UNK N   1      26.566  29.002  -4.037  0.00  0.00     0.012 A 
HETATM   57  C   UNK N   1      28.650  24.745  -4.537  0.00  0.00     0.032 A 
HETATM   58  C   UNK N   1      27.194  30.401  -3.426  0.00  0.00     0.037 A 
HETATM   59  C   UNK N   1      26.101  29.683  -4.002  0.00  0.00     0.037 A 
HETATM   60  C   UNK N   1      26.415  30.382  -3.697  0.00  0.00     0.065 A 
HETATM   61  C   UNK N   1      29.380  24.970  -4.224  0.00  0.00     0.018 A 
HETATM   62  C   UNK N   1      28.533  23.970  -4.796  0.00  0.00     0.018 A 
HETATM   63  C   UNK N   1      29.993  24.420  -4.172  0.00  0.00     0.013 A 
HETATM   64  C   UNK N   1      29.146  23.421  -4.744  0.00  0.00     0.013 A 
HETATM   65  C   UNK N   1      29.876  23.645  -4.431  0.00  0.00    -0.026 A 
HETATM   66  C   UNK N   1      30.489  23.095  -4.379  0.00  0.00    -0.026 A 
HETATM   67  C   UNK N   1      31.219  23.321  -4.067  0.00  0.00     0.013 A 
HETATM   68  C   UNK N   1      30.372  22.321  -4.639  0.00  0.00     0.013 A 
HETATM   69  C   UNK N   1      31.832  22.771  -4.014  0.00  0.00     0.013 A 
HETATM   70  C   UNK N   1      30.985  21.772  -4.586  0.00  0.00     0.013 A 
HETATM   71  C   UNK N   1      31.715  21.997  -4.274  0.00  0.00    -0.026 A 
HETATM   72  C   UNK N   1      32.328  21.447  -4.221  0.00  0.00    -0.026 A 
HETATM   73  C   UNK N   1      32.211  20.673  -4.481  0.00  0.00     0.015 A 
HETATM   74  C   UNK N   1      33.058  21.671  -3.909  0.00  0.00     0.015 A 
HETATM   75  C   UNK N   1      32.824  20.123  -4.428  0.00  0.00     0.037 A 
HETATM   76  C   UNK N   1      33.671  21.121  -3.857  0.00  0.00     0.037 A 
HETATM   77  C   UNK N   1      33.553  20.347  -4.117  0.00  0.00     0.068 A 
HETATM   78  C   UNK N   1      34.663  18.474  -4.271  0.00  0.00     0.027 A 
HETATM   79  C   UNK N   1      34.050  19.023  -4.323  0.00  0.00     0.175 A 
HETATM   80  C   UNK N   1      34.546  17.699  -4.530  0.00  0.00     0.002 A 
HETATM   81  C   UNK N   1      35.159  17.150  -4.478  0.00  0.00    -0.004 A 
HETATM   82  C   UNK N   1      35.042  16.375  -4.738  0.00  0.00     0.005 A 
HETATM   83  H   UNK N   1      30.378  25.573  -3.714  0.00  0.00     0.210 HD
HETATM   84  H   UNK N   1      24.138  25.858  -5.756  0.00  0.00     0.210 HD
HETATM   85  H   UNK N   1      28.753  30.603  -2.839  0.00  0.00     0.210 HD
HETATM   86  H   UNK N   1      29.233  23.737  -4.624  0.00  0.00     0.212 HD
HETATM   87  H   UNK N   1      26.892  23.411  -5.514  0.00  0.00     0.210 HD
HETATM   88  H   UNK N   1      27.849  26.156  -4.408  0.00  0.00     0.210 HD
HETATM   89  H   UNK N   1      24.677  23.613  -6.210  0.00  0.00     0.210 HD
HETATM   90  H   UNK N   1      29.137  27.561  -3.571  0.00  0.00     0.210 HD
HETATM   91  H   UNK N   1      26.305  31.857  -3.315  0.00  0.00     0.217 HD
HETATM   92  H   UNK N   1      27.517  26.344  -4.468  0.00  0.00     0.165 HD
HETATM   93  H   UNK N   1      26.773  29.863  -3.722  0.00  0.00     0.163 HD
HETATM   94  H   UNK N   1      25.268  27.400  -4.934  0.00  0.00     0.163 HD
HETATM   95  H   UNK N   1      24.569  24.459  -6.006  0.00  0.00     0.163 HD
HETATM   96  H   UNK N   1      27.190  26.565  -4.517  0.00  0.00     0.163 HD
ENDROOT
TORSDOF 10
ENDMDL
MODEL 8
REMARK VINA RESULT:     -22.8      9.885     13.106
REMARK  10 active torsions:
REMARK  status: ('A' for Active; 'I' for Inactive)
REMARK    1  A    between atoms: C_25  and  C_28 
REMARK    2  A    between atoms: C_27  and  C_31 
REMARK    3  A    between atoms: C_34  and  C_35 
REMARK    4  A    between atoms: C_35  and  C_36 
REMARK    5  A    between atoms: C_38  and  C_42 
REMARK    6  A    between atoms: C_48  and  C_51 
REMARK    7  A    between atoms: C_59  and  C_60 
REMARK    8  A    between atoms: C_64  and  C_65 
REMARK    9  A    between atoms: C_70  and  C_71 
REMARK   10  A    between atoms: C_76  and  C_77 
ROOT
HETATM    1  O   UNK N   1      34.182  10.058  13.824  0.00  0.00    -0.393 OA
HETATM    2  O   UNK N   1      35.336  12.731  12.594  0.00  0.00    -0.271 OA
HETATM    3  O   UNK N   1      34.766  11.040  14.525  0.00  0.00    -0.271 OA
HETATM    4  O   UNK N   1      37.041  15.688  14.319  0.00  0.00    -0.394 OA
HETATM    5  O   UNK N   1      34.512  11.812   9.946  0.00  0.00    -0.393 OA
HETATM    6  O   UNK N   1      35.225  11.712  15.426  0.00  0.00    -0.374 OA
HETATM    7  O   UNK N   1      36.039  13.140  16.192  0.00  0.00    -0.391 OA
HETATM    8  O   UNK N   1      36.447  14.737  13.433  0.00  0.00    -0.272 OA
HETATM    9  O   UNK N   1      35.849  13.084  15.024  0.00  0.00    -0.277 OA
HETATM   10  O   UNK N   1      35.171  12.315  12.893  0.00  0.00    -0.390 OA
HETATM   11  O   UNK N   1      35.867  14.270  10.932  0.00  0.00    -0.271 OA
HETATM   12  O   UNK N   1      37.190  15.374  16.506  0.00  0.00    -0.393 OA
HETATM   13  O   UNK N   1      34.651  11.616  11.646  0.00  0.00    -0.388 OA
HETATM   14  O   UNK N   1      36.756  15.268  13.769  0.00  0.00    -0.271 OA
HETATM   15  O   UNK N   1      35.460  12.635  13.828  0.00  0.00    -0.268 OA
HETATM   16  O   UNK N   1      35.252  13.697   8.547  0.00  0.00    -0.361 OA
HETATM   17  O   UNK N   1      34.002   7.663  21.062  0.00  0.00    -0.351 OA
HETATM   18  N   UNK N   1      34.720  11.544  12.398  0.00  0.00    -0.334 N 
HETATM   19  N   UNK N   1      35.859  13.232  14.568  0.00  0.00    -0.235 N 
HETATM   20  N   UNK N   1      35.313  12.245  14.166  0.00  0.00    -0.331 N 
HETATM   21  N   UNK N   1      35.225  12.997  10.848  0.00  0.00    -0.344 N 
HETATM   22  N   UNK N   1      36.006  14.091  12.567  0.00  0.00    -0.344 N 
HETATM   23  N   UNK N   1      36.854  15.141  14.925  0.00  0.00    -0.344 N 
HETATM   24  N   UNK N   1      35.826  13.264  14.218  0.00  0.00    -0.344 N 
HETATM   25  C   UNK N   1      34.130  10.355  12.391  0.00  0.00     0.031 A 
HETATM   26  C   UNK N   1      34.326  10.534  13.166  0.00  0.00     0.155 A 
HETATM   27  C   UNK N   1      34.691  11.268  13.175  0.00  0.00     0.208 A 
HETATM   28  C   UNK N   1      34.373  10.979  11.916  0.00  0.00     0.134 A 
HETATM   29  C   UNK N   1      33.753   9.669  12.132  0.00  0.00     0.014 A 
HETATM   30  C   UNK N   1      35.007  12.226  12.031  0.00  0.00     0.246 A 
HETATM   31  C   UNK N   1      34.937  11.558  13.906  0.00  0.00     0.245 A 
HETATM   32  C   UNK N   1      34.938  12.315  11.214  0.00  0.00     0.205 A 
HETATM   33  C   UNK N   1      35.789  13.320  13.750  0.00  0.00     0.160 A 
HETATM   34  C   UNK N   1      36.240  14.366  13.271  0.00  0.00     0.062 A 
HETATM   35  C   UNK N   1      36.670  14.952  14.270  0.00  0.00     0.133 A 
HETATM   36  C   UNK N   1      36.402  14.158  15.178  0.00  0.00     0.131 A 
HETATM   37  C   UNK N   1      34.581  11.723  10.763  0.00  0.00     0.146 A 
HETATM   38  C   UNK N   1      35.477  12.349  14.967  0.00  0.00     0.249 A 
HETATM   39  C   UNK N   1      35.650  13.499  12.116  0.00  0.00     0.208 A 
HETATM   40  C   UNK N   1      36.076  14.002  13.384  0.00  0.00     0.236 A 
HETATM   41  C   UNK N   1      36.215  13.824  15.018  0.00  0.00     0.226 A 
HETATM   42  C   UNK N   1      35.833  12.941  15.418  0.00  0.00     0.169 A 
HETATM   43  C   UNK N   1      35.581  13.589  11.299  0.00  0.00     0.243 A 
HETATM   44  C   UNK N   1      36.641  14.558  15.468  0.00  0.00     0.199 A 
HETATM   45  C   UNK N   1      35.296  12.760  12.210  0.00  0.00     0.183 A 
HETATM   46  C   UNK N   1      36.174  13.675  15.254  0.00  0.00     0.071 A 
HETATM   47  C   UNK N   1      34.210  10.988  10.715  0.00  0.00     0.042 A 
HETATM   48  C   UNK N   1      36.202  13.951  14.477  0.00  0.00     0.179 A 
HETATM   49  C   UNK N   1      36.813  14.680  16.266  0.00  0.00     0.145 A 
HETATM   50  C   UNK N   1      35.005  12.356  11.553  0.00  0.00     0.182 A 
HETATM   51  C   UNK N   1      36.543  14.685  14.313  0.00  0.00     0.241 A 
HETATM   52  C   UNK N   1      36.607  14.108  16.824  0.00  0.00     0.042 A 
HETATM   53  C   UNK N   1      35.067  12.691  10.801  0.00  0.00    -0.027 A 
HETATM   54  C   UNK N   1      35.562  12.611  14.647  0.00  0.00     0.252 A 
HETATM   55  C   UNK N   1      34.774  12.287  10.143  0.00  0.00     0.012 A 
HETATM   56  C   UNK N   1      35.420  13.431  10.707  0.00  0.00     0.012 A 
HETATM   57  C   UNK N   1      35.406  12.116  15.289  0.00  0.00     0.032 A 
HETATM   58  C   UNK N   1      34.836  12.622   9.393  0.00  0.00     0.037 A 
HETATM   59  C   UNK N   1      35.481  13.765   9.956  0.00  0.00     0.037 A 
HETATM   60  C   UNK N   1      35.190  13.361   9.299  0.00  0.00     0.065 A 
HETATM   61  C   UNK N   1      35.030  11.392  15.168  0.00  0.00     0.018 A 
HETATM   62  C   UNK N   1      35.626  12.346  16.050  0.00  0.00     0.018 A 
HETATM   63  C   UNK N   1      34.874  10.897  15.810  0.00  0.00     0.013 A 
HETATM   64  C   UNK N   1      35.470  11.851  16.692  0.00  0.00     0.013 A 
HETATM   65  C   UNK N   1      35.094  11.126  16.572  0.00  0.00    -0.026 A 
HETATM   66  C   UNK N   1      34.938  10.631  17.213  0.00  0.00    -0.026 A 
HETATM   67  C   UNK N   1      34.562   9.907  17.093  0.00  0.00     0.013 A 
HETATM   68  C   UNK N   1      35.157  10.861  17.975  0.00  0.00     0.013 A 
HETATM   69  C   UNK N   1      34.406   9.412  17.734  0.00  0.00     0.013 A 
HETATM   70  C   UNK N   1      35.001  10.367  18.615  0.00  0.00     0.013 A 
HETATM   71  C   UNK N   1      34.625   9.642  18.496  0.00  0.00    -0.026 A 
HETATM   72  C   UNK N   1      34.469   9.147  19.137  0.00  0.00    -0.026 A 
HETATM   73  C   UNK N   1      34.689   9.377  19.898  0.00  0.00     0.015 A 
HETATM   74  C   UNK N   1      34.094   8.423  19.018  0.00  0.00     0.015 A 
HETATM   75  C   UNK N   1      34.533   8.882  20.540  0.00  0.00     0.037 A 
HETATM   76  C   UNK N   1      33.938   7.928  19.659  0.00  0.00     0.037 A 
HETATM   77  C   UNK N   1      34.158   8.158  20.421  0.00  0.00     0.068 A 
HETATM   78  C   UNK N   1      34.065   7.397  22.464  0.00  0.00     0.027 A 
HETATM   79  C   UNK N   1      34.221   7.892  21.823  0.00  0.00     0.175 A 
HETATM   80  C   UNK N   1      34.285   7.627  23.226  0.00  0.00     0.002 A 
HETATM   81  C   UNK N   1      34.129   7.132  23.867  0.00  0.00    -0.004 A 
HETATM   82  C   UNK N   1      34.349   7.362  24.628  0.00  0.00     0.005 A 
HETATM   83  H   UNK N   1      34.452  10.355  14.707  0.00  0.00     0.210 HD
HETATM   84  H   UNK N   1      37.189  16.211  13.516  0.00  0.00     0.210 HD
HETATM   85  H   UNK N   1      34.093  11.117   9.416  0.00  0.00     0.210 HD
HETATM   86  H   UNK N   1      35.362  11.720  16.386  0.00  0.00     0.212 HD
HETATM   87  H   UNK N   1      36.482  13.984  16.374  0.00  0.00     0.210 HD
HETATM   88  H   UNK N   1      35.460  12.656  13.754  0.00  0.00     0.210 HD
HETATM   89  H   UNK N   1      37.432  16.046  15.849  0.00  0.00     0.210 HD
HETATM   90  H   UNK N   1      34.579  11.222  12.529  0.00  0.00     0.210 HD
HETATM   91  H   UNK N   1      34.920  13.238   7.800  0.00  0.00     0.217 HD
HETATM   92  H   UNK N   1      35.568  12.941  13.517  0.00  0.00     0.165 HD
HETATM   93  H   UNK N   1      35.141  13.103   9.873  0.00  0.00     0.163 HD
HETATM   94  H   UNK N   1      36.348  14.904  12.129  0.00  0.00     0.163 HD
HETATM   95  H   UNK N   1      37.298  16.018  14.983  0.00  0.00     0.163 HD
HETATM   96  H   UNK N   1      35.667  13.216  13.248  0.00  0.00     0.163 HD
ENDROOT
TORSDOF 10
ENDMDL
MODEL 9
REMARK VINA RESULT:     -22.8      3.125      7.884
REMARK  10 active torsions:
REMARK  status: ('A' for Active; 'I' for Inactive)
REMARK    1  A    between atoms: C_25  and  C_28 
REMARK    2  A    between atoms: C_27  and  C_31 
REMARK    3  A    between atoms: C_34  and  C_35 
REMARK    4  A    between atoms: C_35  and  C_36 
REMARK    5  A    between atoms: C_38  and  C_42 
REMARK    6  A    between atoms: C_48  and  C_51 
REMARK    7  A    between atoms: C_59  and  C_60 
REMARK    8  A    between atoms: C_64  and  C_65 
REMARK    9  A    between atoms: C_70  and  C_71 
REMARK   10  A    between atoms: C_76  and  C_77 
ROOT
HETATM    1  O   UNK N   1      29.860  17.851   8.687  0.00  0.00    -0.393 OA
HETATM    2  O   UNK N   1      28.846  18.074   5.701  0.00  0.00    -0.271 OA
HETATM    3  O   UNK N   1      30.361  17.166   7.649  0.00  0.00    -0.271 OA
HETATM    4  O   UNK N   1      30.063  16.270   2.557  0.00  0.00    -0.394 OA
HETATM    5  O   UNK N   1      26.866  20.040   6.571  0.00  0.00    -0.393 OA
HETATM    6  O   UNK N   1      31.024  16.417   6.959  0.00  0.00    -0.374 OA
HETATM    7  O   UNK N   1      31.560  15.591   5.437  0.00  0.00    -0.391 OA
HETATM    8  O   UNK N   1      29.420  17.070   3.551  0.00  0.00    -0.272 OA
HETATM    9  O   UNK N   1      30.677  16.380   5.439  0.00  0.00    -0.277 OA
HETATM   10  O   UNK N   1      29.085  17.968   6.172  0.00  0.00    -0.390 OA
HETATM   11  O   UNK N   1      27.539  18.837   3.935  0.00  0.00    -0.271 OA
HETATM   12  O   UNK N   1      31.730  14.885   3.011  0.00  0.00    -0.393 OA
HETATM   13  O   UNK N   1      28.161  18.952   6.872  0.00  0.00    -0.388 OA
HETATM   14  O   UNK N   1      29.658  16.729   2.988  0.00  0.00    -0.271 OA
HETATM   15  O   UNK N   1      29.784  17.275   5.869  0.00  0.00    -0.268 OA
HETATM   16  O   UNK N   1      25.749  20.550   4.439  0.00  0.00    -0.361 OA
HETATM   17  O   UNK N   1      35.420  13.570  11.674  0.00  0.00    -0.351 OA
HETATM   18  N   UNK N   1      28.733  18.468   6.989  0.00  0.00    -0.334 N 
HETATM   19  N   UNK N   1      30.326  16.650   5.254  0.00  0.00    -0.235 N 
HETATM   20  N   UNK N   1      30.052  17.137   6.313  0.00  0.00    -0.331 N 
HETATM   21  N   UNK N   1      27.514  19.176   5.322  0.00  0.00    -0.344 N 
HETATM   22  N   UNK N   1      28.783  17.790   4.213  0.00  0.00    -0.344 N 
HETATM   23  N   UNK N   1      30.538  15.989   3.185  0.00  0.00    -0.344 N 
HETATM   24  N   UNK N   1      30.060  16.876   5.201  0.00  0.00    -0.344 N 
HETATM   25  C   UNK N   1      28.764  18.737   8.288  0.00  0.00     0.031 A 
HETATM   26  C   UNK N   1      29.347  18.182   8.132  0.00  0.00     0.155 A 
HETATM   27  C   UNK N   1      29.331  18.013   7.330  0.00  0.00     0.208 A 
HETATM   28  C   UNK N   1      28.386  18.914   7.583  0.00  0.00     0.134 A 
HETATM   29  C   UNK N   1      28.589  19.062   9.026  0.00  0.00     0.014 A 
HETATM   30  C   UNK N   1      28.435  18.560   6.225  0.00  0.00     0.246 A 
HETATM   31  C   UNK N   1      29.876  17.462   7.050  0.00  0.00     0.245 A 
HETATM   32  C   UNK N   1      27.812  19.084   6.086  0.00  0.00     0.205 A 
HETATM   33  C   UNK N   1      29.704  17.174   5.116  0.00  0.00     0.160 A 
HETATM   34  C   UNK N   1      29.308  17.261   3.948  0.00  0.00     0.062 A 
HETATM   35  C   UNK N   1      30.048  16.466   3.359  0.00  0.00     0.133 A 
HETATM   36  C   UNK N   1      30.761  16.038   4.273  0.00  0.00     0.131 A 
HETATM   37  C   UNK N   1      27.489  19.516   6.710  0.00  0.00     0.146 A 
HETATM   38  C   UNK N   1      30.656  16.581   6.240  0.00  0.00     0.249 A 
HETATM   39  C   UNK N   1      28.460  18.221   4.837  0.00  0.00     0.208 A 
HETATM   40  C   UNK N   1      29.405  17.266   4.352  0.00  0.00     0.236 A 
HETATM   41  C   UNK N   1      30.650  16.219   4.630  0.00  0.00     0.226 A 
HETATM   42  C   UNK N   1      30.980  16.150   5.615  0.00  0.00     0.169 A 
HETATM   43  C   UNK N   1      27.837  18.745   4.697  0.00  0.00     0.243 A 
HETATM   44  C   UNK N   1      30.968  15.757   3.850  0.00  0.00     0.199 A 
HETATM   45  C   UNK N   1      28.553  18.323   5.650  0.00  0.00     0.183 A 
HETATM   46  C   UNK N   1      30.833  16.095   4.805  0.00  0.00     0.071 A 
HETATM   47  C   UNK N   1      27.474  19.711   7.511  0.00  0.00     0.042 A 
HETATM   48  C   UNK N   1      30.236  16.551   4.464  0.00  0.00     0.179 A 
HETATM   49  C   UNK N   1      31.569  15.199   3.758  0.00  0.00     0.145 A 
HETATM   50  C   UNK N   1      28.068  18.850   6.059  0.00  0.00     0.182 A 
HETATM   51  C   UNK N   1      30.088  16.497   3.653  0.00  0.00     0.241 A 
HETATM   52  C   UNK N   1      32.010  14.955   4.411  0.00  0.00     0.042 A 
HETATM   53  C   UNK N   1      27.488  19.275   5.653  0.00  0.00    -0.027 A 
HETATM   54  C   UNK N   1      30.406  16.735   5.937  0.00  0.00     0.252 A 
HETATM   55  C   UNK N   1      27.002  19.803   6.062  0.00  0.00     0.012 A 
HETATM   56  C   UNK N   1      27.394  19.173   4.840  0.00  0.00     0.012 A 
HETATM   57  C   UNK N   1      30.907  16.419   6.511  0.00  0.00     0.032 A 
HETATM   58  C   UNK N   1      26.422  20.227   5.658  0.00  0.00     0.037 A 
HETATM   59  C   UNK N   1      26.814  19.598   4.436  0.00  0.00     0.037 A 
HETATM   60  C   UNK N   1      26.329  20.125   4.845  0.00  0.00     0.065 A 
HETATM   61  C   UNK N   1      30.838  16.660   7.297  0.00  0.00     0.018 A 
HETATM   62  C   UNK N   1      31.477  15.862   6.298  0.00  0.00     0.018 A 
HETATM   63  C   UNK N   1      31.340  16.344   7.871  0.00  0.00     0.013 A 
HETATM   64  C   UNK N   1      31.979  15.545   6.872  0.00  0.00     0.013 A 
HETATM   65  C   UNK N   1      31.910  15.786   7.658  0.00  0.00    -0.026 A 
HETATM   66  C   UNK N   1      32.412  15.469   8.232  0.00  0.00    -0.026 A 
HETATM   67  C   UNK N   1      32.342  15.711   9.018  0.00  0.00     0.013 A 
HETATM   68  C   UNK N   1      32.982  14.912   8.019  0.00  0.00     0.013 A 
HETATM   69  C   UNK N   1      32.844  15.394   9.592  0.00  0.00     0.013 A 
HETATM   70  C   UNK N   1      33.482  14.596   8.593  0.00  0.00     0.013 A 
HETATM   71  C   UNK N   1      33.414  14.837   9.379  0.00  0.00    -0.026 A 
HETATM   72  C   UNK N   1      33.915  14.520   9.953  0.00  0.00    -0.026 A 
HETATM   73  C   UNK N   1      34.485  13.963   9.740  0.00  0.00     0.015 A 
HETATM   74  C   UNK N   1      33.847  14.760  10.739  0.00  0.00     0.015 A 
HETATM   75  C   UNK N   1      34.987  13.646  10.314  0.00  0.00     0.037 A 
HETATM   76  C   UNK N   1      34.349  14.444  11.313  0.00  0.00     0.037 A 
HETATM   77  C   UNK N   1      34.919  13.887  11.100  0.00  0.00     0.068 A 
HETATM   78  C   UNK N   1      36.491  12.697  12.035  0.00  0.00     0.027 A 
HETATM   79  C   UNK N   1      35.990  13.013  11.462  0.00  0.00     0.175 A 
HETATM   80  C   UNK N   1      37.061  12.140  11.823  0.00  0.00     0.002 A 
HETATM   81  C   UNK N   1      37.562  11.823  12.396  0.00  0.00    -0.004 A 
HETATM   82  C   UNK N   1      38.132  11.266  12.184  0.00  0.00     0.005 A 
HETATM   83  H   UNK N   1      30.520  17.197   8.406  0.00  0.00     0.210 HD
HETATM   84  H   UNK N   1      29.437  16.688   1.944  0.00  0.00     0.210 HD
HETATM   85  H   UNK N   1      26.486  20.546   7.304  0.00  0.00     0.210 HD
HETATM   86  H   UNK N   1      31.751  15.777   6.999  0.00  0.00     0.212 HD
HETATM   87  H   UNK N   1      31.673  15.282   4.524  0.00  0.00     0.210 HD
HETATM   88  H   UNK N   1      29.727  17.320   5.842  0.00  0.00     0.210 HD
HETATM   89  H   UNK N   1      31.212  15.172   2.243  0.00  0.00     0.210 HD
HETATM   90  H   UNK N   1      28.843  18.453   7.348  0.00  0.00     0.210 HD
HETATM   91  H   UNK N   1      25.196  21.149   4.903  0.00  0.00     0.217 HD
HETATM   92  H   UNK N   1      29.539  17.414   5.519  0.00  0.00     0.165 HD
HETATM   93  H   UNK N   1      26.771  19.801   5.157  0.00  0.00     0.163 HD
HETATM   94  H   UNK N   1      28.427  17.900   3.302  0.00  0.00     0.163 HD
HETATM   95  H   UNK N   1      30.556  15.754   2.229  0.00  0.00     0.163 HD
HETATM   96  H   UNK N   1      29.326  17.532   5.204  0.00  0.00     0.163 HD
ENDROOT
TORSDOF 10
ENDMDL
