MODEL 1
REMARK VINA RESULT:      -7.1      0.000      0.000
REMARK  2 active torsions:
REMARK  status: ('A' for Active; 'I' for Inactive)
REMARK    1  A    between atoms: C_5  and  C_6 
REMARK    2  A    between atoms: C_5  and  C_7 
ROOT
HETATM    1  O   UNK N   1      33.269  15.169   8.511  0.00  0.00    -0.269 OA
HETATM    2  O   UNK N   1      35.324  19.099   8.570  0.00  0.00    -0.247 OA
HETATM    3  N   UNK N   1      33.486  18.443   7.431  0.00  0.00    -0.317 N 
HETATM    4  N   UNK N   1      34.546  17.001   8.786  0.00  0.00    -0.277 N 
HETATM    5  C   UNK N   1      32.713  17.215   7.302  0.00  0.00     0.171 A 
HETATM    6  C   UNK N   1      33.512  16.338   8.251  0.00  0.00     0.263 A 
HETATM    7  C   UNK N   1      34.507  18.238   8.285  0.00  0.00     0.324 A 
HETATM    8  H   UNK N   1      33.292  19.291   6.966  0.00  0.00     0.166 HD
HETATM    9  H   UNK N   1      35.206  16.646   9.424  0.00  0.00     0.173 HD
ENDROOT
BRANCH   5  10
HETATM   10  C   UNK N   1      32.752  16.671   5.886  0.00  0.00    -0.016 A 
HETATM   11  C   UNK N   1      32.772  17.554   4.793  0.00  0.00     0.010 A 
HETATM   12  C   UNK N   1      32.855  17.061   3.489  0.00  0.00     0.001 A 
HETATM   13  C   UNK N   1      32.920  15.684   3.264  0.00  0.00     0.000 A 
HETATM   14  C   UNK N   1      32.898  14.798   4.343  0.00  0.00     0.001 A 
HETATM   15  C   UNK N   1      32.817  15.288   5.648  0.00  0.00     0.010 A 
ENDBRANCH   5  10
BRANCH   5  16
HETATM   16  C   UNK N   1      31.271  17.446   7.728  0.00  0.00    -0.016 A 
HETATM   17  C   UNK N   1      30.193  16.920   6.995  0.00  0.00     0.010 A 
HETATM   18  C   UNK N   1      28.878  17.180   7.387  0.00  0.00     0.001 A 
HETATM   19  C   UNK N   1      28.625  17.981   8.504  0.00  0.00     0.000 A 
HETATM   20  C   UNK N   1      29.688  18.509   9.238  0.00  0.00     0.001 A 
HETATM   21  C   UNK N   1      31.005  18.239   8.857  0.00  0.00     0.010 A 
ENDBRANCH   5  16
TORSDOF 2
ENDMDL
MODEL 2
REMARK VINA RESULT:      -7.0      8.638     11.219
REMARK  2 active torsions:
REMARK  status: ('A' for Active; 'I' for Inactive)
REMARK    1  A    between atoms: C_5  and  C_6 
REMARK    2  A    between atoms: C_5  and  C_7 
ROOT
HETATM    1  O   UNK N   1      34.070  12.272  14.341  0.00  0.00    -0.269 OA
HETATM    2  O   UNK N   1      36.715  14.061  11.263  0.00  0.00    -0.247 OA
HETATM    3  N   UNK N   1      37.194  13.376  13.363  0.00  0.00    -0.317 N 
HETATM    4  N   UNK N   1      35.105  13.184  12.563  0.00  0.00    -0.277 N 
HETATM    5  C   UNK N   1      36.452  12.791  14.471  0.00  0.00     0.171 A 
HETATM    6  C   UNK N   1      35.083  12.709  13.816  0.00  0.00     0.263 A 
HETATM    7  C   UNK N   1      36.360  13.571  12.323  0.00  0.00     0.324 A 
HETATM    8  H   UNK N   1      38.155  13.595  13.372  0.00  0.00     0.166 HD
HETATM    9  H   UNK N   1      34.344  13.238  11.941  0.00  0.00     0.173 HD
ENDROOT
BRANCH   5  10
HETATM   10  C   UNK N   1      36.428  13.709  15.680  0.00  0.00    -0.016 A 
HETATM   11  C   UNK N   1      37.233  14.859  15.705  0.00  0.00     0.010 A 
HETATM   12  C   UNK N   1      37.182  15.733  16.794  0.00  0.00     0.001 A 
HETATM   13  C   UNK N   1      36.326  15.466  17.865  0.00  0.00     0.000 A 
HETATM   14  C   UNK N   1      35.523  14.324  17.850  0.00  0.00     0.001 A 
HETATM   15  C   UNK N   1      35.571  13.450  16.762  0.00  0.00     0.010 A 
ENDBRANCH   5  10
BRANCH   5  16
HETATM   16  C   UNK N   1      37.043  11.444  14.856  0.00  0.00    -0.016 A 
HETATM   17  C   UNK N   1      36.452  10.634  15.841  0.00  0.00     0.010 A 
HETATM   18  C   UNK N   1      37.039   9.419  16.203  0.00  0.00     0.001 A 
HETATM   19  C   UNK N   1      38.228   9.007  15.596  0.00  0.00     0.000 A 
HETATM   20  C   UNK N   1      38.823   9.803  14.616  0.00  0.00     0.001 A 
HETATM   21  C   UNK N   1      38.232  11.013  14.243  0.00  0.00     0.010 A 
ENDBRANCH   5  16
TORSDOF 2
ENDMDL
MODEL 3
REMARK VINA RESULT:      -6.7      1.023      4.586
REMARK  2 active torsions:
REMARK  status: ('A' for Active; 'I' for Inactive)
REMARK    1  A    between atoms: C_5  and  C_6 
REMARK    2  A    between atoms: C_5  and  C_7 
ROOT
HETATM    1  O   UNK N   1      33.707  18.641   8.128  0.00  0.00    -0.269 OA
HETATM    2  O   UNK N   1      33.635  14.687  10.137  0.00  0.00    -0.247 OA
HETATM    3  N   UNK N   1      32.392  15.459   8.414  0.00  0.00    -0.317 N 
HETATM    4  N   UNK N   1      33.948  16.773   9.360  0.00  0.00    -0.277 N 
HETATM    5  C   UNK N   1      32.294  16.705   7.666  0.00  0.00     0.171 A 
HETATM    6  C   UNK N   1      33.377  17.492   8.384  0.00  0.00     0.263 A 
HETATM    7  C   UNK N   1      33.348  15.581   9.356  0.00  0.00     0.324 A 
HETATM    8  H   UNK N   1      31.846  14.654   8.257  0.00  0.00     0.166 HD
HETATM    9  H   UNK N   1      34.668  17.067   9.963  0.00  0.00     0.173 HD
ENDROOT
BRANCH   5  10
HETATM   10  C   UNK N   1      30.935  17.358   7.837  0.00  0.00    -0.016 A 
HETATM   11  C   UNK N   1      29.916  17.119   6.900  0.00  0.00     0.010 A 
HETATM   12  C   UNK N   1      28.649  17.680   7.077  0.00  0.00     0.001 A 
HETATM   13  C   UNK N   1      28.387  18.481   8.191  0.00  0.00     0.000 A 
HETATM   14  C   UNK N   1      29.393  18.727   9.127  0.00  0.00     0.001 A 
HETATM   15  C   UNK N   1      30.661  18.166   8.954  0.00  0.00     0.010 A 
ENDBRANCH   5  10
BRANCH   5  16
HETATM   16  C   UNK N   1      32.570  16.464   6.191  0.00  0.00    -0.016 A 
HETATM   17  C   UNK N   1      32.726  17.528   5.286  0.00  0.00     0.010 A 
HETATM   18  C   UNK N   1      32.940  17.278   3.929  0.00  0.00     0.001 A 
HETATM   19  C   UNK N   1      32.985  15.963   3.457  0.00  0.00     0.000 A 
HETATM   20  C   UNK N   1      32.831  14.898   4.347  0.00  0.00     0.001 A 
HETATM   21  C   UNK N   1      32.630  15.145   5.707  0.00  0.00     0.010 A 
ENDBRANCH   5  16
TORSDOF 2
ENDMDL
MODEL 4
REMARK VINA RESULT:      -6.6     13.443     15.084
REMARK  2 active torsions:
REMARK  status: ('A' for Active; 'I' for Inactive)
REMARK    1  A    between atoms: C_5  and  C_6 
REMARK    2  A    between atoms: C_5  and  C_7 
ROOT
HETATM    1  O   UNK N   1      26.887  23.593  -2.579  0.00  0.00    -0.269 OA
HETATM    2  O   UNK N   1      31.191  24.258  -3.419  0.00  0.00    -0.247 OA
HETATM    3  N   UNK N   1      29.375  24.799  -4.651  0.00  0.00    -0.317 N 
HETATM    4  N   UNK N   1      29.129  23.767  -2.672  0.00  0.00    -0.277 N 
HETATM    5  C   UNK N   1      27.933  24.643  -4.519  0.00  0.00     0.171 A 
HETATM    6  C   UNK N   1      27.897  23.952  -3.166  0.00  0.00     0.263 A 
HETATM    7  C   UNK N   1      29.980  24.274  -3.567  0.00  0.00     0.324 A 
HETATM    8  H   UNK N   1      29.837  25.220  -5.413  0.00  0.00     0.166 HD
HETATM    9  H   UNK N   1      29.361  23.341  -1.816  0.00  0.00     0.173 HD
ENDROOT
BRANCH   5  10
HETATM   10  C   UNK N   1      27.361  23.753  -5.607  0.00  0.00    -0.016 A 
HETATM   11  C   UNK N   1      28.222  23.040  -6.457  0.00  0.00     0.010 A 
HETATM   12  C   UNK N   1      27.702  22.182  -7.431  0.00  0.00     0.001 A 
HETATM   13  C   UNK N   1      26.320  22.029  -7.562  0.00  0.00     0.000 A 
HETATM   14  C   UNK N   1      25.456  22.735  -6.723  0.00  0.00     0.001 A 
HETATM   15  C   UNK N   1      25.972  23.592  -5.748  0.00  0.00     0.010 A 
ENDBRANCH   5  10
BRANCH   5  16
HETATM   16  C   UNK N   1      27.246  25.999  -4.547  0.00  0.00    -0.016 A 
HETATM   17  C   UNK N   1      26.456  26.447  -3.474  0.00  0.00     0.010 A 
HETATM   18  C   UNK N   1      25.805  27.681  -3.542  0.00  0.00     0.001 A 
HETATM   19  C   UNK N   1      25.924  28.474  -4.686  0.00  0.00     0.000 A 
HETATM   20  C   UNK N   1      26.707  28.040  -5.757  0.00  0.00     0.001 A 
HETATM   21  C   UNK N   1      27.370  26.812  -5.687  0.00  0.00     0.010 A 
ENDBRANCH   5  16
TORSDOF 2
ENDMDL
MODEL 5
REMARK VINA RESULT:      -6.6      1.469      2.241
REMARK  2 active torsions:
REMARK  status: ('A' for Active; 'I' for Inactive)
REMARK    1  A    between atoms: C_5  and  C_6 
REMARK    2  A    between atoms: C_5  and  C_7 
ROOT
HETATM    1  O   UNK N   1      32.618  15.676   9.392  0.00  0.00    -0.269 OA
HETATM    2  O   UNK N   1      35.266  19.110   8.461  0.00  0.00    -0.247 OA
HETATM    3  N   UNK N   1      33.991  17.850   7.085  0.00  0.00    -0.317 N 
HETATM    4  N   UNK N   1      34.028  17.427   9.290  0.00  0.00    -0.277 N 
HETATM    5  C   UNK N   1      33.095  16.710   7.234  0.00  0.00     0.171 A 
HETATM    6  C   UNK N   1      33.200  16.528   8.739  0.00  0.00     0.263 A 
HETATM    7  C   UNK N   1      34.479  18.192   8.293  0.00  0.00     0.324 A 
HETATM    8  H   UNK N   1      34.206  18.300   6.235  0.00  0.00     0.166 HD
HETATM    9  H   UNK N   1      34.257  17.508  10.243  0.00  0.00     0.173 HD
ENDROOT
BRANCH   5  10
HETATM   10  C   UNK N   1      33.612  15.489   6.495  0.00  0.00    -0.016 A 
HETATM   11  C   UNK N   1      34.842  15.543   5.820  0.00  0.00     0.010 A 
HETATM   12  C   UNK N   1      35.345  14.409   5.177  0.00  0.00     0.001 A 
HETATM   13  C   UNK N   1      34.625  13.212   5.204  0.00  0.00     0.000 A 
HETATM   14  C   UNK N   1      33.399  13.149   5.870  0.00  0.00     0.001 A 
HETATM   15  C   UNK N   1      32.895  14.281   6.516  0.00  0.00     0.010 A 
ENDBRANCH   5  10
BRANCH   5  16
HETATM   16  C   UNK N   1      31.701  17.061   6.742  0.00  0.00    -0.016 A 
HETATM   17  C   UNK N   1      30.620  17.203   7.630  0.00  0.00     0.010 A 
HETATM   18  C   UNK N   1      29.340  17.488   7.147  0.00  0.00     0.001 A 
HETATM   19  C   UNK N   1      29.123  17.619   5.773  0.00  0.00     0.000 A 
HETATM   20  C   UNK N   1      30.189  17.481   4.882  0.00  0.00     0.001 A 
HETATM   21  C   UNK N   1      31.473  17.210   5.363  0.00  0.00     0.010 A 
ENDBRANCH   5  16
TORSDOF 2
ENDMDL
MODEL 6
REMARK VINA RESULT:      -6.4      9.361     11.923
REMARK  2 active torsions:
REMARK  status: ('A' for Active; 'I' for Inactive)
REMARK    1  A    between atoms: C_5  and  C_6 
REMARK    2  A    between atoms: C_5  and  C_7 
ROOT
HETATM    1  O   UNK N   1      33.672  10.952  14.324  0.00  0.00    -0.269 OA
HETATM    2  O   UNK N   1      36.000  14.329  12.635  0.00  0.00    -0.247 OA
HETATM    3  N   UNK N   1      36.530  12.894  14.298  0.00  0.00    -0.317 N 
HETATM    4  N   UNK N   1      34.560  12.711  13.235  0.00  0.00    -0.277 N 
HETATM    5  C   UNK N   1      35.884  11.766  14.957  0.00  0.00     0.171 A 
HETATM    6  C   UNK N   1      34.590  11.742  14.161  0.00  0.00     0.263 A 
HETATM    7  C   UNK N   1      35.714  13.374  13.339  0.00  0.00     0.324 A 
HETATM    8  H   UNK N   1      37.422  13.249  14.518  0.00  0.00     0.166 HD
HETATM    9  H   UNK N   1      33.830  12.897  12.602  0.00  0.00     0.173 HD
ENDROOT
BRANCH   5  10
HETATM   10  C   UNK N   1      35.622  12.048  16.425  0.00  0.00    -0.016 A 
HETATM   11  C   UNK N   1      35.702  11.009  17.366  0.00  0.00     0.010 A 
HETATM   12  C   UNK N   1      35.508  11.270  18.725  0.00  0.00     0.001 A 
HETATM   13  C   UNK N   1      35.233  12.571  19.155  0.00  0.00     0.000 A 
HETATM   14  C   UNK N   1      35.149  13.611  18.226  0.00  0.00     0.001 A 
HETATM   15  C   UNK N   1      35.345  13.352  16.868  0.00  0.00     0.010 A 
ENDBRANCH   5  10
BRANCH   5  16
HETATM   16  C   UNK N   1      36.730  10.511  14.814  0.00  0.00    -0.016 A 
HETATM   17  C   UNK N   1      36.153   9.229  14.812  0.00  0.00     0.010 A 
HETATM   18  C   UNK N   1      36.957   8.091  14.718  0.00  0.00     0.001 A 
HETATM   19  C   UNK N   1      38.346   8.219  14.642  0.00  0.00     0.000 A 
HETATM   20  C   UNK N   1      38.931   9.487  14.643  0.00  0.00     0.001 A 
HETATM   21  C   UNK N   1      38.128  10.628  14.723  0.00  0.00     0.010 A 
ENDBRANCH   5  16
TORSDOF 2
ENDMDL
MODEL 7
REMARK VINA RESULT:      -6.4      9.824     11.550
REMARK  2 active torsions:
REMARK  status: ('A' for Active; 'I' for Inactive)
REMARK    1  A    between atoms: C_5  and  C_6 
REMARK    2  A    between atoms: C_5  and  C_7 
ROOT
HETATM    1  O   UNK N   1      25.062  13.499   8.944  0.00  0.00    -0.269 OA
HETATM    2  O   UNK N   1      22.824  11.848  12.399  0.00  0.00    -0.247 OA
HETATM    3  N   UNK N   1      22.155  12.183  10.267  0.00  0.00    -0.317 N 
HETATM    4  N   UNK N   1      24.246  12.713  10.888  0.00  0.00    -0.277 N 
HETATM    5  C   UNK N   1      22.754  12.712   9.049  0.00  0.00     0.171 A 
HETATM    6  C   UNK N   1      24.140  13.023   9.589  0.00  0.00     0.263 A 
HETATM    7  C   UNK N   1      23.063  12.222  11.262  0.00  0.00     0.324 A 
HETATM    8  H   UNK N   1      21.231  11.851  10.350  0.00  0.00     0.166 HD
HETATM    9  H   UNK N   1      25.042  12.825  11.457  0.00  0.00     0.173 HD
ENDROOT
BRANCH   5  10
HETATM   10  C   UNK N   1      22.052  13.972   8.577  0.00  0.00    -0.016 A 
HETATM   11  C   UNK N   1      20.973  14.492   9.310  0.00  0.00     0.010 A 
HETATM   12  C   UNK N   1      20.352  15.678   8.908  0.00  0.00     0.001 A 
HETATM   13  C   UNK N   1      20.805  16.354   7.772  0.00  0.00     0.000 A 
HETATM   14  C   UNK N   1      21.876  15.844   7.036  0.00  0.00     0.001 A 
HETATM   15  C   UNK N   1      22.500  14.660   7.437  0.00  0.00     0.010 A 
ENDBRANCH   5  10
BRANCH   5  16
HETATM   16  C   UNK N   1      22.732  11.665   7.947  0.00  0.00    -0.016 A 
HETATM   17  C   UNK N   1      21.762  11.685   6.930  0.00  0.00     0.010 A 
HETATM   18  C   UNK N   1      21.741  10.688   5.952  0.00  0.00     0.001 A 
HETATM   19  C   UNK N   1      22.678   9.652   5.987  0.00  0.00     0.000 A 
HETATM   20  C   UNK N   1      23.647   9.622   6.992  0.00  0.00     0.001 A 
HETATM   21  C   UNK N   1      23.679  10.626   7.964  0.00  0.00     0.010 A 
ENDBRANCH   5  16
TORSDOF 2
ENDMDL
MODEL 8
REMARK VINA RESULT:      -6.4     12.805     14.906
REMARK  2 active torsions:
REMARK  status: ('A' for Active; 'I' for Inactive)
REMARK    1  A    between atoms: C_5  and  C_6 
REMARK    2  A    between atoms: C_5  and  C_7 
ROOT
HETATM    1  O   UNK N   1      26.763  24.212  -2.592  0.00  0.00    -0.269 OA
HETATM    2  O   UNK N   1      25.493  24.663  -6.818  0.00  0.00    -0.247 OA
HETATM    3  N   UNK N   1      27.570  24.617  -5.927  0.00  0.00    -0.317 N 
HETATM    4  N   UNK N   1      25.769  24.411  -4.601  0.00  0.00    -0.277 N 
HETATM    5  C   UNK N   1      28.137  24.488  -4.590  0.00  0.00     0.171 A 
HETATM    6  C   UNK N   1      26.844  24.353  -3.803  0.00  0.00     0.263 A 
HETATM    7  C   UNK N   1      26.226  24.567  -5.845  0.00  0.00     0.324 A 
HETATM    8  H   UNK N   1      28.088  24.724  -6.758  0.00  0.00     0.166 HD
HETATM    9  H   UNK N   1      24.827  24.349  -4.324  0.00  0.00     0.173 HD
ENDROOT
BRANCH   5  10
HETATM   10  C   UNK N   1      28.903  25.733  -4.182  0.00  0.00    -0.016 A 
HETATM   11  C   UNK N   1      28.234  26.961  -4.058  0.00  0.00     0.010 A 
HETATM   12  C   UNK N   1      28.924  28.101  -3.637  0.00  0.00     0.001 A 
HETATM   13  C   UNK N   1      30.286  28.023  -3.335  0.00  0.00     0.000 A 
HETATM   14  C   UNK N   1      30.960  26.807  -3.457  0.00  0.00     0.001 A 
HETATM   15  C   UNK N   1      30.272  25.665  -3.876  0.00  0.00     0.010 A 
ENDBRANCH   5  10
BRANCH   5  16
HETATM   16  C   UNK N   1      29.046  23.272  -4.513  0.00  0.00    -0.016 A 
HETATM   17  C   UNK N   1      29.367  22.519  -5.656  0.00  0.00     0.010 A 
HETATM   18  C   UNK N   1      30.174  21.383  -5.551  0.00  0.00     0.001 A 
HETATM   19  C   UNK N   1      30.656  20.979  -4.303  0.00  0.00     0.000 A 
HETATM   20  C   UNK N   1      30.343  21.720  -3.161  0.00  0.00     0.001 A 
HETATM   21  C   UNK N   1      29.548  22.864  -3.265  0.00  0.00     0.010 A 
ENDBRANCH   5  16
TORSDOF 2
ENDMDL
MODEL 9
REMARK VINA RESULT:      -6.3      4.148      6.336
REMARK  2 active torsions:
REMARK  status: ('A' for Active; 'I' for Inactive)
REMARK    1  A    between atoms: C_5  and  C_6 
REMARK    2  A    between atoms: C_5  and  C_7 
ROOT
HETATM    1  O   UNK N   1      27.857  15.874   6.403  0.00  0.00    -0.269 OA
HETATM    2  O   UNK N   1      27.856  15.407   1.993  0.00  0.00    -0.247 OA
HETATM    3  N   UNK N   1      28.823  16.992   3.281  0.00  0.00    -0.317 N 
HETATM    4  N   UNK N   1      27.653  15.328   4.230  0.00  0.00    -0.277 N 
HETATM    5  C   UNK N   1      28.904  17.281   4.707  0.00  0.00     0.171 A 
HETATM    6  C   UNK N   1      28.095  16.106   5.228  0.00  0.00     0.263 A 
HETATM    7  C   UNK N   1      28.095  15.874   3.095  0.00  0.00     0.324 A 
HETATM    8  H   UNK N   1      29.234  17.530   2.565  0.00  0.00     0.166 HD
HETATM    9  H   UNK N   1      27.108  14.513   4.317  0.00  0.00     0.173 HD
ENDROOT
BRANCH   5  10
HETATM   10  C   UNK N   1      28.240  18.602   5.052  0.00  0.00    -0.016 A 
HETATM   11  C   UNK N   1      27.622  19.362   4.046  0.00  0.00     0.010 A 
HETATM   12  C   UNK N   1      26.969  20.556   4.364  0.00  0.00     0.001 A 
HETATM   13  C   UNK N   1      26.927  20.999   5.689  0.00  0.00     0.000 A 
HETATM   14  C   UNK N   1      27.541  20.251   6.695  0.00  0.00     0.001 A 
HETATM   15  C   UNK N   1      28.193  19.057   6.380  0.00  0.00     0.010 A 
ENDBRANCH   5  10
BRANCH   5  16
HETATM   16  C   UNK N   1      30.354  17.295   5.165  0.00  0.00    -0.016 A 
HETATM   17  C   UNK N   1      30.702  17.096   6.512  0.00  0.00     0.010 A 
HETATM   18  C   UNK N   1      32.040  17.153   6.912  0.00  0.00     0.001 A 
HETATM   19  C   UNK N   1      33.041  17.424   5.975  0.00  0.00     0.000 A 
HETATM   20  C   UNK N   1      32.706  17.623   4.635  0.00  0.00     0.001 A 
HETATM   21  C   UNK N   1      31.370  17.554   4.229  0.00  0.00     0.010 A 
ENDBRANCH   5  16
TORSDOF 2
ENDMDL
