MODEL 1
REMARK VINA RESULT:      -7.2      0.000      0.000
REMARK  8 active torsions:
REMARK  status: ('A' for Active; 'I' for Inactive)
REMARK    1  A    between atoms: O_3  and  C_27 
REMARK    2  A    between atoms: O_4  and  C_28 
REMARK       I    between atoms: N_5  and  C_16 
REMARK    3  A    between atoms: N_5  and  C_17 
REMARK    4  A    between atoms: N_6  and  C_19 
REMARK       I    between atoms: N_6  and  C_20 
REMARK    5  A    between atoms: N_11  and  C_24 
REMARK    6  A    between atoms: C_12  and  C_16 
REMARK    7  A    between atoms: C_17  and  C_18 
REMARK    8  A    between atoms: C_18  and  C_19 
ROOT
HETATM    1  N   UNK N   1      33.878  16.561   8.217  0.00  0.00    -0.222 N 
HETATM    2  N   UNK N   1      31.946  16.878   6.796  0.00  0.00    -0.191 N 
ATOM      3  HN  UNK N   1      32.475  16.459   6.030  1.00  0.00     0.184 HD
HETATM    4  N   UNK N   1      31.807  17.537   9.048  0.00  0.00    -0.176 N 
ATOM      5  HN  UNK N   1      32.241  17.618   9.968  1.00  0.00     0.186 HD
HETATM    6  C   UNK N   1      32.524  16.992   8.025  0.00  0.00     0.681 A 
HETATM    7  C   UNK N   1      34.573  15.953   7.111  0.00  0.00     0.168 C 
HETATM    8  C   UNK N   1      29.938  17.878   7.624  0.00  0.00     0.038 A 
HETATM    9  C   UNK N   1      30.679  17.310   6.573  0.00  0.00     0.066 A 
HETATM   10  C   UNK N   1      30.537  17.975   8.880  0.00  0.00     0.127 A 
HETATM   11  C   UNK N   1      28.639  18.336   7.393  0.00  0.00     0.057 A 
HETATM   12  C   UNK N   1      30.115  17.205   5.303  0.00  0.00     0.070 A 
HETATM   13  C   UNK N   1      28.068  18.238   6.113  0.00  0.00     0.102 A 
HETATM   14  C   UNK N   1      28.808  17.669   5.061  0.00  0.00     0.103 A 
ENDROOT
BRANCH   1  15
HETATM   15  C   UNK N   1      34.647  16.748   9.441  0.00  0.00     0.142 C 
BRANCH  15  16
HETATM   16  C   UNK N   1      34.891  15.510  10.301  0.00  0.00     0.040 C 
BRANCH  16  17
HETATM   17  C   UNK N   1      36.264  15.587  10.950  0.00  0.00     0.124 C 
BRANCH  17  18
HETATM   18  N   UNK N   1      36.117  15.342  12.362  0.00  0.00    -0.359 N 
HETATM   19  C   UNK N   1      36.336  14.119  12.907  0.00  0.00     0.246 C 
HETATM   20  O   UNK N   1      36.788  13.207  12.231  0.00  0.00    -0.271 OA
HETATM   21  H   UNK N   1      35.847  16.084  12.949  0.00  0.00     0.162 HD
BRANCH  19  22
HETATM   22  C   UNK N   1      35.965  13.869  14.328  0.00  0.00     0.213 C 
HETATM   23  O   UNK N   1      34.684  13.314  14.417  0.00  0.00    -0.376 OA
HETATM   24  C   UNK N   1      34.691  12.637  15.646  0.00  0.00     0.168 C 
HETATM   25  C   UNK N   1      36.087  12.103  15.888  0.00  0.00     0.029 C 
HETATM   26  C   UNK N   1      36.935  12.875  14.926  0.00  0.00     0.043 C 
ENDBRANCH  19  22
ENDBRANCH  17  18
ENDBRANCH  16  17
ENDBRANCH  15  16
ENDBRANCH   1  15
BRANCH  10  27
HETATM   27  N   UNK N   1      29.842  18.534   9.975  0.00  0.00    -0.384 N 
HETATM   28  H   UNK N   1      28.979  18.985   9.833  0.00  0.00     0.157 HD
HETATM   29  H   UNK N   1      30.221  18.474  10.881  0.00  0.00     0.157 HD
ENDBRANCH  10  27
BRANCH  14  30
HETATM   30  O   UNK N   1      28.250  17.581   3.830  0.00  0.00    -0.353 OA
HETATM   31  C   UNK N   1      27.769  16.406   3.301  0.00  0.00     0.210 C 
ENDBRANCH  14  30
BRANCH  13  32
HETATM   32  O   UNK N   1      26.812  18.688   5.873  0.00  0.00    -0.353 OA
HETATM   33  C   UNK N   1      26.524  20.002   5.583  0.00  0.00     0.210 C 
ENDBRANCH  13  32
TORSDOF 8
ENDMDL
MODEL 2
REMARK VINA RESULT:      -7.1      1.642      2.030
REMARK  8 active torsions:
REMARK  status: ('A' for Active; 'I' for Inactive)
REMARK    1  A    between atoms: O_3  and  C_27 
REMARK    2  A    between atoms: O_4  and  C_28 
REMARK       I    between atoms: N_5  and  C_16 
REMARK    3  A    between atoms: N_5  and  C_17 
REMARK    4  A    between atoms: N_6  and  C_19 
REMARK       I    between atoms: N_6  and  C_20 
REMARK    5  A    between atoms: N_11  and  C_24 
REMARK    6  A    between atoms: C_12  and  C_16 
REMARK    7  A    between atoms: C_17  and  C_18 
REMARK    8  A    between atoms: C_18  and  C_19 
ROOT
HETATM    1  N   UNK N   1      32.308  15.212   7.343  0.00  0.00    -0.222 N 
HETATM    2  N   UNK N   1      30.464  16.394   6.317  0.00  0.00    -0.191 N 
ATOM      3  HN  UNK N   1      30.606  15.832   5.477  1.00  0.00     0.184 HD
HETATM    4  N   UNK N   1      31.055  16.931   8.528  0.00  0.00    -0.176 N 
ATOM      5  HN  UNK N   1      31.649  16.771   9.341  1.00  0.00     0.186 HD
HETATM    6  C   UNK N   1      31.259  16.187   7.404  0.00  0.00     0.681 A 
HETATM    7  C   UNK N   1      32.451  14.425   6.144  0.00  0.00     0.168 C 
HETATM    8  C   UNK N   1      29.275  18.109   7.485  0.00  0.00     0.038 A 
HETATM    9  C   UNK N   1      29.487  17.335   6.331  0.00  0.00     0.066 A 
HETATM   10  C   UNK N   1      30.087  17.876   8.596  0.00  0.00     0.127 A 
HETATM   11  C   UNK N   1      28.279  19.087   7.497  0.00  0.00     0.057 A 
HETATM   12  C   UNK N   1      28.700  17.547   5.200  0.00  0.00     0.070 A 
HETATM   13  C   UNK N   1      27.487  19.309   6.358  0.00  0.00     0.102 A 
HETATM   14  C   UNK N   1      27.697  18.534   5.203  0.00  0.00     0.103 A 
ENDROOT
BRANCH   1  15
HETATM   15  C   UNK N   1      33.303  14.990   8.384  0.00  0.00     0.142 C 
BRANCH  15  16
HETATM   16  C   UNK N   1      34.521  15.910   8.384  0.00  0.00     0.040 C 
BRANCH  16  17
HETATM   17  C   UNK N   1      34.506  16.797   9.620  0.00  0.00     0.124 C 
BRANCH  17  18
HETATM   18  N   UNK N   1      34.630  15.960  10.786  0.00  0.00    -0.359 N 
HETATM   19  C   UNK N   1      35.837  15.606  11.292  0.00  0.00     0.246 C 
HETATM   20  O   UNK N   1      36.867  16.088  10.845  0.00  0.00    -0.271 OA
HETATM   21  H   UNK N   1      33.812  15.634  11.227  0.00  0.00     0.162 HD
BRANCH  19  22
HETATM   22  C   UNK N   1      35.912  14.571  12.362  0.00  0.00     0.213 C 
HETATM   23  O   UNK N   1      34.670  13.953  12.544  0.00  0.00    -0.376 OA
HETATM   24  C   UNK N   1      34.990  12.708  13.105  0.00  0.00     0.168 C 
HETATM   25  C   UNK N   1      36.317  12.254  12.534  0.00  0.00     0.029 C 
HETATM   26  C   UNK N   1      36.898  13.502  11.948  0.00  0.00     0.043 C 
ENDBRANCH  19  22
ENDBRANCH  17  18
ENDBRANCH  16  17
ENDBRANCH  15  16
ENDBRANCH   1  15
BRANCH  10  27
HETATM   27  N   UNK N   1      29.922  18.619   9.785  0.00  0.00    -0.384 N 
HETATM   28  H   UNK N   1      29.973  18.169  10.659  0.00  0.00     0.157 HD
HETATM   29  H   UNK N   1      29.758  19.589   9.741  0.00  0.00     0.157 HD
ENDBRANCH  10  27
BRANCH  14  30
HETATM   30  O   UNK N   1      26.930  18.757   4.108  0.00  0.00    -0.353 OA
HETATM   31  C   UNK N   1      25.901  17.928   3.726  0.00  0.00     0.210 C 
ENDBRANCH  14  30
BRANCH  13  32
HETATM   32  O   UNK N   1      26.523  20.262   6.353  0.00  0.00    -0.353 OA
HETATM   33  C   UNK N   1      26.796  21.611   6.388  0.00  0.00     0.210 C 
ENDBRANCH  13  32
TORSDOF 8
ENDMDL
MODEL 3
REMARK VINA RESULT:      -7.1      4.070     11.754
REMARK  8 active torsions:
REMARK  status: ('A' for Active; 'I' for Inactive)
REMARK    1  A    between atoms: O_3  and  C_27 
REMARK    2  A    between atoms: O_4  and  C_28 
REMARK       I    between atoms: N_5  and  C_16 
REMARK    3  A    between atoms: N_5  and  C_17 
REMARK    4  A    between atoms: N_6  and  C_19 
REMARK       I    between atoms: N_6  and  C_20 
REMARK    5  A    between atoms: N_11  and  C_24 
REMARK    6  A    between atoms: C_12  and  C_16 
REMARK    7  A    between atoms: C_17  and  C_18 
REMARK    8  A    between atoms: C_18  and  C_19 
ROOT
HETATM    1  N   UNK N   1      28.041  16.846   4.521  0.00  0.00    -0.222 N 
HETATM    2  N   UNK N   1      30.339  16.803   5.274  0.00  0.00    -0.191 N 
ATOM      3  HN  UNK N   1      30.602  16.422   4.365  1.00  0.00     0.184 HD
HETATM    4  N   UNK N   1      28.692  17.628   6.734  0.00  0.00    -0.176 N 
ATOM      5  HN  UNK N   1      27.714  17.856   6.916  1.00  0.00     0.186 HD
HETATM    6  C   UNK N   1      29.034  17.105   5.523  0.00  0.00     0.681 A 
HETATM    7  C   UNK N   1      28.466  16.331   3.244  0.00  0.00     0.168 C 
HETATM    8  C   UNK N   1      30.949  17.536   7.467  0.00  0.00     0.038 A 
HETATM    9  C   UNK N   1      31.297  17.002   6.215  0.00  0.00     0.066 A 
HETATM   10  C   UNK N   1      29.611  17.854   7.703  0.00  0.00     0.127 A 
HETATM   11  C   UNK N   1      31.930  17.728   8.441  0.00  0.00     0.057 A 
HETATM   12  C   UNK N   1      32.623  16.665   5.948  0.00  0.00     0.070 A 
HETATM   13  C   UNK N   1      33.268  17.385   8.180  0.00  0.00     0.102 A 
HETATM   14  C   UNK N   1      33.618  16.851   6.927  0.00  0.00     0.103 A 
ENDROOT
BRANCH   1  15
HETATM   15  C   UNK N   1      26.604  17.001   4.711  0.00  0.00     0.142 C 
BRANCH  15  16
HETATM   16  C   UNK N   1      25.846  17.781   3.639  0.00  0.00     0.040 C 
BRANCH  16  17
HETATM   17  C   UNK N   1      25.475  19.161   4.163  0.00  0.00     0.124 C 
BRANCH  17  18
HETATM   18  N   UNK N   1      24.091  19.412   3.850  0.00  0.00    -0.359 N 
HETATM   19  C   UNK N   1      23.720  20.298   2.893  0.00  0.00     0.246 C 
HETATM   20  O   UNK N   1      24.554  20.828   2.175  0.00  0.00    -0.271 OA
HETATM   21  H   UNK N   1      23.394  18.926   4.347  0.00  0.00     0.162 HD
BRANCH  19  22
HETATM   22  C   UNK N   1      22.284  20.676   2.757  0.00  0.00     0.213 C 
HETATM   23  O   UNK N   1      21.930  20.811   1.411  0.00  0.00    -0.376 OA
HETATM   24  C   UNK N   1      20.543  20.601   1.402  0.00  0.00     0.168 C 
HETATM   25  C   UNK N   1      20.205  19.596   2.482  0.00  0.00     0.029 C 
HETATM   26  C   UNK N   1      21.426  19.580   3.348  0.00  0.00     0.043 C 
ENDBRANCH  19  22
ENDBRANCH  17  18
ENDBRANCH  16  17
ENDBRANCH  15  16
ENDBRANCH   1  15
BRANCH  10  27
HETATM   27  N   UNK N   1      29.199  18.395   8.940  0.00  0.00    -0.384 N 
HETATM   28  H   UNK N   1      29.771  19.046   9.408  0.00  0.00     0.157 HD
HETATM   29  H   UNK N   1      28.340  18.122   9.335  0.00  0.00     0.157 HD
ENDBRANCH  10  27
BRANCH  14  30
HETATM   30  O   UNK N   1      34.909  16.521   6.685  0.00  0.00    -0.353 OA
HETATM   31  C   UNK N   1      35.283  15.393   5.990  0.00  0.00     0.210 C 
ENDBRANCH  14  30
BRANCH  13  32
HETATM   32  O   UNK N   1      34.229  17.558   9.120  0.00  0.00    -0.353 OA
HETATM   33  C   UNK N   1      34.668  16.546   9.944  0.00  0.00     0.210 C 
ENDBRANCH  13  32
TORSDOF 8
ENDMDL
MODEL 4
REMARK VINA RESULT:      -7.0      2.567      8.721
REMARK  8 active torsions:
REMARK  status: ('A' for Active; 'I' for Inactive)
REMARK    1  A    between atoms: O_3  and  C_27 
REMARK    2  A    between atoms: O_4  and  C_28 
REMARK       I    between atoms: N_5  and  C_16 
REMARK    3  A    between atoms: N_5  and  C_17 
REMARK    4  A    between atoms: N_6  and  C_19 
REMARK       I    between atoms: N_6  and  C_20 
REMARK    5  A    between atoms: N_11  and  C_24 
REMARK    6  A    between atoms: C_12  and  C_16 
REMARK    7  A    between atoms: C_17  and  C_18 
REMARK    8  A    between atoms: C_18  and  C_19 
ROOT
HETATM    1  N   UNK N   1      35.152  14.361   6.563  0.00  0.00    -0.222 N 
HETATM    2  N   UNK N   1      35.202  13.301   8.736  0.00  0.00    -0.191 N 
ATOM      3  HN  UNK N   1      35.237  12.396   8.265  1.00  0.00     0.184 HD
HETATM    4  N   UNK N   1      35.144  15.648   8.630  0.00  0.00    -0.176 N 
ATOM      5  HN  UNK N   1      35.125  16.502   8.072  1.00  0.00     0.186 HD
HETATM    6  C   UNK N   1      35.174  14.443   7.994  0.00  0.00     0.681 A 
HETATM    7  C   UNK N   1      35.229  13.062   5.944  0.00  0.00     0.168 C 
HETATM    8  C   UNK N   1      35.150  14.584  10.753  0.00  0.00     0.038 A 
HETATM    9  C   UNK N   1      35.186  13.344  10.093  0.00  0.00     0.066 A 
HETATM   10  C   UNK N   1      35.136  15.746   9.981  0.00  0.00     0.127 A 
HETATM   11  C   UNK N   1      35.119  14.630  12.149  0.00  0.00     0.057 A 
HETATM   12  C   UNK N   1      35.193  12.162  10.833  0.00  0.00     0.070 A 
HETATM   13  C   UNK N   1      35.120  13.442  12.900  0.00  0.00     0.102 A 
HETATM   14  C   UNK N   1      35.158  12.201  12.239  0.00  0.00     0.103 A 
ENDROOT
BRANCH   1  15
HETATM   15  C   UNK N   1      34.990  15.497   5.664  0.00  0.00     0.142 C 
BRANCH  15  16
HETATM   16  C   UNK N   1      33.561  15.881   5.287  0.00  0.00     0.040 C 
BRANCH  16  17
HETATM   17  C   UNK N   1      33.289  17.327   5.677  0.00  0.00     0.124 C 
BRANCH  17  18
HETATM   18  N   UNK N   1      32.082  17.369   6.461  0.00  0.00    -0.359 N 
HETATM   19  C   UNK N   1      32.096  17.638   7.790  0.00  0.00     0.246 C 
HETATM   20  O   UNK N   1      33.131  17.975   8.347  0.00  0.00    -0.271 OA
HETATM   21  H   UNK N   1      31.219  17.196   6.018  0.00  0.00     0.162 HD
BRANCH  19  22
HETATM   22  C   UNK N   1      30.852  17.459   8.591  0.00  0.00     0.213 C 
HETATM   23  O   UNK N   1      30.518  18.641   9.261  0.00  0.00    -0.376 OA
HETATM   24  C   UNK N   1      29.136  18.529   9.478  0.00  0.00     0.168 C 
HETATM   25  C   UNK N   1      28.530  17.772   8.316  0.00  0.00     0.029 C 
HETATM   26  C   UNK N   1      29.709  17.122   7.660  0.00  0.00     0.043 C 
ENDBRANCH  19  22
ENDBRANCH  17  18
ENDBRANCH  16  17
ENDBRANCH  15  16
ENDBRANCH   1  15
BRANCH  10  27
HETATM   27  N   UNK N   1      35.101  17.021  10.587  0.00  0.00    -0.384 N 
HETATM   28  H   UNK N   1      34.421  17.223  11.269  0.00  0.00     0.157 HD
HETATM   29  H   UNK N   1      35.757  17.707  10.328  0.00  0.00     0.157 HD
ENDBRANCH  10  27
BRANCH  14  30
HETATM   30  O   UNK N   1      35.155  11.061  12.972  0.00  0.00    -0.353 OA
HETATM   31  C   UNK N   1      34.024  10.309  13.194  0.00  0.00     0.210 C 
ENDBRANCH  14  30
BRANCH  13  32
HETATM   32  O   UNK N   1      35.081  13.473  14.254  0.00  0.00    -0.353 OA
HETATM   33  C   UNK N   1      36.198  13.658  15.037  0.00  0.00     0.210 C 
ENDBRANCH  13  32
TORSDOF 8
ENDMDL
MODEL 5
REMARK VINA RESULT:      -7.0      3.755     11.655
REMARK  8 active torsions:
REMARK  status: ('A' for Active; 'I' for Inactive)
REMARK    1  A    between atoms: O_3  and  C_27 
REMARK    2  A    between atoms: O_4  and  C_28 
REMARK       I    between atoms: N_5  and  C_16 
REMARK    3  A    between atoms: N_5  and  C_17 
REMARK    4  A    between atoms: N_6  and  C_19 
REMARK       I    between atoms: N_6  and  C_20 
REMARK    5  A    between atoms: N_11  and  C_24 
REMARK    6  A    between atoms: C_12  and  C_16 
REMARK    7  A    between atoms: C_17  and  C_18 
REMARK    8  A    between atoms: C_18  and  C_19 
ROOT
HETATM    1  N   UNK N   1      36.547  13.721  12.487  0.00  0.00    -0.222 N 
HETATM    2  N   UNK N   1      37.020  11.803  13.883  0.00  0.00    -0.191 N 
ATOM      3  HN  UNK N   1      37.595  11.429  13.127  1.00  0.00     0.184 HD
HETATM    4  N   UNK N   1      35.657  13.513  14.744  0.00  0.00    -0.176 N 
ATOM      5  HN  UNK N   1      35.203  14.419  14.625  1.00  0.00     0.186 HD
HETATM    6  C   UNK N   1      36.409  13.011  13.725  0.00  0.00     0.681 A 
HETATM    7  C   UNK N   1      37.390  13.163  11.460  0.00  0.00     0.168 C 
HETATM    8  C   UNK N   1      36.100  11.600  16.081  0.00  0.00     0.038 A 
HETATM    9  C   UNK N   1      36.880  11.090  15.029  0.00  0.00     0.066 A 
HETATM   10  C   UNK N   1      35.492  12.845  15.911  0.00  0.00     0.127 A 
HETATM   11  C   UNK N   1      35.942  10.862  17.255  0.00  0.00     0.057 A 
HETATM   12  C   UNK N   1      37.495   9.845  15.161  0.00  0.00     0.070 A 
HETATM   13  C   UNK N   1      36.555   9.604  17.392  0.00  0.00     0.102 A 
HETATM   14  C   UNK N   1      37.337   9.093  16.340  0.00  0.00     0.103 A 
ENDROOT
BRANCH   1  15
HETATM   15  C   UNK N   1      35.842  14.951  12.148  0.00  0.00     0.142 C 
BRANCH  15  16
HETATM   16  C   UNK N   1      35.974  15.449  10.710  0.00  0.00     0.040 C 
BRANCH  16  17
HETATM   17  C   UNK N   1      35.399  16.852  10.589  0.00  0.00     0.124 C 
BRANCH  17  18
HETATM   18  N   UNK N   1      34.699  16.952   9.334  0.00  0.00    -0.359 N 
HETATM   19  C   UNK N   1      34.714  18.086   8.591  0.00  0.00     0.246 C 
HETATM   20  O   UNK N   1      35.426  19.028   8.904  0.00  0.00    -0.271 OA
HETATM   21  H   UNK N   1      34.193  16.174   9.007  0.00  0.00     0.162 HD
BRANCH  19  22
HETATM   22  C   UNK N   1      33.805  18.209   7.415  0.00  0.00     0.213 C 
HETATM   23  O   UNK N   1      34.386  17.641   6.277  0.00  0.00    -0.376 OA
HETATM   24  C   UNK N   1      33.290  17.318   5.462  0.00  0.00     0.168 C 
HETATM   25  C   UNK N   1      32.130  16.931   6.354  0.00  0.00     0.029 C 
HETATM   26  C   UNK N   1      32.525  17.455   7.700  0.00  0.00     0.043 C 
ENDBRANCH  19  22
ENDBRANCH  17  18
ENDBRANCH  16  17
ENDBRANCH  15  16
ENDBRANCH   1  15
BRANCH  10  27
HETATM   27  N   UNK N   1      34.698  13.411  16.932  0.00  0.00    -0.384 N 
HETATM   28  H   UNK N   1      34.712  13.026  17.837  0.00  0.00     0.157 HD
HETATM   29  H   UNK N   1      34.131  14.192  16.739  0.00  0.00     0.157 HD
ENDBRANCH  10  27
BRANCH  14  30
HETATM   30  O   UNK N   1      37.921   7.878  16.479  0.00  0.00    -0.353 OA
HETATM   31  C   UNK N   1      37.480   6.749  15.828  0.00  0.00     0.210 C 
ENDBRANCH  14  30
BRANCH  13  32
HETATM   32  O   UNK N   1      36.403   8.873  18.522  0.00  0.00    -0.353 OA
HETATM   33  C   UNK N   1      35.250   8.182  18.824  0.00  0.00     0.210 C 
ENDBRANCH  13  32
TORSDOF 8
ENDMDL
MODEL 6
REMARK VINA RESULT:      -6.9      4.230     11.774
REMARK  8 active torsions:
REMARK  status: ('A' for Active; 'I' for Inactive)
REMARK    1  A    between atoms: O_3  and  C_27 
REMARK    2  A    between atoms: O_4  and  C_28 
REMARK       I    between atoms: N_5  and  C_16 
REMARK    3  A    between atoms: N_5  and  C_17 
REMARK    4  A    between atoms: N_6  and  C_19 
REMARK       I    between atoms: N_6  and  C_20 
REMARK    5  A    between atoms: N_11  and  C_24 
REMARK    6  A    between atoms: C_12  and  C_16 
REMARK    7  A    between atoms: C_17  and  C_18 
REMARK    8  A    between atoms: C_18  and  C_19 
ROOT
HETATM    1  N   UNK N   1      28.313  18.271   5.289  0.00  0.00    -0.222 N 
HETATM    2  N   UNK N   1      30.348  17.422   6.283  0.00  0.00    -0.191 N 
ATOM      3  HN  UNK N   1      29.903  17.501   7.197  1.00  0.00     0.184 HD
HETATM    4  N   UNK N   1      30.243  17.642   3.945  0.00  0.00    -0.176 N 
ATOM      5  HN  UNK N   1      29.716  17.897   3.109  1.00  0.00     0.186 HD
HETATM    6  C   UNK N   1      29.649  17.765   5.165  0.00  0.00     0.681 A 
HETATM    7  C   UNK N   1      27.719  18.340   6.601  0.00  0.00     0.168 C 
HETATM    8  C   UNK N   1      32.246  16.851   4.946  0.00  0.00     0.038 A 
HETATM    9  C   UNK N   1      31.627  16.974   6.201  0.00  0.00     0.066 A 
HETATM   10  C   UNK N   1      31.514  17.192   3.809  0.00  0.00     0.127 A 
HETATM   11  C   UNK N   1      33.567  16.404   4.860  0.00  0.00     0.057 A 
HETATM   12  C   UNK N   1      32.332  16.650   7.359  0.00  0.00     0.070 A 
HETATM   13  C   UNK N   1      34.284  16.081   6.025  0.00  0.00     0.102 A 
HETATM   14  C   UNK N   1      33.665  16.203   7.281  0.00  0.00     0.103 A 
ENDROOT
BRANCH   1  15
HETATM   15  C   UNK N   1      27.512  18.793   4.189  0.00  0.00     0.142 C 
BRANCH  15  16
HETATM   16  C   UNK N   1      26.532  19.917   4.519  0.00  0.00     0.040 C 
BRANCH  16  17
HETATM   17  C   UNK N   1      25.702  20.263   3.292  0.00  0.00     0.124 C 
BRANCH  17  18
HETATM   18  N   UNK N   1      24.453  19.548   3.368  0.00  0.00    -0.359 N 
HETATM   19  C   UNK N   1      23.260  20.164   3.183  0.00  0.00     0.246 C 
HETATM   20  O   UNK N   1      23.209  21.331   2.823  0.00  0.00    -0.271 OA
HETATM   21  H   UNK N   1      24.468  18.583   3.562  0.00  0.00     0.162 HD
BRANCH  19  22
HETATM   22  C   UNK N   1      21.998  19.429   3.482  0.00  0.00     0.213 C 
HETATM   23  O   UNK N   1      21.120  19.485   2.395  0.00  0.00    -0.376 OA
HETATM   24  C   UNK N   1      20.299  18.360   2.563  0.00  0.00     0.168 C 
HETATM   25  C   UNK N   1      21.123  17.257   3.194  0.00  0.00     0.029 C 
HETATM   26  C   UNK N   1      22.321  17.973   3.735  0.00  0.00     0.043 C 
ENDBRANCH  19  22
ENDBRANCH  17  18
ENDBRANCH  16  17
ENDBRANCH  15  16
ENDBRANCH   1  15
BRANCH  10  27
HETATM   27  N   UNK N   1      32.081  17.088   2.520  0.00  0.00    -0.384 N 
HETATM   28  H   UNK N   1      32.551  17.857   2.125  0.00  0.00     0.157 HD
HETATM   29  H   UNK N   1      32.007  16.245   2.016  0.00  0.00     0.157 HD
ENDBRANCH  10  27
BRANCH  14  30
HETATM   30  O   UNK N   1      34.366  15.893   8.398  0.00  0.00    -0.353 OA
HETATM   31  C   UNK N   1      34.154  14.745   9.127  0.00  0.00     0.210 C 
ENDBRANCH  14  30
BRANCH  13  32
HETATM   32  O   UNK N   1      35.570  15.655   5.957  0.00  0.00    -0.353 OA
HETATM   33  C   UNK N   1      35.930  14.419   5.470  0.00  0.00     0.210 C 
ENDBRANCH  13  32
TORSDOF 8
ENDMDL
MODEL 7
REMARK VINA RESULT:      -6.8      3.988     12.036
REMARK  8 active torsions:
REMARK  status: ('A' for Active; 'I' for Inactive)
REMARK    1  A    between atoms: O_3  and  C_27 
REMARK    2  A    between atoms: O_4  and  C_28 
REMARK       I    between atoms: N_5  and  C_16 
REMARK    3  A    between atoms: N_5  and  C_17 
REMARK    4  A    between atoms: N_6  and  C_19 
REMARK       I    between atoms: N_6  and  C_20 
REMARK    5  A    between atoms: N_11  and  C_24 
REMARK    6  A    between atoms: C_12  and  C_16 
REMARK    7  A    between atoms: C_17  and  C_18 
REMARK    8  A    between atoms: C_18  and  C_19 
ROOT
HETATM    1  N   UNK N   1      36.274  12.898  14.242  0.00  0.00    -0.222 N 
HETATM    2  N   UNK N   1      35.897  11.377  16.084  0.00  0.00    -0.191 N 
ATOM      3  HN  UNK N   1      36.067  10.601  15.444  1.00  0.00     0.184 HD
HETATM    4  N   UNK N   1      35.771  13.689  16.489  0.00  0.00    -0.176 N 
ATOM      5  HN  UNK N   1      35.841  14.646  16.143  1.00  0.00     0.186 HD
HETATM    6  C   UNK N   1      35.984  12.657  15.625  0.00  0.00     0.681 A 
HETATM    7  C   UNK N   1      36.532  11.770  13.383  0.00  0.00     0.168 C 
HETATM    8  C   UNK N   1      35.362  12.176  18.273  0.00  0.00     0.038 A 
HETATM    9  C   UNK N   1      35.588  11.115  17.379  0.00  0.00     0.066 A 
HETATM   10  C   UNK N   1      35.470  13.482  17.793  0.00  0.00     0.127 A 
HETATM   11  C   UNK N   1      35.031  11.909  19.603  0.00  0.00     0.057 A 
HETATM   12  C   UNK N   1      35.481   9.798  17.823  0.00  0.00     0.070 A 
HETATM   13  C   UNK N   1      34.916  10.583  20.055  0.00  0.00     0.102 A 
HETATM   14  C   UNK N   1      35.143   9.521  19.161  0.00  0.00     0.103 A 
ENDROOT
BRANCH   1  15
HETATM   15  C   UNK N   1      36.265  14.208  13.603  0.00  0.00     0.142 C 
BRANCH  15  16
HETATM   16  C   UNK N   1      35.437  14.350  12.327  0.00  0.00     0.040 C 
BRANCH  16  17
HETATM   17  C   UNK N   1      36.285  14.957  11.220  0.00  0.00     0.124 C 
BRANCH  17  18
HETATM   18  N   UNK N   1      35.447  15.173  10.068  0.00  0.00    -0.359 N 
HETATM   19  C   UNK N   1      35.071  16.415   9.675  0.00  0.00     0.246 C 
HETATM   20  O   UNK N   1      35.534  17.408  10.218  0.00  0.00    -0.271 OA
HETATM   21  H   UNK N   1      35.136  14.395   9.552  0.00  0.00     0.162 HD
BRANCH  19  22
HETATM   22  C   UNK N   1      34.036  16.570   8.614  0.00  0.00     0.213 C 
HETATM   23  O   UNK N   1      32.821  16.010   9.019  0.00  0.00    -0.376 OA
HETATM   24  C   UNK N   1      31.862  16.686   8.251  0.00  0.00     0.168 C 
HETATM   25  C   UNK N   1      32.342  18.104   8.028  0.00  0.00     0.029 C 
HETATM   26  C   UNK N   1      33.799  18.044   8.366  0.00  0.00     0.043 C 
ENDBRANCH  19  22
ENDBRANCH  17  18
ENDBRANCH  16  17
ENDBRANCH  15  16
ENDBRANCH   1  15
BRANCH  10  27
HETATM   27  N   UNK N   1      35.255  14.589  18.643  0.00  0.00    -0.384 N 
HETATM   28  H   UNK N   1      36.022  15.051  19.052  0.00  0.00     0.157 HD
HETATM   29  H   UNK N   1      34.339  14.898  18.827  0.00  0.00     0.157 HD
ENDBRANCH  10  27
BRANCH  14  30
HETATM   30  O   UNK N   1      35.027   8.246  19.605  0.00  0.00    -0.353 OA
HETATM   31  C   UNK N   1      34.282   7.287  18.959  0.00  0.00     0.210 C 
ENDBRANCH  14  30
BRANCH  13  32
HETATM   32  O   UNK N   1      34.586  10.310  21.341  0.00  0.00    -0.353 OA
HETATM   33  C   UNK N   1      33.293  10.351  21.812  0.00  0.00     0.210 C 
ENDBRANCH  13  32
TORSDOF 8
ENDMDL
MODEL 8
REMARK VINA RESULT:      -6.7      5.458      8.846
REMARK  8 active torsions:
REMARK  status: ('A' for Active; 'I' for Inactive)
REMARK    1  A    between atoms: O_3  and  C_27 
REMARK    2  A    between atoms: O_4  and  C_28 
REMARK       I    between atoms: N_5  and  C_16 
REMARK    3  A    between atoms: N_5  and  C_17 
REMARK    4  A    between atoms: N_6  and  C_19 
REMARK       I    between atoms: N_6  and  C_20 
REMARK    5  A    between atoms: N_11  and  C_24 
REMARK    6  A    between atoms: C_12  and  C_16 
REMARK    7  A    between atoms: C_17  and  C_18 
REMARK    8  A    between atoms: C_18  and  C_19 
ROOT
HETATM    1  N   UNK N   1      26.420  16.001   5.381  0.00  0.00    -0.222 N 
HETATM    2  N   UNK N   1      28.795  16.411   5.590  0.00  0.00    -0.191 N 
ATOM      3  HN  UNK N   1      28.916  16.027   4.652  1.00  0.00     0.184 HD
HETATM    4  N   UNK N   1      27.387  17.020   7.371  0.00  0.00    -0.176 N 
ATOM      5  HN  UNK N   1      26.448  17.082   7.767  1.00  0.00     0.186 HD
HETATM    6  C   UNK N   1      27.544  16.492   6.124  0.00  0.00     0.681 A 
HETATM    7  C   UNK N   1      26.640  15.492   4.051  0.00  0.00     0.168 C 
HETATM    8  C   UNK N   1      29.726  17.374   7.571  0.00  0.00     0.038 A 
HETATM    9  C   UNK N   1      29.883  16.833   6.283  0.00  0.00     0.066 A 
HETATM   10  C   UNK N   1      28.438  17.464   8.099  0.00  0.00     0.127 A 
HETATM   11  C   UNK N   1      30.846  17.796   8.291  0.00  0.00     0.057 A 
HETATM   12  C   UNK N   1      31.156  16.721   5.727  0.00  0.00     0.070 A 
HETATM   13  C   UNK N   1      32.132  17.680   7.738  0.00  0.00     0.102 A 
HETATM   14  C   UNK N   1      32.290  17.140   6.448  0.00  0.00     0.103 A 
ENDROOT
BRANCH   1  15
HETATM   15  C   UNK N   1      25.058  15.911   5.891  0.00  0.00     0.142 C 
BRANCH  15  16
HETATM   16  C   UNK N   1      24.564  14.525   6.301  0.00  0.00     0.040 C 
BRANCH  16  17
HETATM   17  C   UNK N   1      25.248  14.086   7.587  0.00  0.00     0.124 C 
BRANCH  17  18
HETATM   18  N   UNK N   1      24.296  13.360   8.387  0.00  0.00    -0.359 N 
HETATM   19  C   UNK N   1      24.547  13.025   9.677  0.00  0.00     0.246 C 
HETATM   20  O   UNK N   1      25.548  13.436  10.245  0.00  0.00    -0.271 OA
HETATM   21  H   UNK N   1      23.436  13.098   7.985  0.00  0.00     0.162 HD
BRANCH  19  22
HETATM   22  C   UNK N   1      23.625  12.094  10.389  0.00  0.00     0.213 C 
HETATM   23  O   UNK N   1      23.770  12.214  11.775  0.00  0.00    -0.376 OA
HETATM   24  C   UNK N   1      22.544  11.764  12.285  0.00  0.00     0.168 C 
HETATM   25  C   UNK N   1      21.452  12.140  11.306  0.00  0.00     0.029 C 
HETATM   26  C   UNK N   1      22.197  12.454  10.046  0.00  0.00     0.043 C 
ENDBRANCH  19  22
ENDBRANCH  17  18
ENDBRANCH  16  17
ENDBRANCH  15  16
ENDBRANCH   1  15
BRANCH  10  27
HETATM   27  N   UNK N   1      28.217  17.999   9.387  0.00  0.00    -0.384 N 
HETATM   28  H   UNK N   1      28.798  18.716   9.729  0.00  0.00     0.157 HD
HETATM   29  H   UNK N   1      27.482  17.656   9.943  0.00  0.00     0.157 HD
ENDBRANCH  10  27
BRANCH  14  30
HETATM   30  O   UNK N   1      33.534  17.028   5.924  0.00  0.00    -0.353 OA
HETATM   31  C   UNK N   1      34.046  15.847   5.437  0.00  0.00     0.210 C 
ENDBRANCH  14  30
BRANCH  13  32
HETATM   32  O   UNK N   1      33.228  18.076   8.430  0.00  0.00    -0.353 OA
HETATM   33  C   UNK N   1      34.094  17.197   9.040  0.00  0.00     0.210 C 
ENDBRANCH  13  32
TORSDOF 8
ENDMDL
MODEL 9
REMARK VINA RESULT:      -6.6      5.248     11.709
REMARK  8 active torsions:
REMARK  status: ('A' for Active; 'I' for Inactive)
REMARK    1  A    between atoms: O_3  and  C_27 
REMARK    2  A    between atoms: O_4  and  C_28 
REMARK       I    between atoms: N_5  and  C_16 
REMARK    3  A    between atoms: N_5  and  C_17 
REMARK    4  A    between atoms: N_6  and  C_19 
REMARK       I    between atoms: N_6  and  C_20 
REMARK    5  A    between atoms: N_11  and  C_24 
REMARK    6  A    between atoms: C_12  and  C_16 
REMARK    7  A    between atoms: C_17  and  C_18 
REMARK    8  A    between atoms: C_18  and  C_19 
ROOT
HETATM    1  N   UNK N   1      26.183  16.848   4.630  0.00  0.00    -0.222 N 
HETATM    2  N   UNK N   1      28.537  16.671   5.158  0.00  0.00    -0.191 N 
ATOM      3  HN  UNK N   1      28.673  16.192   4.268  1.00  0.00     0.184 HD
HETATM    4  N   UNK N   1      27.119  17.757   6.686  0.00  0.00    -0.176 N 
ATOM      5  HN  UNK N   1      26.187  18.083   6.940  1.00  0.00     0.186 HD
HETATM    6  C   UNK N   1      27.292  17.104   5.503  0.00  0.00     0.681 A 
HETATM    7  C   UNK N   1      26.431  16.191   3.372  0.00  0.00     0.168 C 
HETATM    8  C   UNK N   1      29.426  17.533   7.203  0.00  0.00     0.038 A 
HETATM    9  C   UNK N   1      29.600  16.865   5.979  0.00  0.00     0.066 A 
HETATM   10  C   UNK N   1      28.149  17.985   7.536  0.00  0.00     0.127 A 
HETATM   11  C   UNK N   1      30.516  17.722   8.055  0.00  0.00     0.057 A 
HETATM   12  C   UNK N   1      30.861  16.393   5.618  0.00  0.00     0.070 A 
HETATM   13  C   UNK N   1      31.789  17.244   7.699  0.00  0.00     0.102 A 
HETATM   14  C   UNK N   1      31.963  16.576   6.474  0.00  0.00     0.103 A 
ENDROOT
BRANCH   1  15
HETATM   15  C   UNK N   1      24.790  17.142   4.943  0.00  0.00     0.142 C 
BRANCH  15  16
HETATM   16  C   UNK N   1      24.007  16.064   5.690  0.00  0.00     0.040 C 
BRANCH  16  17
HETATM   17  C   UNK N   1      22.596  16.551   5.981  0.00  0.00     0.124 C 
BRANCH  17  18
HETATM   18  N   UNK N   1      22.228  17.514   4.974  0.00  0.00    -0.359 N 
HETATM   19  C   UNK N   1      21.420  18.568   5.248  0.00  0.00     0.246 C 
HETATM   20  O   UNK N   1      21.073  18.807   6.395  0.00  0.00    -0.271 OA
HETATM   21  H   UNK N   1      22.572  17.402   4.058  0.00  0.00     0.162 HD
BRANCH  19  22
HETATM   22  C   UNK N   1      20.900  19.407   4.131  0.00  0.00     0.213 C 
HETATM   23  O   UNK N   1      21.941  20.096   3.500  0.00  0.00    -0.376 OA
HETATM   24  C   UNK N   1      21.445  20.356   2.214  0.00  0.00     0.168 C 
HETATM   25  C   UNK N   1      20.547  19.209   1.807  0.00  0.00     0.029 C 
HETATM   26  C   UNK N   1      20.254  18.511   3.098  0.00  0.00     0.043 C 
ENDBRANCH  19  22
ENDBRANCH  17  18
ENDBRANCH  16  17
ENDBRANCH  15  16
ENDBRANCH   1  15
BRANCH  10  27
HETATM   27  N   UNK N   1      27.912  18.663   8.751  0.00  0.00    -0.384 N 
HETATM   28  H   UNK N   1      27.484  19.550   8.745  0.00  0.00     0.157 HD
HETATM   29  H   UNK N   1      28.174  18.250   9.606  0.00  0.00     0.157 HD
ENDBRANCH  10  27
BRANCH  14  30
HETATM   30  O   UNK N   1      33.193  16.116   6.140  0.00  0.00    -0.353 OA
HETATM   31  C   UNK N   1      33.692  16.155   4.858  0.00  0.00     0.210 C 
ENDBRANCH  14  30
BRANCH  13  32
HETATM   32  O   UNK N   1      32.853  17.412   8.521  0.00  0.00    -0.353 OA
HETATM   33  C   UNK N   1      33.885  18.282   8.250  0.00  0.00     0.210 C 
ENDBRANCH  13  32
TORSDOF 8
ENDMDL
