REMARK  4 active torsions:
REMARK  status: ('A' for Active; 'I' for Inactive)
REMARK    1  A    between atoms: O_4  and  C_16 
REMARK    2  A    between atoms: N_8  and  C_10 
REMARK       I    between atoms: N_8  and  C_17 
REMARK    3  A    between atoms: N_9  and  C_11 
REMARK       I    between atoms: N_9  and  C_18 
REMARK    4  A    between atoms: C_13  and  C_16 
ROOT
HETATM    1  I   UNK N   1       0.565   1.221  -0.254  0.00  0.00    -0.040 I 
HETATM    2  I   UNK N   1       6.585   1.244  -1.220  0.00  0.00    -0.041 I 
HETATM    3  I   UNK N   1       3.654  -3.860   1.072  0.00  0.00    -0.041 I 
HETATM    4  C   UNK N   1       2.456  -1.161   0.187  0.00  0.00     0.071 A 
HETATM    5  C   UNK N   1       3.608   0.866  -0.503  0.00  0.00     0.071 A 
HETATM    6  C   UNK N   1       2.429   0.186  -0.181  0.00  0.00     0.062 A 
HETATM    7  C   UNK N   1       4.905  -1.192  -0.092  0.00  0.00     0.075 A 
HETATM    8  C   UNK N   1       4.847   0.181  -0.495  0.00  0.00     0.052 A 
HETATM    9  C   UNK N   1       3.688  -1.854   0.272  0.00  0.00     0.052 A 
ENDROOT
BRANCH   4  10
HETATM   10  N   UNK N   1       1.220  -1.804   0.493  0.00  0.00    -0.325 N 
HETATM   11  C   UNK N   1       0.772  -2.915  -0.150  0.00  0.00     0.218 C 
HETATM   12  O   UNK N   1       1.392  -3.390  -1.090  0.00  0.00    -0.274 OA
HETATM   13  C   UNK N   1      -0.511  -3.542   0.270  0.00  0.00     0.117 C 
HETATM   14  H   UNK N   1       0.660  -1.422   1.208  0.00  0.00     0.169 HD
ENDBRANCH   4  10
BRANCH   5  15
HETATM   15  N   UNK N   1       3.516   2.240  -0.869  0.00  0.00    -0.325 N 
HETATM   16  C   UNK N   1       4.184   3.240  -0.234  0.00  0.00     0.218 C 
HETATM   17  O   UNK N   1       4.860   3.012   0.759  0.00  0.00    -0.274 OA
HETATM   18  C   UNK N   1       4.057   4.639  -0.727  0.00  0.00     0.117 C 
HETATM   19  H   UNK N   1       2.935   2.480  -1.627  0.00  0.00     0.169 HD
ENDBRANCH   5  15
BRANCH   7  20
HETATM   20  C   UNK N   1       6.221  -1.931  -0.055  0.00  0.00     0.178 C 
HETATM   21  O   UNK N   1       7.279  -1.326  -0.073  0.00  0.00    -0.646 OA
BRANCH  20  22
HETATM   22  O   UNK N   1       6.270  -3.272  -0.021  0.00  0.00    -0.773 OA
HETATM   23  H   UNK N   1       5.477  -3.770   0.003  0.00  0.00     0.167 HD
ENDBRANCH  20  22
ENDBRANCH   7  20
TORSDOF 4
