MODEL 1
REMARK VINA RESULT:      -5.5      0.000      0.000
REMARK  4 active torsions:
REMARK  status: ('A' for Active; 'I' for Inactive)
REMARK    1  A    between atoms: O_4  and  C_16 
REMARK    2  A    between atoms: N_8  and  C_10 
REMARK       I    between atoms: N_8  and  C_17 
REMARK    3  A    between atoms: N_9  and  C_11 
REMARK       I    between atoms: N_9  and  C_18 
REMARK    4  A    between atoms: C_13  and  C_16 
ROOT
HETATM    1  I   UNK N   1      29.453  18.395   9.408  0.00  0.00    -0.040 I 
HETATM    2  I   UNK N   1      32.000  15.043   4.997  0.00  0.00    -0.041 I 
HETATM    3  I   UNK N   1      26.505  18.023   4.090  0.00  0.00    -0.041 I 
HETATM    4  C   UNK N   1      28.342  18.040   6.565  0.00  0.00     0.071 A 
HETATM    5  C   UNK N   1      30.350  16.734   6.983  0.00  0.00     0.071 A 
HETATM    6  C   UNK N   1      29.372  17.633   7.417  0.00  0.00     0.062 A 
HETATM    7  C   UNK N   1      29.267  16.628   4.769  0.00  0.00     0.075 A 
HETATM    8  C   UNK N   1      30.329  16.250   5.652  0.00  0.00     0.052 A 
HETATM    9  C   UNK N   1      28.255  17.519   5.251  0.00  0.00     0.052 A 
ENDROOT
BRANCH   4  10
HETATM   10  N   UNK N   1      27.380  18.968   7.061  0.00  0.00    -0.325 N 
HETATM   11  C   UNK N   1      27.368  20.287   6.730  0.00  0.00     0.218 C 
HETATM   12  O   UNK N   1      28.244  20.765   6.024  0.00  0.00    -0.274 OA
HETATM   13  C   UNK N   1      26.295  21.170   7.263  0.00  0.00     0.117 C 
HETATM   14  H   UNK N   1      26.687  18.637   7.678  0.00  0.00     0.169 HD
ENDBRANCH   4  10
BRANCH   5  15
HETATM   15  N   UNK N   1      31.374  16.356   7.899  0.00  0.00    -0.325 N 
HETATM   16  C   UNK N   1      32.557  17.014   8.029  0.00  0.00     0.218 C 
HETATM   17  O   UNK N   1      32.840  17.948   7.292  0.00  0.00    -0.274 OA
HETATM   18  C   UNK N   1      33.540  16.567   9.052  0.00  0.00     0.117 C 
HETATM   19  H   UNK N   1      31.216  15.571   8.473  0.00  0.00     0.169 HD
ENDBRANCH   5  15
BRANCH   7  20
HETATM   20  C   UNK N   1      29.216  16.103   3.354  0.00  0.00     0.178 C 
HETATM   21  O   UNK N   1      28.626  15.069   3.091  0.00  0.00    -0.646 OA
BRANCH  20  22
HETATM   22  O   UNK N   1      29.832  16.743   2.347  0.00  0.00    -0.773 OA
HETATM   23  H   UNK N   1      29.525  17.583   2.068  0.00  0.00     0.167 HD
ENDBRANCH  20  22
ENDBRANCH   7  20
TORSDOF 4
ENDMDL
MODEL 2
REMARK VINA RESULT:      -5.5      0.057      4.717
REMARK  4 active torsions:
REMARK  status: ('A' for Active; 'I' for Inactive)
REMARK    1  A    between atoms: O_4  and  C_16 
REMARK    2  A    between atoms: N_8  and  C_10 
REMARK       I    between atoms: N_8  and  C_17 
REMARK    3  A    between atoms: N_9  and  C_11 
REMARK       I    between atoms: N_9  and  C_18 
REMARK    4  A    between atoms: C_13  and  C_16 
ROOT
HETATM    1  I   UNK N   1      29.462  18.377   9.424  0.00  0.00    -0.040 I 
HETATM    2  I   UNK N   1      26.569  18.086   4.065  0.00  0.00    -0.041 I 
HETATM    3  I   UNK N   1      32.061  15.106   4.989  0.00  0.00    -0.041 I 
HETATM    4  C   UNK N   1      30.384  16.758   6.980  0.00  0.00     0.071 A 
HETATM    5  C   UNK N   1      28.377  18.067   6.564  0.00  0.00     0.071 A 
HETATM    6  C   UNK N   1      29.401  17.648   7.420  0.00  0.00     0.062 A 
HETATM    7  C   UNK N   1      29.316  16.672   4.759  0.00  0.00     0.075 A 
HETATM    8  C   UNK N   1      28.304  17.562   5.244  0.00  0.00     0.052 A 
HETATM    9  C   UNK N   1      30.376  16.290   5.643  0.00  0.00     0.052 A 
ENDROOT
BRANCH   4  10
HETATM   10  N   UNK N   1      31.396  16.357   7.901  0.00  0.00    -0.325 N 
HETATM   11  C   UNK N   1      32.570  17.023   8.063  0.00  0.00     0.218 C 
HETATM   12  O   UNK N   1      32.850  17.984   7.361  0.00  0.00    -0.274 OA
HETATM   13  C   UNK N   1      33.548  16.554   9.083  0.00  0.00     0.117 C 
HETATM   14  H   UNK N   1      31.237  15.554   8.449  0.00  0.00     0.169 HD
ENDBRANCH   4  10
BRANCH   5  15
HETATM   15  N   UNK N   1      27.405  18.978   7.071  0.00  0.00    -0.325 N 
HETATM   16  C   UNK N   1      27.375  20.302   6.764  0.00  0.00     0.218 C 
HETATM   17  O   UNK N   1      28.249  20.807   6.075  0.00  0.00    -0.274 OA
HETATM   18  C   UNK N   1      26.286  21.159   7.308  0.00  0.00     0.117 C 
HETATM   19  H   UNK N   1      26.715  18.628   7.679  0.00  0.00     0.169 HD
ENDBRANCH   5  15
BRANCH   7  20
HETATM   20  C   UNK N   1      29.266  16.142   3.347  0.00  0.00     0.178 C 
HETATM   21  O   UNK N   1      28.672  15.109   3.086  0.00  0.00    -0.646 OA
BRANCH  20  22
HETATM   22  O   UNK N   1      29.886  16.775   2.339  0.00  0.00    -0.773 OA
HETATM   23  H   UNK N   1      30.653  16.402   1.951  0.00  0.00     0.167 HD
ENDBRANCH  20  22
ENDBRANCH   7  20
TORSDOF 4
ENDMDL
MODEL 3
REMARK VINA RESULT:      -5.3      1.978      6.085
REMARK  4 active torsions:
REMARK  status: ('A' for Active; 'I' for Inactive)
REMARK    1  A    between atoms: O_4  and  C_16 
REMARK    2  A    between atoms: N_8  and  C_10 
REMARK       I    between atoms: N_8  and  C_17 
REMARK    3  A    between atoms: N_9  and  C_11 
REMARK       I    between atoms: N_9  and  C_18 
REMARK    4  A    between atoms: C_13  and  C_16 
ROOT
HETATM    1  I   UNK N   1      29.677  14.635   4.466  0.00  0.00    -0.040 I 
HETATM    2  I   UNK N   1      26.242  19.630   3.810  0.00  0.00    -0.041 I 
HETATM    3  I   UNK N   1      29.605  18.632   9.063  0.00  0.00    -0.041 I 
HETATM    4  C   UNK N   1      29.451  16.929   6.498  0.00  0.00     0.071 A 
HETATM    5  C   UNK N   1      28.004  17.212   4.565  0.00  0.00     0.071 A 
HETATM    6  C   UNK N   1      28.960  16.476   5.272  0.00  0.00     0.062 A 
HETATM    7  C   UNK N   1      28.013  18.925   6.340  0.00  0.00     0.075 A 
HETATM    8  C   UNK N   1      27.548  18.453   5.070  0.00  0.00     0.052 A 
HETATM    9  C   UNK N   1      28.962  18.132   7.063  0.00  0.00     0.052 A 
ENDROOT
BRANCH   4  10
HETATM   10  N   UNK N   1      30.433  16.141   7.168  0.00  0.00    -0.325 N 
HETATM   11  C   UNK N   1      31.771  16.362   7.065  0.00  0.00     0.218 C 
HETATM   12  O   UNK N   1      32.210  17.227   6.322  0.00  0.00    -0.274 OA
HETATM   13  C   UNK N   1      32.719  15.513   7.837  0.00  0.00     0.117 C 
HETATM   14  H   UNK N   1      30.126  15.396   7.734  0.00  0.00     0.169 HD
ENDBRANCH   4  10
BRANCH   5  15
HETATM   15  N   UNK N   1      27.540  16.696   3.320  0.00  0.00    -0.325 N 
HETATM   16  C   UNK N   1      26.413  15.948   3.183  0.00  0.00     0.218 C 
HETATM   17  O   UNK N   1      25.761  15.609   4.160  0.00  0.00    -0.274 OA
HETATM   18  C   UNK N   1      25.989  15.498   1.828  0.00  0.00     0.117 C 
HETATM   19  H   UNK N   1      28.067  16.893   2.512  0.00  0.00     0.169 HD
ENDBRANCH   5  15
BRANCH   7  20
HETATM   20  C   UNK N   1      27.519  20.235   6.905  0.00  0.00     0.178 C 
HETATM   21  O   UNK N   1      27.950  21.298   6.490  0.00  0.00    -0.646 OA
BRANCH  20  22
HETATM   22  O   UNK N   1      26.608  20.273   7.890  0.00  0.00    -0.773 OA
HETATM   23  H   UNK N   1      26.829  19.962   8.745  0.00  0.00     0.167 HD
ENDBRANCH  20  22
ENDBRANCH   7  20
TORSDOF 4
ENDMDL
MODEL 4
REMARK VINA RESULT:      -5.3      5.401      8.371
REMARK  4 active torsions:
REMARK  status: ('A' for Active; 'I' for Inactive)
REMARK    1  A    between atoms: O_4  and  C_16 
REMARK    2  A    between atoms: N_8  and  C_10 
REMARK       I    between atoms: N_8  and  C_17 
REMARK    3  A    between atoms: N_9  and  C_11 
REMARK       I    between atoms: N_9  and  C_18 
REMARK    4  A    between atoms: C_13  and  C_16 
ROOT
HETATM    1  I   UNK N   1      23.186  15.274   6.385  0.00  0.00    -0.040 I 
HETATM    2  I   UNK N   1      20.629  19.364   2.655  0.00  0.00    -0.041 I 
HETATM    3  I   UNK N   1      26.691  19.831   4.368  0.00  0.00    -0.041 I 
HETATM    4  C   UNK N   1      24.631  17.649   5.075  0.00  0.00     0.071 A 
HETATM    5  C   UNK N   1      22.252  17.581   4.580  0.00  0.00     0.071 A 
HETATM    6  C   UNK N   1      23.380  17.043   5.208  0.00  0.00     0.062 A 
HETATM    7  C   UNK N   1      23.640  19.390   3.638  0.00  0.00     0.075 A 
HETATM    8  C   UNK N   1      22.374  18.732   3.766  0.00  0.00     0.052 A 
HETATM    9  C   UNK N   1      24.771  18.842   4.325  0.00  0.00     0.052 A 
ENDROOT
BRANCH   4  10
HETATM   10  N   UNK N   1      25.747  17.049   5.730  0.00  0.00    -0.325 N 
HETATM   11  C   UNK N   1      26.594  16.176   5.122  0.00  0.00     0.218 C 
HETATM   12  O   UNK N   1      26.396  15.804   3.974  0.00  0.00    -0.274 OA
HETATM   13  C   UNK N   1      27.759  15.635   5.874  0.00  0.00     0.117 C 
HETATM   14  H   UNK N   1      25.913  17.278   6.674  0.00  0.00     0.169 HD
ENDBRANCH   4  10
BRANCH   5  15
HETATM   15  N   UNK N   1      21.002  16.918   4.755  0.00  0.00    -0.325 N 
HETATM   16  C   UNK N   1      20.571  15.894   3.971  0.00  0.00     0.218 C 
HETATM   17  O   UNK N   1      21.220  15.529   3.002  0.00  0.00    -0.274 OA
HETATM   18  C   UNK N   1      19.269  15.237   4.270  0.00  0.00     0.117 C 
HETATM   19  H   UNK N   1      20.417  17.219   5.488  0.00  0.00     0.169 HD
ENDBRANCH   5  15
BRANCH   7  20
HETATM   20  C   UNK N   1      23.783  20.633   2.793  0.00  0.00     0.178 C 
HETATM   21  O   UNK N   1      23.218  21.667   3.102  0.00  0.00    -0.646 OA
BRANCH  20  22
HETATM   22  O   UNK N   1      24.516  20.634   1.669  0.00  0.00    -0.773 OA
HETATM   23  H   UNK N   1      24.795  21.445   1.292  0.00  0.00     0.167 HD
ENDBRANCH  20  22
ENDBRANCH   7  20
TORSDOF 4
ENDMDL
MODEL 5
REMARK VINA RESULT:      -5.3      1.991      4.482
REMARK  4 active torsions:
REMARK  status: ('A' for Active; 'I' for Inactive)
REMARK    1  A    between atoms: O_4  and  C_16 
REMARK    2  A    between atoms: N_8  and  C_10 
REMARK       I    between atoms: N_8  and  C_17 
REMARK    3  A    between atoms: N_9  and  C_11 
REMARK       I    between atoms: N_9  and  C_18 
REMARK    4  A    between atoms: C_13  and  C_16 
ROOT
HETATM    1  I   UNK N   1      29.646  14.633   4.457  0.00  0.00    -0.040 I 
HETATM    2  I   UNK N   1      29.614  18.633   9.058  0.00  0.00    -0.041 I 
HETATM    3  I   UNK N   1      26.275  19.665   3.797  0.00  0.00    -0.041 I 
HETATM    4  C   UNK N   1      28.004  17.229   4.558  0.00  0.00     0.071 A 
HETATM    5  C   UNK N   1      29.445  16.927   6.493  0.00  0.00     0.071 A 
HETATM    6  C   UNK N   1      28.949  16.481   5.264  0.00  0.00     0.062 A 
HETATM    7  C   UNK N   1      28.017  18.932   6.340  0.00  0.00     0.075 A 
HETATM    8  C   UNK N   1      28.963  18.132   7.058  0.00  0.00     0.052 A 
HETATM    9  C   UNK N   1      27.556  18.473   5.064  0.00  0.00     0.052 A 
ENDROOT
BRANCH   4  10
HETATM   10  N   UNK N   1      27.527  16.717   3.315  0.00  0.00    -0.325 N 
HETATM   11  C   UNK N   1      26.403  15.962   3.196  0.00  0.00     0.218 C 
HETATM   12  O   UNK N   1      25.767  15.622   4.183  0.00  0.00    -0.274 OA
HETATM   13  C   UNK N   1      25.958  15.510   1.849  0.00  0.00     0.117 C 
HETATM   14  H   UNK N   1      28.040  16.921   2.499  0.00  0.00     0.169 HD
ENDBRANCH   4  10
BRANCH   5  15
HETATM   15  N   UNK N   1      30.409  16.120   7.164  0.00  0.00    -0.325 N 
HETATM   16  C   UNK N   1      31.753  16.310   7.072  0.00  0.00     0.218 C 
HETATM   17  O   UNK N   1      32.217  17.162   6.328  0.00  0.00    -0.274 OA
HETATM   18  C   UNK N   1      32.674  15.441   7.854  0.00  0.00     0.117 C 
HETATM   19  H   UNK N   1      30.084  15.382   7.729  0.00  0.00     0.169 HD
ENDBRANCH   5  15
BRANCH   7  20
HETATM   20  C   UNK N   1      27.511  20.233   6.916  0.00  0.00     0.178 C 
HETATM   21  O   UNK N   1      27.920  21.303   6.501  0.00  0.00    -0.646 OA
BRANCH  20  22
HETATM   22  O   UNK N   1      26.612  20.253   7.913  0.00  0.00    -0.773 OA
HETATM   23  H   UNK N   1      26.146  19.473   8.141  0.00  0.00     0.167 HD
ENDBRANCH  20  22
ENDBRANCH   7  20
TORSDOF 4
ENDMDL
MODEL 6
REMARK VINA RESULT:      -5.2      5.408      7.224
REMARK  4 active torsions:
REMARK  status: ('A' for Active; 'I' for Inactive)
REMARK    1  A    between atoms: O_4  and  C_16 
REMARK    2  A    between atoms: N_8  and  C_10 
REMARK       I    between atoms: N_8  and  C_17 
REMARK    3  A    between atoms: N_9  and  C_11 
REMARK       I    between atoms: N_9  and  C_18 
REMARK    4  A    between atoms: C_13  and  C_16 
ROOT
HETATM    1  I   UNK N   1      23.178  15.334   6.356  0.00  0.00    -0.040 I 
HETATM    2  I   UNK N   1      26.716  19.835   4.262  0.00  0.00    -0.041 I 
HETATM    3  I   UNK N   1      20.641  19.395   2.590  0.00  0.00    -0.041 I 
HETATM    4  C   UNK N   1      22.259  17.627   4.529  0.00  0.00     0.071 A 
HETATM    5  C   UNK N   1      24.642  17.678   5.012  0.00  0.00     0.071 A 
HETATM    6  C   UNK N   1      23.383  17.086   5.158  0.00  0.00     0.062 A 
HETATM    7  C   UNK N   1      23.654  19.420   3.571  0.00  0.00     0.075 A 
HETATM    8  C   UNK N   1      24.785  18.863   4.250  0.00  0.00     0.052 A 
HETATM    9  C   UNK N   1      22.384  18.771   3.703  0.00  0.00     0.052 A 
ENDROOT
BRANCH   4  10
HETATM   10  N   UNK N   1      21.000  16.986   4.723  0.00  0.00    -0.325 N 
HETATM   11  C   UNK N   1      20.554  15.958   3.953  0.00  0.00     0.218 C 
HETATM   12  O   UNK N   1      21.198  15.568   2.991  0.00  0.00    -0.274 OA
HETATM   13  C   UNK N   1      19.244  15.322   4.261  0.00  0.00     0.117 C 
HETATM   14  H   UNK N   1      20.422  17.305   5.454  0.00  0.00     0.169 HD
ENDBRANCH   4  10
BRANCH   5  15
HETATM   15  N   UNK N   1      25.750  17.079   5.677  0.00  0.00    -0.325 N 
HETATM   16  C   UNK N   1      26.598  16.193   5.089  0.00  0.00     0.218 C 
HETATM   17  O   UNK N   1      26.402  15.799   3.948  0.00  0.00    -0.274 OA
HETATM   18  C   UNK N   1      27.756  15.661   5.858  0.00  0.00     0.117 C 
HETATM   19  H   UNK N   1      25.913  17.321   6.618  0.00  0.00     0.169 HD
ENDBRANCH   5  15
BRANCH   7  20
HETATM   20  C   UNK N   1      23.794  20.669   2.735  0.00  0.00     0.178 C 
HETATM   21  O   UNK N   1      24.503  20.683   1.744  0.00  0.00    -0.646 OA
BRANCH  20  22
HETATM   22  O   UNK N   1      23.160  21.806   3.064  0.00  0.00    -0.773 OA
HETATM   23  H   UNK N   1      23.524  22.634   2.818  0.00  0.00     0.167 HD
ENDBRANCH  20  22
ENDBRANCH   7  20
TORSDOF 4
ENDMDL
MODEL 7
REMARK VINA RESULT:      -5.2     12.079     14.341
REMARK  4 active torsions:
REMARK  status: ('A' for Active; 'I' for Inactive)
REMARK    1  A    between atoms: O_4  and  C_16 
REMARK    2  A    between atoms: N_8  and  C_10 
REMARK       I    between atoms: N_8  and  C_17 
REMARK    3  A    between atoms: N_9  and  C_11 
REMARK       I    between atoms: N_9  and  C_18 
REMARK    4  A    between atoms: C_13  and  C_16 
ROOT
HETATM    1  I   UNK N   1      26.020  24.307  -7.516  0.00  0.00    -0.040 I 
HETATM    2  I   UNK N   1      30.461  24.050  -3.347  0.00  0.00    -0.041 I 
HETATM    3  I   UNK N   1      29.692  19.447  -7.603  0.00  0.00    -0.041 I 
HETATM    4  C   UNK N   1      28.134  22.088  -7.290  0.00  0.00     0.071 A 
HETATM    5  C   UNK N   1      28.301  23.758  -5.531  0.00  0.00     0.071 A 
HETATM    6  C   UNK N   1      27.680  23.260  -6.681  0.00  0.00     0.062 A 
HETATM    7  C   UNK N   1      29.893  21.873  -5.576  0.00  0.00     0.075 A 
HETATM    8  C   UNK N   1      29.427  23.094  -4.988  0.00  0.00     0.052 A 
HETATM    9  C   UNK N   1      29.214  21.363  -6.730  0.00  0.00     0.052 A 
ENDROOT
BRANCH   4  10
HETATM   10  N   UNK N   1      27.468  21.636  -8.468  0.00  0.00    -0.325 N 
HETATM   11  C   UNK N   1      27.881  21.938  -9.727  0.00  0.00     0.218 C 
HETATM   12  O   UNK N   1      28.829  22.687  -9.915  0.00  0.00    -0.274 OA
HETATM   13  C   UNK N   1      27.146  21.383 -10.897  0.00  0.00     0.117 C 
HETATM   14  H   UNK N   1      26.665  21.074  -8.363  0.00  0.00     0.169 HD
ENDBRANCH   4  10
BRANCH   5  15
HETATM   15  N   UNK N   1      27.792  24.957  -4.955  0.00  0.00    -0.325 N 
HETATM   16  C   UNK N   1      26.892  24.986  -3.936  0.00  0.00     0.218 C 
HETATM   17  O   UNK N   1      26.404  23.953  -3.499  0.00  0.00    -0.274 OA
HETATM   18  C   UNK N   1      26.459  26.295  -3.372  0.00  0.00     0.117 C 
HETATM   19  H   UNK N   1      28.111  25.817  -5.315  0.00  0.00     0.169 HD
ENDBRANCH   5  15
BRANCH   7  20
HETATM   20  C   UNK N   1      31.078  21.139  -4.996  0.00  0.00     0.178 C 
HETATM   21  O   UNK N   1      32.190  21.268  -5.478  0.00  0.00    -0.646 OA
BRANCH  20  22
HETATM   22  O   UNK N   1      30.943  20.310  -3.950  0.00  0.00    -0.773 OA
HETATM   23  H   UNK N   1      30.641  19.433  -4.082  0.00  0.00     0.167 HD
ENDBRANCH  20  22
ENDBRANCH   7  20
TORSDOF 4
ENDMDL
MODEL 8
REMARK VINA RESULT:      -5.1     12.063     14.205
REMARK  4 active torsions:
REMARK  status: ('A' for Active; 'I' for Inactive)
REMARK    1  A    between atoms: O_4  and  C_16 
REMARK    2  A    between atoms: N_8  and  C_10 
REMARK       I    between atoms: N_8  and  C_17 
REMARK    3  A    between atoms: N_9  and  C_11 
REMARK       I    between atoms: N_9  and  C_18 
REMARK    4  A    between atoms: C_13  and  C_16 
ROOT
HETATM    1  I   UNK N   1      26.068  24.454  -7.484  0.00  0.00    -0.040 I 
HETATM    2  I   UNK N   1      29.649  19.521  -7.616  0.00  0.00    -0.041 I 
HETATM    3  I   UNK N   1      30.484  24.061  -3.305  0.00  0.00    -0.041 I 
HETATM    4  C   UNK N   1      28.330  23.832  -5.498  0.00  0.00     0.071 A 
HETATM    5  C   UNK N   1      28.135  22.188  -7.279  0.00  0.00     0.071 A 
HETATM    6  C   UNK N   1      27.704  23.364  -6.656  0.00  0.00     0.062 A 
HETATM    7  C   UNK N   1      29.873  21.911  -5.550  0.00  0.00     0.075 A 
HETATM    8  C   UNK N   1      29.195  21.435  -6.718  0.00  0.00     0.052 A 
HETATM    9  C   UNK N   1      29.438  23.138  -4.954  0.00  0.00     0.052 A 
ENDROOT
BRANCH   4  10
HETATM   10  N   UNK N   1      27.838  25.031  -4.901  0.00  0.00    -0.325 N 
HETATM   11  C   UNK N   1      26.898  25.050  -3.919  0.00  0.00     0.218 C 
HETATM   12  O   UNK N   1      26.367  24.017  -3.538  0.00  0.00    -0.274 OA
HETATM   13  C   UNK N   1      26.479  26.349  -3.325  0.00  0.00     0.117 C 
HETATM   14  H   UNK N   1      28.199  25.891  -5.217  0.00  0.00     0.169 HD
ENDBRANCH   4  10
BRANCH   5  15
HETATM   15  N   UNK N   1      27.458  21.762  -8.458  0.00  0.00    -0.325 N 
HETATM   16  C   UNK N   1      27.874  22.055  -9.719  0.00  0.00     0.218 C 
HETATM   17  O   UNK N   1      28.838  22.782  -9.909  0.00  0.00    -0.274 OA
HETATM   18  C   UNK N   1      27.121  21.519 -10.886  0.00  0.00     0.117 C 
HETATM   19  H   UNK N   1      26.640  21.223  -8.354  0.00  0.00     0.169 HD
ENDBRANCH   5  15
BRANCH   7  20
HETATM   20  C   UNK N   1      31.021  21.132  -4.953  0.00  0.00     0.178 C 
HETATM   21  O   UNK N   1      32.141  21.206  -5.428  0.00  0.00    -0.646 OA
BRANCH  20  22
HETATM   22  O   UNK N   1      30.843  20.323  -3.897  0.00  0.00    -0.773 OA
HETATM   23  H   UNK N   1      30.236  20.558  -3.222  0.00  0.00     0.167 HD
ENDBRANCH  20  22
ENDBRANCH   7  20
TORSDOF 4
ENDMDL
MODEL 9
REMARK VINA RESULT:      -5.1      2.414      5.356
REMARK  4 active torsions:
REMARK  status: ('A' for Active; 'I' for Inactive)
REMARK    1  A    between atoms: O_4  and  C_16 
REMARK    2  A    between atoms: N_8  and  C_10 
REMARK       I    between atoms: N_8  and  C_17 
REMARK    3  A    between atoms: N_9  and  C_11 
REMARK       I    between atoms: N_9  and  C_18 
REMARK    4  A    between atoms: C_13  and  C_16 
ROOT
HETATM    1  I   UNK N   1      33.604  14.383   5.976  0.00  0.00    -0.040 I 
HETATM    2  I   UNK N   1      28.339  16.040   3.384  0.00  0.00    -0.041 I 
HETATM    3  I   UNK N   1      30.083  18.322   9.010  0.00  0.00    -0.041 I 
HETATM    4  C   UNK N   1      31.605  16.414   7.127  0.00  0.00     0.071 A 
HETATM    5  C   UNK N   1      30.845  15.382   5.061  0.00  0.00     0.071 A 
HETATM    6  C   UNK N   1      31.806  15.528   6.066  0.00  0.00     0.062 A 
HETATM    7  C   UNK N   1      29.421  17.057   6.181  0.00  0.00     0.075 A 
HETATM    8  C   UNK N   1      29.665  16.164   5.088  0.00  0.00     0.052 A 
HETATM    9  C   UNK N   1      30.404  17.158   7.219  0.00  0.00     0.052 A 
ENDROOT
BRANCH   4  10
HETATM   10  N   UNK N   1      32.627  16.528   8.116  0.00  0.00    -0.325 N 
HETATM   11  C   UNK N   1      33.666  17.400   8.025  0.00  0.00     0.218 C 
HETATM   12  O   UNK N   1      33.814  18.100   7.034  0.00  0.00    -0.274 OA
HETATM   13  C   UNK N   1      34.660  17.479   9.130  0.00  0.00     0.117 C 
HETATM   14  H   UNK N   1      32.578  15.943   8.907  0.00  0.00     0.169 HD
ENDBRANCH   4  10
BRANCH   5  15
HETATM   15  N   UNK N   1      31.106  14.461   4.005  0.00  0.00    -0.325 N 
HETATM   16  C   UNK N   1      30.688  13.167   4.007  0.00  0.00     0.218 C 
HETATM   17  O   UNK N   1      30.112  12.695   4.977  0.00  0.00    -0.274 OA
HETATM   18  C   UNK N   1      30.972  12.300   2.831  0.00  0.00     0.117 C 
HETATM   19  H   UNK N   1      31.620  14.781   3.228  0.00  0.00     0.169 HD
ENDBRANCH   5  15
BRANCH   7  20
HETATM   20  C   UNK N   1      28.157  17.881   6.239  0.00  0.00     0.178 C 
HETATM   21  O   UNK N   1      28.128  19.014   5.792  0.00  0.00    -0.646 OA
BRANCH  20  22
HETATM   22  O   UNK N   1      27.035  17.402   6.798  0.00  0.00    -0.773 OA
HETATM   23  H   UNK N   1      26.944  17.388   7.730  0.00  0.00     0.167 HD
ENDBRANCH  20  22
ENDBRANCH   7  20
TORSDOF 4
ENDMDL
