REMARK  5 active torsions:
REMARK  status: ('A' for Active; 'I' for Inactive)
REMARK    1  A    between atoms: O_2  and  C_14 
REMARK       I    between atoms: N_4  and  C_7 
REMARK    2  A    between atoms: N_4  and  C_13 
REMARK    3  A    between atoms: N_5  and  C_10 
REMARK    4  A    between atoms: C_6  and  C_7 
REMARK    5  A    between atoms: C_13  and  C_14 
ROOT
HETATM    1  C   UNK N   1       1.825  -0.257   0.053  0.00  0.00     0.032 A 
HETATM    2  C   UNK N   1       0.762  -1.157   0.245  0.00  0.00     0.019 A 
HETATM    3  C   UNK N   1       3.105  -0.773  -0.200  0.00  0.00     0.019 A 
HETATM    4  C   UNK N   1       2.254  -3.034  -0.086  0.00  0.00     0.025 A 
HETATM    5  C   UNK N   1       0.973  -2.536   0.167  0.00  0.00     0.030 A 
HETATM    6  C   UNK N   1       3.321  -2.152  -0.265  0.00  0.00     0.030 A 
ENDROOT
BRANCH   1   7
HETATM    7  C   UNK N   1       1.563   1.213   0.154  0.00  0.00     0.252 C 
HETATM    8  O   UNK N   1       0.484   1.583   0.589  0.00  0.00    -0.268 OA
HETATM    9  N   UNK N   1       2.461   2.165  -0.229  0.00  0.00    -0.347 N 
HETATM   10  H   UNK N   1       2.236   3.105  -0.042  0.00  0.00     0.163 HD
BRANCH   9  11
HETATM   11  C   UNK N   1       3.717   1.898  -0.888  0.00  0.00     0.232 C 
BRANCH  11  12
HETATM   12  C   UNK N   1       4.861   2.423  -0.090  0.00  0.00     0.158 C 
HETATM   13  O   UNK N   1       5.747   1.667   0.270  0.00  0.00    -0.649 OA
BRANCH  12  14
HETATM   14  O   UNK N   1       4.938   3.735   0.203  0.00  0.00    -0.775 OA
HETATM   15  H   UNK N   1       5.755   4.145   0.406  0.00  0.00     0.167 HD
ENDBRANCH  12  14
ENDBRANCH  11  12
ENDBRANCH   9  11
ENDBRANCH   1   7
BRANCH   4  16
HETATM   16  N   UNK N   1       2.469  -4.423  -0.157  0.00  0.00    -0.399 N 
HETATM   17  H   UNK N   1       1.703  -5.040  -0.207  0.00  0.00     0.156 HD
HETATM   18  H   UNK N   1       3.387  -4.779  -0.157  0.00  0.00     0.156 HD
ENDBRANCH   4  16
TORSDOF 5
