MODEL 1
REMARK VINA RESULT:      -5.7      0.000      0.000
REMARK  5 active torsions:
REMARK  status: ('A' for Active; 'I' for Inactive)
REMARK    1  A    between atoms: O_2  and  C_14 
REMARK       I    between atoms: N_4  and  C_7 
REMARK    2  A    between atoms: N_4  and  C_13 
REMARK    3  A    between atoms: N_5  and  C_10 
REMARK    4  A    between atoms: C_6  and  C_7 
REMARK    5  A    between atoms: C_13  and  C_14 
ROOT
HETATM    1  C   UNK N   1      33.457  17.772   7.486  0.00  0.00     0.032 A 
HETATM    2  C   UNK N   1      32.137  17.632   7.950  0.00  0.00     0.019 A 
HETATM    3  C   UNK N   1      33.720  17.532   6.129  0.00  0.00     0.019 A 
HETATM    4  C   UNK N   1      31.386  17.043   5.726  0.00  0.00     0.025 A 
HETATM    5  C   UNK N   1      31.107  17.279   7.075  0.00  0.00     0.030 A 
HETATM    6  C   UNK N   1      32.694  17.165   5.254  0.00  0.00     0.030 A 
ENDROOT
BRANCH   1   7
HETATM    7  C   UNK N   1      34.536  18.142   8.455  0.00  0.00     0.252 C 
HETATM    8  O   UNK N   1      34.995  19.272   8.410  0.00  0.00    -0.268 OA
HETATM    9  N   UNK N   1      35.047  17.278   9.377  0.00  0.00    -0.347 N 
HETATM   10  H   UNK N   1      35.690  17.636  10.031  0.00  0.00     0.163 HD
BRANCH   9  11
HETATM   11  C   UNK N   1      34.715  15.876   9.468  0.00  0.00     0.232 C 
BRANCH  11  12
HETATM   12  C   UNK N   1      34.549  15.457  10.888  0.00  0.00     0.158 C 
HETATM   13  O   UNK N   1      35.440  15.672  11.692  0.00  0.00    -0.649 OA
BRANCH  12  14
HETATM   14  O   UNK N   1      33.404  14.877  11.295  0.00  0.00    -0.775 OA
HETATM   15  H   UNK N   1      33.313  14.521  12.156  0.00  0.00     0.167 HD
ENDBRANCH  12  14
ENDBRANCH  11  12
ENDBRANCH   9  11
ENDBRANCH   1   7
BRANCH   4  16
HETATM   16  N   UNK N   1      30.351  16.679   4.845  0.00  0.00    -0.399 N 
HETATM   17  H   UNK N   1      29.431  16.569   5.181  0.00  0.00     0.156 HD
HETATM   18  H   UNK N   1      30.545  16.535   3.891  0.00  0.00     0.156 HD
ENDBRANCH   4  16
TORSDOF 5
ENDMDL
MODEL 2
REMARK VINA RESULT:      -5.7      0.718      1.707
REMARK  5 active torsions:
REMARK  status: ('A' for Active; 'I' for Inactive)
REMARK    1  A    between atoms: O_2  and  C_14 
REMARK       I    between atoms: N_4  and  C_7 
REMARK    2  A    between atoms: N_4  and  C_13 
REMARK    3  A    between atoms: N_5  and  C_10 
REMARK    4  A    between atoms: C_6  and  C_7 
REMARK    5  A    between atoms: C_13  and  C_14 
ROOT
HETATM    1  C   UNK N   1      33.508  17.780   7.716  0.00  0.00     0.032 A 
HETATM    2  C   UNK N   1      33.801  17.406   6.393  0.00  0.00     0.019 A 
HETATM    3  C   UNK N   1      32.178  17.702   8.157  0.00  0.00     0.019 A 
HETATM    4  C   UNK N   1      31.473  16.877   5.996  0.00  0.00     0.025 A 
HETATM    5  C   UNK N   1      32.793  16.949   5.541  0.00  0.00     0.030 A 
HETATM    6  C   UNK N   1      31.165  17.258   7.303  0.00  0.00     0.030 A 
ENDROOT
BRANCH   1   7
HETATM    7  C   UNK N   1      34.613  18.275   8.596  0.00  0.00     0.252 C 
HETATM    8  O   UNK N   1      35.111  19.361   8.348  0.00  0.00    -0.268 OA
HETATM    9  N   UNK N   1      35.105  17.569   9.654  0.00  0.00    -0.347 N 
HETATM   10  H   UNK N   1      35.769  18.013  10.228  0.00  0.00     0.163 HD
BRANCH   9  11
HETATM   11  C   UNK N   1      34.725  16.219   9.994  0.00  0.00     0.232 C 
BRANCH  11  12
HETATM   12  C   UNK N   1      35.679  15.626  10.973  0.00  0.00     0.158 C 
HETATM   13  O   UNK N   1      35.292  14.782  11.763  0.00  0.00    -0.649 OA
BRANCH  12  14
HETATM   14  O   UNK N   1      36.975  15.992  10.964  0.00  0.00    -0.775 OA
HETATM   15  H   UNK N   1      37.664  15.358  10.968  0.00  0.00     0.167 HD
ENDBRANCH  12  14
ENDBRANCH  11  12
ENDBRANCH   9  11
ENDBRANCH   1   7
BRANCH   4  16
HETATM   16  N   UNK N   1      30.455  16.424   5.136  0.00  0.00    -0.399 N 
HETATM   17  H   UNK N   1      30.173  16.974   4.370  0.00  0.00     0.156 HD
HETATM   18  H   UNK N   1      30.024  15.554   5.301  0.00  0.00     0.156 HD
ENDBRANCH   4  16
TORSDOF 5
ENDMDL
MODEL 3
REMARK VINA RESULT:      -5.5      2.517      3.916
REMARK  5 active torsions:
REMARK  status: ('A' for Active; 'I' for Inactive)
REMARK    1  A    between atoms: O_2  and  C_14 
REMARK       I    between atoms: N_4  and  C_7 
REMARK    2  A    between atoms: N_4  and  C_13 
REMARK    3  A    between atoms: N_5  and  C_10 
REMARK    4  A    between atoms: C_6  and  C_7 
REMARK    5  A    between atoms: C_13  and  C_14 
ROOT
HETATM    1  C   UNK N   1      30.831  16.880   7.636  0.00  0.00     0.032 A 
HETATM    2  C   UNK N   1      29.932  17.126   6.583  0.00  0.00     0.019 A 
HETATM    3  C   UNK N   1      30.587  17.478   8.881  0.00  0.00     0.019 A 
HETATM    4  C   UNK N   1      28.582  18.525   8.025  0.00  0.00     0.025 A 
HETATM    5  C   UNK N   1      28.810  17.936   6.779  0.00  0.00     0.030 A 
HETATM    6  C   UNK N   1      29.473  18.299   9.076  0.00  0.00     0.030 A 
ENDROOT
BRANCH   1   7
HETATM    7  C   UNK N   1      32.027  16.016   7.386  0.00  0.00     0.252 C 
HETATM    8  O   UNK N   1      31.885  14.803   7.417  0.00  0.00    -0.268 OA
HETATM    9  N   UNK N   1      33.274  16.510   7.140  0.00  0.00    -0.347 N 
HETATM   10  H   UNK N   1      33.979  15.867   6.899  0.00  0.00     0.163 HD
BRANCH   9  11
HETATM   11  C   UNK N   1      33.637  17.905   7.206  0.00  0.00     0.232 C 
BRANCH  11  12
HETATM   12  C   UNK N   1      34.447  18.189   8.425  0.00  0.00     0.158 C 
HETATM   13  O   UNK N   1      35.242  19.113   8.423  0.00  0.00    -0.649 OA
BRANCH  12  14
HETATM   14  O   UNK N   1      34.276  17.452   9.539  0.00  0.00    -0.775 OA
HETATM   15  H   UNK N   1      33.512  17.539  10.072  0.00  0.00     0.167 HD
ENDBRANCH  12  14
ENDBRANCH  11  12
ENDBRANCH   9  11
ENDBRANCH   1   7
BRANCH   4  16
HETATM   16  N   UNK N   1      27.456  19.346   8.221  0.00  0.00    -0.399 N 
HETATM   17  H   UNK N   1      26.944  19.291   9.061  0.00  0.00     0.156 HD
HETATM   18  H   UNK N   1      27.181  19.979   7.519  0.00  0.00     0.156 HD
ENDBRANCH   4  16
TORSDOF 5
ENDMDL
MODEL 4
REMARK VINA RESULT:      -5.5      4.752      6.761
REMARK  5 active torsions:
REMARK  status: ('A' for Active; 'I' for Inactive)
REMARK    1  A    between atoms: O_2  and  C_14 
REMARK       I    between atoms: N_4  and  C_7 
REMARK    2  A    between atoms: N_4  and  C_13 
REMARK    3  A    between atoms: N_5  and  C_10 
REMARK    4  A    between atoms: C_6  and  C_7 
REMARK    5  A    between atoms: C_13  and  C_14 
ROOT
HETATM    1  C   UNK N   1      29.642  17.691   8.199  0.00  0.00     0.032 A 
HETATM    2  C   UNK N   1      30.778  18.207   8.846  0.00  0.00     0.019 A 
HETATM    3  C   UNK N   1      29.816  16.969   7.008  0.00  0.00     0.019 A 
HETATM    4  C   UNK N   1      32.213  17.267   7.138  0.00  0.00     0.025 A 
HETATM    5  C   UNK N   1      32.056  17.989   8.325  0.00  0.00     0.030 A 
HETATM    6  C   UNK N   1      31.092  16.761   6.478  0.00  0.00     0.030 A 
ENDROOT
BRANCH   1   7
HETATM    7  C   UNK N   1      28.289  17.954   8.781  0.00  0.00     0.252 C 
HETATM    8  O   UNK N   1      27.875  17.204   9.652  0.00  0.00    -0.268 OA
HETATM    9  N   UNK N   1      27.483  18.979   8.381  0.00  0.00    -0.347 N 
HETATM   10  H   UNK N   1      26.650  19.126   8.883  0.00  0.00     0.163 HD
BRANCH   9  11
HETATM   11  C   UNK N   1      27.762  19.864   7.276  0.00  0.00     0.232 C 
BRANCH  11  12
HETATM   12  C   UNK N   1      26.675  20.870   7.111  0.00  0.00     0.158 C 
HETATM   13  O   UNK N   1      26.535  21.443   6.044  0.00  0.00    -0.649 OA
BRANCH  12  14
HETATM   14  O   UNK N   1      25.824  21.122   8.124  0.00  0.00    -0.775 OA
HETATM   15  H   UNK N   1      25.931  21.867   8.681  0.00  0.00     0.167 HD
ENDBRANCH  12  14
ENDBRANCH  11  12
ENDBRANCH   9  11
ENDBRANCH   1   7
BRANCH   4  16
HETATM   16  N   UNK N   1      33.499  17.054   6.608  0.00  0.00    -0.399 N 
HETATM   17  H   UNK N   1      34.034  17.815   6.286  0.00  0.00     0.156 HD
HETATM   18  H   UNK N   1      33.865  16.141   6.558  0.00  0.00     0.156 HD
ENDBRANCH   4  16
TORSDOF 5
ENDMDL
MODEL 5
REMARK VINA RESULT:      -5.3      5.803      9.335
REMARK  5 active torsions:
REMARK  status: ('A' for Active; 'I' for Inactive)
REMARK    1  A    between atoms: O_2  and  C_14 
REMARK       I    between atoms: N_4  and  C_7 
REMARK    2  A    between atoms: N_4  and  C_13 
REMARK    3  A    between atoms: N_5  and  C_10 
REMARK    4  A    between atoms: C_6  and  C_7 
REMARK    5  A    between atoms: C_13  and  C_14 
ROOT
HETATM    1  C   UNK N   1      36.470  13.324  15.637  0.00  0.00     0.032 A 
HETATM    2  C   UNK N   1      35.513  13.315  16.668  0.00  0.00     0.019 A 
HETATM    3  C   UNK N   1      36.901  12.098  15.110  0.00  0.00     0.019 A 
HETATM    4  C   UNK N   1      35.430  10.897  16.607  0.00  0.00     0.025 A 
HETATM    5  C   UNK N   1      34.990  12.110  17.144  0.00  0.00     0.030 A 
HETATM    6  C   UNK N   1      36.389  10.891  15.593  0.00  0.00     0.030 A 
ENDROOT
BRANCH   1   7
HETATM    7  C   UNK N   1      37.015  14.634  15.160  0.00  0.00     0.252 C 
HETATM    8  O   UNK N   1      37.640  15.326  15.948  0.00  0.00    -0.268 OA
HETATM    9  N   UNK N   1      36.838  15.106  13.893  0.00  0.00    -0.347 N 
HETATM   10  H   UNK N   1      37.309  15.934  13.645  0.00  0.00     0.163 HD
BRANCH   9  11
HETATM   11  C   UNK N   1      36.012  14.481  12.887  0.00  0.00     0.232 C 
BRANCH  11  12
HETATM   12  C   UNK N   1      35.844  15.373  11.705  0.00  0.00     0.158 C 
HETATM   13  O   UNK N   1      34.728  15.605  11.274  0.00  0.00    -0.649 OA
BRANCH  12  14
HETATM   14  O   UNK N   1      36.918  15.952  11.134  0.00  0.00    -0.775 OA
HETATM   15  H   UNK N   1      37.090  16.867  11.229  0.00  0.00     0.167 HD
ENDBRANCH  12  14
ENDBRANCH  11  12
ENDBRANCH   9  11
ENDBRANCH   1   7
BRANCH   4  16
HETATM   16  N   UNK N   1      34.910   9.682  17.091  0.00  0.00    -0.399 N 
HETATM   17  H   UNK N   1      34.598   9.614  18.023  0.00  0.00     0.156 HD
HETATM   18  H   UNK N   1      34.856   8.899  16.497  0.00  0.00     0.156 HD
ENDBRANCH   4  16
TORSDOF 5
ENDMDL
MODEL 6
REMARK VINA RESULT:      -5.3      1.728      2.366
REMARK  5 active torsions:
REMARK  status: ('A' for Active; 'I' for Inactive)
REMARK    1  A    between atoms: O_2  and  C_14 
REMARK       I    between atoms: N_4  and  C_7 
REMARK    2  A    between atoms: N_4  and  C_13 
REMARK    3  A    between atoms: N_5  and  C_10 
REMARK    4  A    between atoms: C_6  and  C_7 
REMARK    5  A    between atoms: C_13  and  C_14 
ROOT
HETATM    1  C   UNK N   1      32.193  17.389   7.504  0.00  0.00     0.032 A 
HETATM    2  C   UNK N   1      31.308  16.829   6.566  0.00  0.00     0.019 A 
HETATM    3  C   UNK N   1      31.660  18.082   8.601  0.00  0.00     0.019 A 
HETATM    4  C   UNK N   1      29.410  17.637   7.833  0.00  0.00     0.025 A 
HETATM    5  C   UNK N   1      29.926  16.944   6.734  0.00  0.00     0.030 A 
HETATM    6  C   UNK N   1      30.278  18.210   8.764  0.00  0.00     0.030 A 
ENDROOT
BRANCH   1   7
HETATM    7  C   UNK N   1      33.668  17.255   7.285  0.00  0.00     0.252 C 
HETATM    8  O   UNK N   1      34.211  18.014   6.498  0.00  0.00    -0.268 OA
HETATM    9  N   UNK N   1      34.438  16.318   7.908  0.00  0.00    -0.347 N 
HETATM   10  H   UNK N   1      35.412  16.364   7.770  0.00  0.00     0.163 HD
BRANCH   9  11
HETATM   11  C   UNK N   1      33.933  15.264   8.754  0.00  0.00     0.232 C 
BRANCH  11  12
HETATM   12  C   UNK N   1      34.147  15.585  10.194  0.00  0.00     0.158 C 
HETATM   13  O   UNK N   1      34.966  16.431  10.511  0.00  0.00    -0.649 OA
BRANCH  12  14
HETATM   14  O   UNK N   1      33.415  14.971  11.142  0.00  0.00    -0.775 OA
HETATM   15  H   UNK N   1      32.857  14.247  10.939  0.00  0.00     0.167 HD
ENDBRANCH  12  14
ENDBRANCH  11  12
ENDBRANCH   9  11
ENDBRANCH   1   7
BRANCH   4  16
HETATM   16  N   UNK N   1      28.018  17.759   7.998  0.00  0.00    -0.399 N 
HETATM   17  H   UNK N   1      27.469  16.962   8.179  0.00  0.00     0.156 HD
HETATM   18  H   UNK N   1      27.592  18.644   7.934  0.00  0.00     0.156 HD
ENDBRANCH   4  16
TORSDOF 5
ENDMDL
MODEL 7
REMARK VINA RESULT:      -5.1     11.950     13.354
REMARK  5 active torsions:
REMARK  status: ('A' for Active; 'I' for Inactive)
REMARK    1  A    between atoms: O_2  and  C_14 
REMARK       I    between atoms: N_4  and  C_7 
REMARK    2  A    between atoms: N_4  and  C_13 
REMARK    3  A    between atoms: N_5  and  C_10 
REMARK    4  A    between atoms: C_6  and  C_7 
REMARK    5  A    between atoms: C_13  and  C_14 
ROOT
HETATM    1  C   UNK N   1      21.773  12.833   8.832  0.00  0.00     0.032 A 
HETATM    2  C   UNK N   1      21.046  12.703  10.028  0.00  0.00     0.019 A 
HETATM    3  C   UNK N   1      23.169  12.697   8.876  0.00  0.00     0.019 A 
HETATM    4  C   UNK N   1      23.089  12.293  11.259  0.00  0.00     0.025 A 
HETATM    5  C   UNK N   1      21.698  12.426  11.232  0.00  0.00     0.030 A 
HETATM    6  C   UNK N   1      23.825  12.433  10.081  0.00  0.00     0.030 A 
ENDROOT
BRANCH   1   7
HETATM    7  C   UNK N   1      21.041  13.140   7.563  0.00  0.00     0.252 C 
HETATM    8  O   UNK N   1      20.686  12.210   6.856  0.00  0.00    -0.268 OA
HETATM    9  N   UNK N   1      20.761  14.407   7.144  0.00  0.00    -0.347 N 
HETATM   10  H   UNK N   1      20.198  14.508   6.343  0.00  0.00     0.163 HD
BRANCH   9  11
HETATM   11  C   UNK N   1      21.229  15.612   7.787  0.00  0.00     0.232 C 
BRANCH  11  12
HETATM   12  C   UNK N   1      20.130  16.275   8.543  0.00  0.00     0.158 C 
HETATM   13  O   UNK N   1      19.168  15.623   8.912  0.00  0.00    -0.649 OA
BRANCH  12  14
HETATM   14  O   UNK N   1      20.213  17.582   8.853  0.00  0.00    -0.775 OA
HETATM   15  H   UNK N   1      19.867  17.919   9.656  0.00  0.00     0.167 HD
ENDBRANCH  12  14
ENDBRANCH  11  12
ENDBRANCH   9  11
ENDBRANCH   1   7
BRANCH   4  16
HETATM   16  N   UNK N   1      23.748  12.022  12.473  0.00  0.00    -0.399 N 
HETATM   17  H   UNK N   1      24.166  12.753  12.982  0.00  0.00     0.156 HD
HETATM   18  H   UNK N   1      23.791  11.099  12.813  0.00  0.00     0.156 HD
ENDBRANCH   4  16
TORSDOF 5
ENDMDL
MODEL 8
REMARK VINA RESULT:      -5.0      3.362      4.705
REMARK  5 active torsions:
REMARK  status: ('A' for Active; 'I' for Inactive)
REMARK    1  A    between atoms: O_2  and  C_14 
REMARK       I    between atoms: N_4  and  C_7 
REMARK    2  A    between atoms: N_4  and  C_13 
REMARK    3  A    between atoms: N_5  and  C_10 
REMARK    4  A    between atoms: C_6  and  C_7 
REMARK    5  A    between atoms: C_13  and  C_14 
ROOT
HETATM    1  C   UNK N   1      31.400  16.809   7.072  0.00  0.00     0.032 A 
HETATM    2  C   UNK N   1      32.599  17.365   6.594  0.00  0.00     0.019 A 
HETATM    3  C   UNK N   1      30.411  16.445   6.145  0.00  0.00     0.019 A 
HETATM    4  C   UNK N   1      31.815  17.168   4.313  0.00  0.00     0.025 A 
HETATM    5  C   UNK N   1      32.810  17.535   5.223  0.00  0.00     0.030 A 
HETATM    6  C   UNK N   1      30.614  16.627   4.774  0.00  0.00     0.030 A 
ENDROOT
BRANCH   1   7
HETATM    7  C   UNK N   1      31.206  16.651   8.547  0.00  0.00     0.252 C 
HETATM    8  O   UNK N   1      31.630  15.640   9.085  0.00  0.00    -0.268 OA
HETATM    9  N   UNK N   1      30.566  17.571   9.325  0.00  0.00    -0.347 N 
HETATM   10  H   UNK N   1      30.566  17.424  10.298  0.00  0.00     0.163 HD
BRANCH   9  11
HETATM   11  C   UNK N   1      29.889  18.744   8.827  0.00  0.00     0.232 C 
BRANCH  11  12
HETATM   12  C   UNK N   1      28.457  18.453   8.538  0.00  0.00     0.158 C 
HETATM   13  O   UNK N   1      28.033  18.562   7.401  0.00  0.00    -0.649 OA
BRANCH  12  14
HETATM   14  O   UNK N   1      27.639  18.033   9.522  0.00  0.00    -0.775 OA
HETATM   15  H   UNK N   1      27.623  17.138   9.799  0.00  0.00     0.167 HD
ENDBRANCH  12  14
ENDBRANCH  11  12
ENDBRANCH   9  11
ENDBRANCH   1   7
BRANCH   4  16
HETATM   16  N   UNK N   1      32.023  17.346   2.932  0.00  0.00    -0.399 N 
HETATM   17  H   UNK N   1      31.279  17.630   2.353  0.00  0.00     0.156 HD
HETATM   18  H   UNK N   1      32.914  17.187   2.544  0.00  0.00     0.156 HD
ENDBRANCH   4  16
TORSDOF 5
ENDMDL
MODEL 9
REMARK VINA RESULT:      -5.0     11.685     12.828
REMARK  5 active torsions:
REMARK  status: ('A' for Active; 'I' for Inactive)
REMARK    1  A    between atoms: O_2  and  C_14 
REMARK       I    between atoms: N_4  and  C_7 
REMARK    2  A    between atoms: N_4  and  C_13 
REMARK    3  A    between atoms: N_5  and  C_10 
REMARK    4  A    between atoms: C_6  and  C_7 
REMARK    5  A    between atoms: C_13  and  C_14 
ROOT
HETATM    1  C   UNK N   1      43.796  21.082   3.614  0.00  0.00     0.032 A 
HETATM    2  C   UNK N   1      45.099  20.580   3.451  0.00  0.00     0.019 A 
HETATM    3  C   UNK N   1      42.711  20.242   3.321  0.00  0.00     0.019 A 
HETATM    4  C   UNK N   1      44.217  18.443   2.736  0.00  0.00     0.025 A 
HETATM    5  C   UNK N   1      45.308  19.267   3.024  0.00  0.00     0.030 A 
HETATM    6  C   UNK N   1      42.918  18.932   2.881  0.00  0.00     0.030 A 
ENDROOT
BRANCH   1   7
HETATM    7  C   UNK N   1      43.610  22.498   4.064  0.00  0.00     0.252 C 
HETATM    8  O   UNK N   1      43.800  22.764   5.240  0.00  0.00    -0.268 OA
HETATM    9  N   UNK N   1      43.225  23.507   3.232  0.00  0.00    -0.347 N 
HETATM   10  H   UNK N   1      43.216  24.421   3.598  0.00  0.00     0.163 HD
BRANCH   9  11
HETATM   11  C   UNK N   1      42.828  23.335   1.855  0.00  0.00     0.232 C 
BRANCH  11  12
HETATM   12  C   UNK N   1      41.361  23.537   1.692  0.00  0.00     0.158 C 
HETATM   13  O   UNK N   1      40.590  22.637   1.977  0.00  0.00    -0.649 OA
BRANCH  12  14
HETATM   14  O   UNK N   1      40.882  24.722   1.268  0.00  0.00    -0.775 OA
HETATM   15  H   UNK N   1      40.854  24.942   0.358  0.00  0.00     0.167 HD
ENDBRANCH  12  14
ENDBRANCH  11  12
ENDBRANCH   9  11
ENDBRANCH   1   7
BRANCH   4  16
HETATM   16  N   UNK N   1      44.427  17.122   2.299  0.00  0.00    -0.399 N 
HETATM   17  H   UNK N   1      43.872  16.746   1.577  0.00  0.00     0.156 HD
HETATM   18  H   UNK N   1      45.131  16.572   2.714  0.00  0.00     0.156 HD
ENDBRANCH   4  16
TORSDOF 5
ENDMDL
