MODEL 1
REMARK VINA RESULT:      -5.2      0.000      0.000
REMARK  2 active torsions:
REMARK  status: ('A' for Active; 'I' for Inactive)
REMARK    1  A    between atoms: N_1  and  C_5 
REMARK       I    between atoms: N_1  and  C_9 
REMARK       I    between atoms: N_2  and  C_9 
REMARK    2  A    between atoms: C_5  and  C_6 
ROOT
HETATM    1  N   UNK N   1      20.667  14.755   8.654  0.00  0.00    -0.222 N 
HETATM    2  N   UNK N   1      20.219  16.906   7.547  0.00  0.00    -0.231 N 
HETATM    3  N   UNK N   1      18.859  16.106   9.296  0.00  0.00    -0.231 N 
ATOM      4  HN  UNK N   1      18.641  15.393   9.992  1.00  0.00     0.177 HD
HETATM    5  C   UNK N   1      19.877  15.931   8.526  0.00  0.00     0.669 C 
HETATM    6  C   UNK N   1      21.392  16.773   6.724  0.00  0.00     0.165 C 
HETATM    7  C   UNK N   1      18.018  17.273   9.207  0.00  0.00     0.165 C 
HETATM    8  H   UNK N   1      21.333  14.546   7.960  0.00  0.00     0.178 HD
HETATM    9  H   UNK N   1      19.637  17.692   7.430  0.00  0.00     0.177 HD
ENDROOT
BRANCH   1  10
HETATM   10  C   UNK N   1      20.516  13.860   9.777  0.00  0.00     0.176 C 
BRANCH  10  11
HETATM   11  C   UNK N   1      21.802  13.195  10.141  0.00  0.00    -0.040 A 
HETATM   12  C   UNK N   1      22.970  13.440   9.409  0.00  0.00     0.009 A 
HETATM   13  C   UNK N   1      24.181  12.863   9.808  0.00  0.00     0.001 A 
HETATM   14  C   UNK N   1      24.228  12.054  10.946  0.00  0.00     0.000 A 
HETATM   15  C   UNK N   1      23.063  11.809  11.679  0.00  0.00     0.001 A 
HETATM   16  C   UNK N   1      21.852  12.380  11.277  0.00  0.00     0.009 A 
ENDBRANCH  10  11
ENDBRANCH   1  10
TORSDOF 2
ENDMDL
MODEL 2
REMARK VINA RESULT:      -5.2     14.029     16.269
REMARK  2 active torsions:
REMARK  status: ('A' for Active; 'I' for Inactive)
REMARK    1  A    between atoms: N_1  and  C_5 
REMARK       I    between atoms: N_1  and  C_9 
REMARK       I    between atoms: N_2  and  C_9 
REMARK    2  A    between atoms: C_5  and  C_6 
ROOT
HETATM    1  N   UNK N   1      35.999  13.732  13.099  0.00  0.00    -0.222 N 
HETATM    2  N   UNK N   1      35.827  14.136  10.679  0.00  0.00    -0.231 N 
HETATM    3  N   UNK N   1      37.783  13.255  11.652  0.00  0.00    -0.231 N 
ATOM      4  HN  UNK N   1      38.297  12.938  12.474  1.00  0.00     0.177 HD
HETATM    5  C   UNK N   1      36.580  13.692  11.802  0.00  0.00     0.669 C 
HETATM    6  C   UNK N   1      34.458  14.559  10.805  0.00  0.00     0.165 C 
HETATM    7  C   UNK N   1      38.426  13.198  10.363  0.00  0.00     0.165 C 
HETATM    8  H   UNK N   1      35.154  14.220  13.233  0.00  0.00     0.178 HD
HETATM    9  H   UNK N   1      36.255  14.154   9.792  0.00  0.00     0.177 HD
ENDROOT
BRANCH   1  10
HETATM   10  C   UNK N   1      36.618  13.076  14.227  0.00  0.00     0.176 C 
BRANCH  10  11
HETATM   11  C   UNK N   1      36.446  13.851  15.491  0.00  0.00    -0.040 A 
HETATM   12  C   UNK N   1      35.581  13.401  16.498  0.00  0.00     0.009 A 
HETATM   13  C   UNK N   1      35.486  14.104  17.704  0.00  0.00     0.001 A 
HETATM   14  C   UNK N   1      36.265  15.246  17.912  0.00  0.00     0.000 A 
HETATM   15  C   UNK N   1      37.129  15.695  16.909  0.00  0.00     0.001 A 
HETATM   16  C   UNK N   1      37.219  14.998  15.701  0.00  0.00     0.009 A 
ENDBRANCH  10  11
ENDBRANCH   1  10
TORSDOF 2
ENDMDL
MODEL 3
REMARK VINA RESULT:      -5.2      0.867      2.416
REMARK  2 active torsions:
REMARK  status: ('A' for Active; 'I' for Inactive)
REMARK    1  A    between atoms: N_1  and  C_5 
REMARK       I    between atoms: N_1  and  C_9 
REMARK       I    between atoms: N_2  and  C_9 
REMARK    2  A    between atoms: C_5  and  C_6 
ROOT
HETATM    1  N   UNK N   1      20.241  15.039   8.875  0.00  0.00    -0.222 N 
HETATM    2  N   UNK N   1      19.174  17.208   8.416  0.00  0.00    -0.231 N 
HETATM    3  N   UNK N   1      21.160  16.551   7.334  0.00  0.00    -0.231 N 
ATOM      4  HN  UNK N   1      21.898  15.864   7.179  1.00  0.00     0.177 HD
HETATM    5  C   UNK N   1      20.225  16.278   8.178  0.00  0.00     0.669 C 
HETATM    6  C   UNK N   1      18.077  16.900   9.295  0.00  0.00     0.165 C 
HETATM    7  C   UNK N   1      21.200  17.793   6.604  0.00  0.00     0.165 C 
HETATM    8  H   UNK N   1      19.628  14.907   9.634  0.00  0.00     0.178 HD
HETATM    9  H   UNK N   1      19.198  18.084   7.968  0.00  0.00     0.177 HD
ENDROOT
BRANCH   1  10
HETATM   10  C   UNK N   1      21.135  13.970   8.499  0.00  0.00     0.176 C 
BRANCH  10  11
HETATM   11  C   UNK N   1      21.718  13.281   9.688  0.00  0.00    -0.040 A 
HETATM   12  C   UNK N   1      20.892  12.748  10.687  0.00  0.00     0.009 A 
HETATM   13  C   UNK N   1      21.453  12.045  11.758  0.00  0.00     0.001 A 
HETATM   14  C   UNK N   1      22.836  11.859  11.825  0.00  0.00     0.000 A 
HETATM   15  C   UNK N   1      23.662  12.388  10.829  0.00  0.00     0.001 A 
HETATM   16  C   UNK N   1      23.103  13.097   9.762  0.00  0.00     0.009 A 
ENDBRANCH  10  11
ENDBRANCH   1  10
TORSDOF 2
ENDMDL
MODEL 4
REMARK VINA RESULT:      -5.1     13.969     15.547
REMARK  2 active torsions:
REMARK  status: ('A' for Active; 'I' for Inactive)
REMARK    1  A    between atoms: N_1  and  C_5 
REMARK       I    between atoms: N_1  and  C_9 
REMARK       I    between atoms: N_2  and  C_9 
REMARK    2  A    between atoms: C_5  and  C_6 
ROOT
HETATM    1  N   UNK N   1      34.688  12.391  14.709  0.00  0.00    -0.222 N 
HETATM    2  N   UNK N   1      34.441  11.589  12.396  0.00  0.00    -0.231 N 
HETATM    3  N   UNK N   1      35.286  13.734  12.880  0.00  0.00    -0.231 N 
ATOM      4  HN  UNK N   1      35.556  14.447  13.558  1.00  0.00     0.177 HD
HETATM    5  C   UNK N   1      34.822  12.612  13.311  0.00  0.00     0.669 C 
HETATM    6  C   UNK N   1      33.990  10.300  12.848  0.00  0.00     0.165 C 
HETATM    7  C   UNK N   1      35.437  14.017  11.475  0.00  0.00     0.165 C 
HETATM    8  H   UNK N   1      34.180  11.609  15.026  0.00  0.00     0.178 HD
HETATM    9  H   UNK N   1      34.488  11.769  11.429  0.00  0.00     0.177 HD
ENDROOT
BRANCH   1  10
HETATM   10  C   UNK N   1      35.278  13.285  15.676  0.00  0.00     0.176 C 
BRANCH  10  11
HETATM   11  C   UNK N   1      35.352  12.672  17.036  0.00  0.00    -0.040 A 
HETATM   12  C   UNK N   1      35.186  13.453  18.187  0.00  0.00     0.009 A 
HETATM   13  C   UNK N   1      35.188  12.849  19.449  0.00  0.00     0.001 A 
HETATM   14  C   UNK N   1      35.340  11.464  19.561  0.00  0.00     0.000 A 
HETATM   15  C   UNK N   1      35.504  10.683  18.414  0.00  0.00     0.001 A 
HETATM   16  C   UNK N   1      35.509  11.286  17.153  0.00  0.00     0.009 A 
ENDBRANCH  10  11
ENDBRANCH   1  10
TORSDOF 2
ENDMDL
MODEL 5
REMARK VINA RESULT:      -5.1     14.755     15.969
REMARK  2 active torsions:
REMARK  status: ('A' for Active; 'I' for Inactive)
REMARK    1  A    between atoms: N_1  and  C_5 
REMARK       I    between atoms: N_1  and  C_9 
REMARK       I    between atoms: N_2  and  C_9 
REMARK    2  A    between atoms: C_5  and  C_6 
ROOT
HETATM    1  N   UNK N   1      36.856  13.793  13.129  0.00  0.00    -0.222 N 
HETATM    2  N   UNK N   1      37.246  14.191  10.733  0.00  0.00    -0.231 N 
HETATM    3  N   UNK N   1      35.786  15.544  11.991  0.00  0.00    -0.231 N 
ATOM      4  HN  UNK N   1      35.341  15.780  12.879  1.00  0.00     0.177 HD
HETATM    5  C   UNK N   1      36.600  14.546  11.950  0.00  0.00     0.669 C 
HETATM    6  C   UNK N   1      38.215  13.129  10.673  0.00  0.00     0.165 C 
HETATM    7  C   UNK N   1      35.483  16.339  10.827  0.00  0.00     0.165 C 
HETATM    8  H   UNK N   1      37.339  12.938  13.058  0.00  0.00     0.178 HD
HETATM    9  H   UNK N   1      37.024  14.685   9.910  0.00  0.00     0.177 HD
ENDROOT
BRANCH   1  10
HETATM   10  C   UNK N   1      36.424  14.251  14.428  0.00  0.00     0.176 C 
BRANCH  10  11
HETATM   11  C   UNK N   1      36.260  13.124  15.394  0.00  0.00    -0.040 A 
HETATM   12  C   UNK N   1      35.479  13.274  16.547  0.00  0.00     0.009 A 
HETATM   13  C   UNK N   1      35.280  12.185  17.404  0.00  0.00     0.001 A 
HETATM   14  C   UNK N   1      35.846  10.944  17.102  0.00  0.00     0.000 A 
HETATM   15  C   UNK N   1      36.624  10.792  15.950  0.00  0.00     0.001 A 
HETATM   16  C   UNK N   1      36.830  11.880  15.098  0.00  0.00     0.009 A 
ENDBRANCH  10  11
ENDBRANCH   1  10
TORSDOF 2
ENDMDL
MODEL 6
REMARK VINA RESULT:      -5.0     15.020     16.224
REMARK  2 active torsions:
REMARK  status: ('A' for Active; 'I' for Inactive)
REMARK    1  A    between atoms: N_1  and  C_5 
REMARK       I    between atoms: N_1  and  C_9 
REMARK       I    between atoms: N_2  and  C_9 
REMARK    2  A    between atoms: C_5  and  C_6 
ROOT
HETATM    1  N   UNK N   1      36.272  13.266  13.572  0.00  0.00    -0.222 N 
HETATM    2  N   UNK N   1      36.587  14.608  11.534  0.00  0.00    -0.231 N 
HETATM    3  N   UNK N   1      37.779  12.609  11.899  0.00  0.00    -0.231 N 
ATOM      4  HN  UNK N   1      37.988  11.796  12.479  1.00  0.00     0.177 HD
HETATM    5  C   UNK N   1      36.911  13.464  12.318  0.00  0.00     0.669 C 
HETATM    6  C   UNK N   1      35.570  15.539  11.942  0.00  0.00     0.165 C 
HETATM    7  C   UNK N   1      38.464  12.761  10.640  0.00  0.00     0.165 C 
HETATM    8  H   UNK N   1      35.743  13.999  13.964  0.00  0.00     0.178 HD
HETATM    9  H   UNK N   1      37.072  14.764  10.692  0.00  0.00     0.177 HD
ENDROOT
BRANCH   1  10
HETATM   10  C   UNK N   1      36.378  12.016  14.288  0.00  0.00     0.176 C 
BRANCH  10  11
HETATM   11  C   UNK N   1      35.925  12.141  15.705  0.00  0.00    -0.040 A 
HETATM   12  C   UNK N   1      35.938  11.034  16.564  0.00  0.00     0.009 A 
HETATM   13  C   UNK N   1      35.577  11.186  17.907  0.00  0.00     0.001 A 
HETATM   14  C   UNK N   1      35.219  12.444  18.397  0.00  0.00     0.000 A 
HETATM   15  C   UNK N   1      35.208  13.550  17.543  0.00  0.00     0.001 A 
HETATM   16  C   UNK N   1      35.561  13.399  16.199  0.00  0.00     0.009 A 
ENDBRANCH  10  11
ENDBRANCH   1  10
TORSDOF 2
ENDMDL
MODEL 7
REMARK VINA RESULT:      -5.0     10.151     12.209
REMARK  2 active torsions:
REMARK  status: ('A' for Active; 'I' for Inactive)
REMARK    1  A    between atoms: N_1  and  C_5 
REMARK       I    between atoms: N_1  and  C_9 
REMARK       I    between atoms: N_2  and  C_9 
REMARK    2  A    between atoms: C_5  and  C_6 
ROOT
HETATM    1  N   UNK N   1      33.090  16.705   8.187  0.00  0.00    -0.222 N 
HETATM    2  N   UNK N   1      34.462  14.854   9.048  0.00  0.00    -0.231 N 
HETATM    3  N   UNK N   1      34.495  16.988  10.044  0.00  0.00    -0.231 N 
ATOM      4  HN  UNK N   1      34.166  17.953  10.082  1.00  0.00     0.177 HD
HETATM    5  C   UNK N   1      34.033  16.209   9.127  0.00  0.00     0.669 C 
HETATM    6  C   UNK N   1      33.910  13.942   8.082  0.00  0.00     0.165 C 
HETATM    7  C   UNK N   1      35.459  16.543  11.020  0.00  0.00     0.165 C 
HETATM    8  H   UNK N   1      32.871  16.164   7.394  0.00  0.00     0.178 HD
HETATM    9  H   UNK N   1      35.155  14.533   9.670  0.00  0.00     0.177 HD
ENDROOT
BRANCH   1  10
HETATM   10  C   UNK N   1      32.443  17.983   8.366  0.00  0.00     0.176 C 
BRANCH  10  11
HETATM   11  C   UNK N   1      30.954  17.867   8.347  0.00  0.00    -0.040 A 
HETATM   12  C   UNK N   1      30.170  18.520   9.307  0.00  0.00     0.009 A 
HETATM   13  C   UNK N   1      28.775  18.456   9.231  0.00  0.00     0.001 A 
HETATM   14  C   UNK N   1      28.161  17.754   8.190  0.00  0.00     0.000 A 
HETATM   15  C   UNK N   1      28.942  17.103   7.231  0.00  0.00     0.001 A 
HETATM   16  C   UNK N   1      30.337  17.160   7.309  0.00  0.00     0.009 A 
ENDBRANCH  10  11
ENDBRANCH   1  10
TORSDOF 2
ENDMDL
MODEL 8
REMARK VINA RESULT:      -4.8      9.036     10.417
REMARK  2 active torsions:
REMARK  status: ('A' for Active; 'I' for Inactive)
REMARK    1  A    between atoms: N_1  and  C_5 
REMARK       I    between atoms: N_1  and  C_9 
REMARK       I    between atoms: N_2  and  C_9 
REMARK    2  A    between atoms: C_5  and  C_6 
ROOT
HETATM    1  N   UNK N   1      29.100  17.763   6.772  0.00  0.00    -0.222 N 
HETATM    2  N   UNK N   1      27.697  18.754   8.534  0.00  0.00    -0.231 N 
HETATM    3  N   UNK N   1      27.811  19.682   6.372  0.00  0.00    -0.231 N 
ATOM      4  HN  UNK N   1      28.174  19.665   5.419  1.00  0.00     0.177 HD
HETATM    5  C   UNK N   1      28.188  18.767   7.197  0.00  0.00     0.669 C 
HETATM    6  C   UNK N   1      28.041  17.704   9.455  0.00  0.00     0.165 C 
HETATM    7  C   UNK N   1      26.895  20.730   6.749  0.00  0.00     0.165 C 
HETATM    8  H   UNK N   1      29.513  17.173   7.444  0.00  0.00     0.178 HD
HETATM    9  H   UNK N   1      27.107  19.482   8.835  0.00  0.00     0.177 HD
ENDROOT
BRANCH   1  10
HETATM   10  C   UNK N   1      29.436  17.587   5.379  0.00  0.00     0.176 C 
BRANCH  10  11
HETATM   11  C   UNK N   1      30.892  17.321   5.183  0.00  0.00    -0.040 A 
HETATM   12  C   UNK N   1      31.457  17.324   3.901  0.00  0.00     0.009 A 
HETATM   13  C   UNK N   1      32.835  17.142   3.742  0.00  0.00     0.001 A 
HETATM   14  C   UNK N   1      33.652  16.974   4.864  0.00  0.00     0.000 A 
HETATM   15  C   UNK N   1      33.091  16.973   6.144  0.00  0.00     0.001 A 
HETATM   16  C   UNK N   1      31.713  17.147   6.303  0.00  0.00     0.009 A 
ENDBRANCH  10  11
ENDBRANCH   1  10
TORSDOF 2
ENDMDL
MODEL 9
REMARK VINA RESULT:      -4.8     18.958     20.623
REMARK  2 active torsions:
REMARK  status: ('A' for Active; 'I' for Inactive)
REMARK    1  A    between atoms: N_1  and  C_5 
REMARK       I    between atoms: N_1  and  C_9 
REMARK       I    between atoms: N_2  and  C_9 
REMARK    2  A    between atoms: C_5  and  C_6 
ROOT
HETATM    1  N   UNK N   1      26.834  24.623  -7.196  0.00  0.00    -0.222 N 
HETATM    2  N   UNK N   1      27.438  22.238  -7.206  0.00  0.00    -0.231 N 
HETATM    3  N   UNK N   1      25.195  22.949  -7.318  0.00  0.00    -0.231 N 
ATOM      4  HN  UNK N   1      24.505  23.699  -7.348  1.00  0.00     0.177 HD
HETATM    5  C   UNK N   1      26.444  23.257  -7.243  0.00  0.00     0.669 C 
HETATM    6  C   UNK N   1      28.842  22.552  -7.197  0.00  0.00     0.165 C 
HETATM    7  C   UNK N   1      24.740  21.582  -7.360  0.00  0.00     0.165 C 
HETATM    8  H   UNK N   1      27.765  24.850  -6.970  0.00  0.00     0.178 HD
HETATM    9  H   UNK N   1      27.157  21.295  -7.186  0.00  0.00     0.177 HD
ENDROOT
BRANCH   1  10
HETATM   10  C   UNK N   1      25.899  25.687  -7.473  0.00  0.00     0.176 C 
BRANCH  10  11
HETATM   11  C   UNK N   1      26.043  26.825  -6.517  0.00  0.00    -0.040 A 
HETATM   12  C   UNK N   1      25.166  26.969  -5.434  0.00  0.00     0.009 A 
HETATM   13  C   UNK N   1      25.359  28.000  -4.509  0.00  0.00     0.001 A 
HETATM   14  C   UNK N   1      26.437  28.878  -4.654  0.00  0.00     0.000 A 
HETATM   15  C   UNK N   1      27.315  28.734  -5.732  0.00  0.00     0.001 A 
HETATM   16  C   UNK N   1      27.118  27.708  -6.662  0.00  0.00     0.009 A 
ENDBRANCH  10  11
ENDBRANCH   1  10
TORSDOF 2
ENDMDL
