REMARK  2 active torsions:
REMARK  status: ('A' for Active; 'I' for Inactive)
REMARK    1  A    between atoms: N_1  and  C_5 
REMARK       I    between atoms: N_1  and  C_9 
REMARK       I    between atoms: N_2  and  C_9 
REMARK    2  A    between atoms: C_5  and  C_6 
ROOT
HETATM    1  N   UNK N   1       3.586   0.913   0.622  0.00  0.00    -0.222 N 
HETATM    2  N   UNK N   1       4.004   3.093  -0.439  0.00  0.00    -0.231 N 
HETATM    3  N   UNK N   1       1.840   2.424   0.207  0.00  0.00    -0.231 N 
ATOM      4  HN  UNK N   1       1.214   1.736   0.626  1.00  0.00     0.177 HD
HETATM    5  C   UNK N   1       3.098   2.155   0.132  0.00  0.00     0.669 C 
HETATM    6  C   UNK N   1       5.422   2.852  -0.469  0.00  0.00     0.165 C 
HETATM    7  C   UNK N   1       1.287   3.663  -0.280  0.00  0.00     0.165 C 
HETATM    8  H   UNK N   1       4.509   0.642   0.411  0.00  0.00     0.178 HD
HETATM    9  H   UNK N   1       3.651   3.928  -0.823  0.00  0.00     0.177 HD
ENDROOT
BRANCH   1  10
HETATM   10  C   UNK N   1       2.762   0.038   1.422  0.00  0.00     0.176 C 
BRANCH  10  11
HETATM   11  C   UNK N   1       2.377  -1.201   0.683  0.00  0.00    -0.040 A 
HETATM   12  C   UNK N   1       3.353  -2.044   0.136  0.00  0.00     0.009 A 
HETATM   13  C   UNK N   1       2.976  -3.236  -0.492  0.00  0.00     0.001 A 
HETATM   14  C   UNK N   1       1.627  -3.595  -0.560  0.00  0.00     0.000 A 
HETATM   15  C   UNK N   1       0.652  -2.756  -0.013  0.00  0.00     0.001 A 
HETATM   16  C   UNK N   1       1.027  -1.561   0.608  0.00  0.00     0.009 A 
ENDBRANCH  10  11
ENDBRANCH   1  10
TORSDOF 2
