MODEL 1
REMARK VINA RESULT:      -4.8      0.000      0.000
REMARK  4 active torsions:
REMARK  status: ('A' for Active; 'I' for Inactive)
REMARK    1  A    between atoms: C_3  and  O_1 
REMARK    2  A    between atoms: C_4  and  N_2 
REMARK    3  A    between atoms: C_3  and  C_4 
REMARK    4  A    between atoms: C_3  and  C_5 
ROOT
HETATM    1  C   UNK N   1      35.595  12.241  15.230  0.00  0.00     0.173 C 
ENDROOT
BRANCH   1   2
HETATM    2  O   UNK N   1      34.660  13.090  14.631  0.00  0.00    -0.389 OA
HETATM    3  H   UNK N   1      33.723  12.841  14.588  0.00  0.00     0.210 HD
ENDBRANCH   1   2
BRANCH   1   4
HETATM    4  C   UNK N   1      37.003  12.601  14.728  0.00  0.00     0.103 C 
HETATM    5  C   UNK N   1      37.793  11.359  14.353  0.00  0.00     0.034 C 
BRANCH   4   6
HETATM    6  N   UNK N   1      36.904  13.442  13.544  0.00  0.00    -0.424 N 
HETATM    7  H   UNK N   1      37.738  13.692  13.014  0.00  0.00     0.150 HD
HETATM    8  H   UNK N   1      35.992  13.786  13.244  0.00  0.00     0.150 HD
ENDBRANCH   4   6
ENDBRANCH   1   4
BRANCH   1   9
HETATM    9  C   UNK N   1      35.457  12.284  16.740  0.00  0.00    -0.028 A 
HETATM   10  C   UNK N   1      35.225  13.498  17.398  0.00  0.00     0.010 A 
HETATM   11  C   UNK N   1      35.125  13.544  18.793  0.00  0.00     0.001 A 
HETATM   12  C   UNK N   1      35.274  12.373  19.543  0.00  0.00     0.000 A 
HETATM   13  C   UNK N   1      35.519  11.159  18.898  0.00  0.00     0.001 A 
HETATM   14  C   UNK N   1      35.609  11.111  17.504  0.00  0.00     0.010 A 
ENDBRANCH   1   9
TORSDOF 4
ENDMDL
MODEL 2
REMARK VINA RESULT:      -4.7     12.420     13.864
REMARK  4 active torsions:
REMARK  status: ('A' for Active; 'I' for Inactive)
REMARK    1  A    between atoms: C_3  and  O_1 
REMARK    2  A    between atoms: C_4  and  N_2 
REMARK    3  A    between atoms: C_3  and  C_4 
REMARK    4  A    between atoms: C_3  and  C_5 
ROOT
HETATM    1  C   UNK N   1      28.536  18.641   8.715  0.00  0.00     0.173 C 
ENDROOT
BRANCH   1   2
HETATM    2  O   UNK N   1      27.376  18.176   9.342  0.00  0.00    -0.389 OA
HETATM    3  H   UNK N   1      26.506  18.523   9.090  0.00  0.00     0.210 HD
ENDBRANCH   1   2
BRANCH   1   4
HETATM    4  C   UNK N   1      29.663  17.613   8.903  0.00  0.00     0.103 C 
HETATM    5  C   UNK N   1      31.032  18.256   8.762  0.00  0.00     0.034 C 
BRANCH   4   6
HETATM    6  N   UNK N   1      29.578  17.027  10.233  0.00  0.00    -0.424 N 
HETATM    7  H   UNK N   1      30.109  17.423  11.009  0.00  0.00     0.150 HD
HETATM    8  H   UNK N   1      28.985  16.213  10.390  0.00  0.00     0.150 HD
ENDBRANCH   4   6
ENDBRANCH   1   4
BRANCH   1   9
HETATM    9  C   UNK N   1      28.253  18.976   7.263  0.00  0.00    -0.028 A 
HETATM   10  C   UNK N   1      28.608  18.084   6.244  0.00  0.00     0.010 A 
HETATM   11  C   UNK N   1      28.373  18.404   4.903  0.00  0.00     0.001 A 
HETATM   12  C   UNK N   1      27.793  19.631   4.569  0.00  0.00     0.000 A 
HETATM   13  C   UNK N   1      27.445  20.535   5.575  0.00  0.00     0.001 A 
HETATM   14  C   UNK N   1      27.672  20.211   6.916  0.00  0.00     0.010 A 
ENDBRANCH   1   9
TORSDOF 4
ENDMDL
MODEL 3
REMARK VINA RESULT:      -4.6     15.466     16.258
REMARK  4 active torsions:
REMARK  status: ('A' for Active; 'I' for Inactive)
REMARK    1  A    between atoms: C_3  and  O_1 
REMARK    2  A    between atoms: C_4  and  N_2 
REMARK    3  A    between atoms: C_3  and  C_4 
REMARK    4  A    between atoms: C_3  and  C_5 
ROOT
HETATM    1  C   UNK N   1      20.406  14.367   8.966  0.00  0.00     0.173 C 
ENDROOT
BRANCH   1   2
HETATM    2  O   UNK N   1      19.169  14.502   9.603  0.00  0.00    -0.389 OA
HETATM    3  H   UNK N   1      19.121  14.729  10.545  0.00  0.00     0.210 HD
ENDBRANCH   1   2
BRANCH   1   4
HETATM    4  C   UNK N   1      20.962  15.762   8.635  0.00  0.00     0.103 C 
HETATM    5  C   UNK N   1      21.410  15.852   7.187  0.00  0.00     0.034 C 
BRANCH   4   6
HETATM    6  N   UNK N   1      19.929  16.766   8.847  0.00  0.00    -0.424 N 
HETATM    7  H   UNK N   1      19.461  17.204   8.054  0.00  0.00     0.150 HD
HETATM    8  H   UNK N   1      19.673  17.035   9.796  0.00  0.00     0.150 HD
ENDBRANCH   4   6
ENDBRANCH   1   4
BRANCH   1   9
HETATM    9  C   UNK N   1      21.344  13.522   9.807  0.00  0.00    -0.028 A 
HETATM   10  C   UNK N   1      22.715  13.488   9.527  0.00  0.00     0.010 A 
HETATM   11  C   UNK N   1      23.577  12.687  10.284  0.00  0.00     0.001 A 
HETATM   12  C   UNK N   1      23.068  11.898  11.320  0.00  0.00     0.000 A 
HETATM   13  C   UNK N   1      21.700  11.915  11.601  0.00  0.00     0.001 A 
HETATM   14  C   UNK N   1      20.840  12.722  10.850  0.00  0.00     0.010 A 
ENDBRANCH   1   9
TORSDOF 4
ENDMDL
MODEL 4
REMARK VINA RESULT:      -4.6     10.020     11.768
REMARK  4 active torsions:
REMARK  status: ('A' for Active; 'I' for Inactive)
REMARK    1  A    between atoms: C_3  and  O_1 
REMARK    2  A    between atoms: C_4  and  N_2 
REMARK    3  A    between atoms: C_3  and  C_4 
REMARK    4  A    between atoms: C_3  and  C_5 
ROOT
HETATM    1  C   UNK N   1      34.255  17.215   7.399  0.00  0.00     0.173 C 
ENDROOT
BRANCH   1   2
HETATM    2  O   UNK N   1      34.753  18.501   7.627  0.00  0.00    -0.389 OA
HETATM    3  H   UNK N   1      34.971  18.794   8.526  0.00  0.00     0.210 HD
ENDBRANCH   1   2
BRANCH   1   4
HETATM    4  C   UNK N   1      33.895  16.563   8.744  0.00  0.00     0.103 C 
HETATM    5  C   UNK N   1      34.349  15.115   8.799  0.00  0.00     0.034 C 
BRANCH   4   6
HETATM    6  N   UNK N   1      34.550  17.279   9.829  0.00  0.00    -0.424 N 
HETATM    7  H   UNK N   1      35.474  17.690   9.696  0.00  0.00     0.150 HD
HETATM    8  H   UNK N   1      34.082  17.369  10.730  0.00  0.00     0.150 HD
ENDBRANCH   4   6
ENDBRANCH   1   4
BRANCH   1   9
HETATM    9  C   UNK N   1      33.100  17.264   6.417  0.00  0.00    -0.028 A 
HETATM   10  C   UNK N   1      33.328  17.534   5.062  0.00  0.00     0.010 A 
HETATM   11  C   UNK N   1      32.261  17.606   4.160  0.00  0.00     0.001 A 
HETATM   12  C   UNK N   1      30.951  17.424   4.612  0.00  0.00     0.000 A 
HETATM   13  C   UNK N   1      30.709  17.166   5.963  0.00  0.00     0.001 A 
HETATM   14  C   UNK N   1      31.776  17.085   6.863  0.00  0.00     0.010 A 
ENDBRANCH   1   9
TORSDOF 4
ENDMDL
MODEL 5
REMARK VINA RESULT:      -4.4     10.908     12.069
REMARK  4 active torsions:
REMARK  status: ('A' for Active; 'I' for Inactive)
REMARK    1  A    between atoms: C_3  and  O_1 
REMARK    2  A    between atoms: C_4  and  N_2 
REMARK    3  A    between atoms: C_3  and  C_4 
REMARK    4  A    between atoms: C_3  and  C_5 
ROOT
HETATM    1  C   UNK N   1      29.811  17.271   8.545  0.00  0.00     0.173 C 
ENDROOT
BRANCH   1   2
HETATM    2  O   UNK N   1      29.984  17.497   9.914  0.00  0.00    -0.389 OA
HETATM    3  H   UNK N   1      29.223  17.488  10.517  0.00  0.00     0.210 HD
ENDBRANCH   1   2
BRANCH   1   4
HETATM    4  C   UNK N   1      28.734  18.225   8.005  0.00  0.00     0.103 C 
HETATM    5  C   UNK N   1      27.921  17.574   6.899  0.00  0.00     0.034 C 
BRANCH   4   6
HETATM    6  N   UNK N   1      27.819  18.592   9.076  0.00  0.00    -0.424 N 
HETATM    7  H   UNK N   1      26.886  18.183   9.124  0.00  0.00     0.150 HD
HETATM    8  H   UNK N   1      28.113  19.265   9.783  0.00  0.00     0.150 HD
ENDBRANCH   4   6
ENDBRANCH   1   4
BRANCH   1   9
HETATM    9  C   UNK N   1      31.140  17.379   7.821  0.00  0.00    -0.028 A 
HETATM   10  C   UNK N   1      32.241  17.980   8.441  0.00  0.00     0.010 A 
HETATM   11  C   UNK N   1      33.459  18.106   7.764  0.00  0.00     0.001 A 
HETATM   12  C   UNK N   1      33.579  17.643   6.451  0.00  0.00     0.000 A 
HETATM   13  C   UNK N   1      32.484  17.052   5.817  0.00  0.00     0.001 A 
HETATM   14  C   UNK N   1      31.269  16.918   6.497  0.00  0.00     0.010 A 
ENDBRANCH   1   9
TORSDOF 4
ENDMDL
MODEL 6
REMARK VINA RESULT:      -4.4      1.913      2.541
REMARK  4 active torsions:
REMARK  status: ('A' for Active; 'I' for Inactive)
REMARK    1  A    between atoms: C_3  and  O_1 
REMARK    2  A    between atoms: C_4  and  N_2 
REMARK    3  A    between atoms: C_3  and  C_4 
REMARK    4  A    between atoms: C_3  and  C_5 
ROOT
HETATM    1  C   UNK N   1      35.464  12.421  14.703  0.00  0.00     0.173 C 
ENDROOT
BRANCH   1   2
HETATM    2  O   UNK N   1      34.092  12.161  14.761  0.00  0.00    -0.389 OA
HETATM    3  H   UNK N   1      33.764  11.298  15.061  0.00  0.00     0.210 HD
ENDBRANCH   1   2
BRANCH   1   4
HETATM    4  C   UNK N   1      35.851  12.791  13.262  0.00  0.00     0.103 C 
HETATM    5  C   UNK N   1      36.937  11.876  12.726  0.00  0.00     0.034 C 
BRANCH   4   6
HETATM    6  N   UNK N   1      34.690  12.666  12.393  0.00  0.00    -0.424 N 
HETATM    7  H   UNK N   1      34.302  13.484  11.925  0.00  0.00     0.150 HD
HETATM    8  H   UNK N   1      34.260  11.752  12.252  0.00  0.00     0.150 HD
ENDBRANCH   4   6
ENDBRANCH   1   4
BRANCH   1   9
HETATM    9  C   UNK N   1      35.846  13.473  15.727  0.00  0.00    -0.028 A 
HETATM   10  C   UNK N   1      36.857  14.401  15.451  0.00  0.00     0.010 A 
HETATM   11  C   UNK N   1      37.229  15.355  16.404  0.00  0.00     0.001 A 
HETATM   12  C   UNK N   1      36.600  15.377  17.652  0.00  0.00     0.000 A 
HETATM   13  C   UNK N   1      35.598  14.449  17.944  0.00  0.00     0.001 A 
HETATM   14  C   UNK N   1      35.220  13.502  16.988  0.00  0.00     0.010 A 
ENDBRANCH   1   9
TORSDOF 4
ENDMDL
MODEL 7
REMARK VINA RESULT:      -4.4     24.867     26.232
REMARK  4 active torsions:
REMARK  status: ('A' for Active; 'I' for Inactive)
REMARK    1  A    between atoms: C_3  and  O_1 
REMARK    2  A    between atoms: C_4  and  N_2 
REMARK    3  A    between atoms: C_3  and  C_4 
REMARK    4  A    between atoms: C_3  and  C_5 
ROOT
HETATM    1  C   UNK N   1      27.422  24.719  -3.168  0.00  0.00     0.173 C 
ENDROOT
BRANCH   1   2
HETATM    2  O   UNK N   1      26.679  23.633  -2.695  0.00  0.00    -0.389 OA
HETATM    3  H   UNK N   1      26.271  23.006  -3.313  0.00  0.00     0.210 HD
ENDBRANCH   1   2
BRANCH   1   4
HETATM    4  C   UNK N   1      28.627  24.201  -3.969  0.00  0.00     0.103 C 
HETATM    5  C   UNK N   1      29.627  25.311  -4.247  0.00  0.00     0.034 C 
BRANCH   4   6
HETATM    6  N   UNK N   1      29.311  23.163  -3.212  0.00  0.00    -0.424 N 
HETATM    7  H   UNK N   1      28.846  22.697  -2.433  0.00  0.00     0.150 HD
HETATM    8  H   UNK N   1      30.264  22.899  -3.463  0.00  0.00     0.150 HD
ENDBRANCH   4   6
ENDBRANCH   1   4
BRANCH   1   9
HETATM    9  C   UNK N   1      26.531  25.665  -3.951  0.00  0.00    -0.028 A 
HETATM   10  C   UNK N   1      25.990  25.278  -5.182  0.00  0.00     0.010 A 
HETATM   11  C   UNK N   1      25.191  26.159  -5.919  0.00  0.00     0.001 A 
HETATM   12  C   UNK N   1      24.941  27.446  -5.434  0.00  0.00     0.000 A 
HETATM   13  C   UNK N   1      25.485  27.849  -4.213  0.00  0.00     0.001 A 
HETATM   14  C   UNK N   1      26.276  26.965  -3.472  0.00  0.00     0.010 A 
ENDBRANCH   1   9
TORSDOF 4
ENDMDL
MODEL 8
REMARK VINA RESULT:      -4.4      1.306      2.121
REMARK  4 active torsions:
REMARK  status: ('A' for Active; 'I' for Inactive)
REMARK    1  A    between atoms: C_3  and  O_1 
REMARK    2  A    between atoms: C_4  and  N_2 
REMARK    3  A    between atoms: C_3  and  C_4 
REMARK    4  A    between atoms: C_3  and  C_5 
ROOT
HETATM    1  C   UNK N   1      35.518  12.207  13.786  0.00  0.00     0.173 C 
ENDROOT
BRANCH   1   2
HETATM    2  O   UNK N   1      34.485  13.022  13.313  0.00  0.00    -0.389 OA
HETATM    3  H   UNK N   1      34.663  13.715  12.658  0.00  0.00     0.210 HD
ENDBRANCH   1   2
BRANCH   1   4
HETATM    4  C   UNK N   1      36.858  12.707  13.223  0.00  0.00     0.103 C 
HETATM    5  C   UNK N   1      37.247  11.955  11.962  0.00  0.00     0.034 C 
BRANCH   4   6
HETATM    6  N   UNK N   1      36.755  14.120  12.888  0.00  0.00    -0.424 N 
HETATM    7  H   UNK N   1      36.504  14.805  13.601  0.00  0.00     0.150 HD
HETATM    8  H   UNK N   1      36.935  14.427  11.933  0.00  0.00     0.150 HD
ENDBRANCH   4   6
ENDBRANCH   1   4
BRANCH   1   9
HETATM    9  C   UNK N   1      35.482  12.134  15.301  0.00  0.00    -0.028 A 
HETATM   10  C   UNK N   1      35.873  10.967  15.967  0.00  0.00     0.010 A 
HETATM   11  C   UNK N   1      35.813  10.890  17.363  0.00  0.00     0.001 A 
HETATM   12  C   UNK N   1      35.345  11.979  18.104  0.00  0.00     0.000 A 
HETATM   13  C   UNK N   1      34.941  13.145  17.450  0.00  0.00     0.001 A 
HETATM   14  C   UNK N   1      35.009  13.225  16.055  0.00  0.00     0.010 A 
ENDBRANCH   1   9
TORSDOF 4
ENDMDL
MODEL 9
REMARK VINA RESULT:      -4.3      9.897     11.669
REMARK  4 active torsions:
REMARK  status: ('A' for Active; 'I' for Inactive)
REMARK    1  A    between atoms: C_3  and  O_1 
REMARK    2  A    between atoms: C_4  and  N_2 
REMARK    3  A    between atoms: C_3  and  C_4 
REMARK    4  A    between atoms: C_3  and  C_5 
ROOT
HETATM    1  C   UNK N   1      32.404  16.923   8.460  0.00  0.00     0.173 C 
ENDROOT
BRANCH   1   2
HETATM    2  O   UNK N   1      31.387  17.570   9.169  0.00  0.00    -0.389 OA
HETATM    3  H   UNK N   1      31.471  18.507   9.407  0.00  0.00     0.210 HD
ENDBRANCH   1   2
BRANCH   1   4
HETATM    4  C   UNK N   1      32.427  15.436   8.849  0.00  0.00     0.103 C 
HETATM    5  C   UNK N   1      33.840  14.880   8.835  0.00  0.00     0.034 C 
BRANCH   4   6
HETATM    6  N   UNK N   1      31.894  15.270  10.193  0.00  0.00    -0.424 N 
HETATM    7  H   UNK N   1      30.893  15.144  10.343  0.00  0.00     0.150 HD
HETATM    8  H   UNK N   1      32.527  15.281  10.993  0.00  0.00     0.150 HD
ENDBRANCH   4   6
ENDBRANCH   1   4
BRANCH   1   9
HETATM    9  C   UNK N   1      32.241  17.160   6.970  0.00  0.00    -0.028 A 
HETATM   10  C   UNK N   1      30.984  17.052   6.365  0.00  0.00     0.010 A 
HETATM   11  C   UNK N   1      30.837  17.243   4.987  0.00  0.00     0.001 A 
HETATM   12  C   UNK N   1      31.955  17.530   4.199  0.00  0.00     0.000 A 
HETATM   13  C   UNK N   1      33.217  17.629   4.789  0.00  0.00     0.001 A 
HETATM   14  C   UNK N   1      33.362  17.446   6.168  0.00  0.00     0.010 A 
ENDBRANCH   1   9
TORSDOF 4
ENDMDL
