REMARK  6 active torsions:
REMARK  status: ('A' for Active; 'I' for Inactive)
REMARK    1  A    between atoms: O_2  and  C_9 
REMARK    2  A    between atoms: C_11  and  O_2 
REMARK    3  A    between atoms: C_4  and  C_8 
REMARK    4  A    between atoms: C_8  and  C_9 
REMARK    5  A    between atoms: C_11  and  C_12 
REMARK    6  A    between atoms: C_11  and  C_13 
ROOT
HETATM    1  C   UNK N   1       2.169   0.309   0.990  0.00  0.00     0.111 C 
HETATM    2  C   UNK N   1       0.840   0.290   1.743  0.00  0.00     0.057 C 
ENDROOT
BRANCH   1   3
HETATM    3  O   UNK N   1       3.202   0.528   1.959  0.00  0.00    -0.371 OA
BRANCH   3   4
HETATM    4  C   UNK N   1       4.465   0.020   1.556  0.00  0.00     0.172 C 
BRANCH   4   5
HETATM    5  C   UNK N   1       5.030   0.721   0.325  0.00  0.00     0.062 C 
BRANCH   5   6
HETATM    6  C   UNK N   1       5.784   1.982   0.692  0.00  0.00     0.224 C 
HETATM    7  N   UNK N   1       7.199   1.815   0.405  0.00  0.00     0.088 N 
HETATM    8  C   UNK N   1       7.695   3.168   0.199  0.00  0.00     0.272 C 
HETATM    9  C   UNK N   1       7.851   1.277   1.587  0.00  0.00     0.310 C 
HETATM   10  C   UNK N   1       6.528   4.020  -0.272  0.00  0.00     0.032 C 
HETATM   11  C   UNK N   1       5.322   3.117  -0.185  0.00  0.00     0.037 C 
ENDBRANCH   5   6
ENDBRANCH   4   5
ENDBRANCH   3   4
ENDBRANCH   1   3
BRANCH   1  12
HETATM   12  C   UNK N   1       2.301  -1.084   0.335  0.00  0.00    -0.019 A 
HETATM   13  C   UNK N   1       2.242  -2.230   1.152  0.00  0.00     0.012 A 
HETATM   14  C   UNK N   1       2.431  -3.505   0.616  0.00  0.00     0.024 A 
HETATM   15  C   UNK N   1       2.700  -3.656  -0.746  0.00  0.00     0.034 A 
HETATM   16 Cl   UNK N   1       2.971  -5.251  -1.411  0.00  0.00    -0.084 Cl
HETATM   17  C   UNK N   1       2.762  -2.533  -1.572  0.00  0.00     0.024 A 
HETATM   18  C   UNK N   1       2.563  -1.259  -1.037  0.00  0.00     0.012 A 
ENDBRANCH   1  12
BRANCH   1  19
HETATM   19  C   UNK N   1       2.116   1.557   0.099  0.00  0.00    -0.020 A 
HETATM   20  C   UNK N   1       2.204   1.508  -1.305  0.00  0.00     0.010 A 
HETATM   21  C   UNK N   1       2.164   2.680  -2.065  0.00  0.00     0.001 A 
HETATM   22  C   UNK N   1       2.037   3.919  -1.437  0.00  0.00     0.000 A 
HETATM   23  C   UNK N   1       1.947   3.988  -0.046  0.00  0.00     0.001 A 
HETATM   24  C   UNK N   1       1.987   2.817   0.714  0.00  0.00     0.010 A 
ENDBRANCH   1  19
TORSDOF 6
