MODEL 1
REMARK VINA RESULT:      -6.7      0.000      0.000
REMARK  6 active torsions:
REMARK  status: ('A' for Active; 'I' for Inactive)
REMARK    1  A    between atoms: O_2  and  C_9 
REMARK    2  A    between atoms: C_11  and  O_2 
REMARK    3  A    between atoms: C_4  and  C_8 
REMARK    4  A    between atoms: C_8  and  C_9 
REMARK    5  A    between atoms: C_11  and  C_12 
REMARK    6  A    between atoms: C_11  and  C_13 
ROOT
HETATM    1  C   UNK N   1      35.866  12.346  15.032  0.00  0.00     0.111 C 
HETATM    2  C   UNK N   1      37.381  12.432  14.852  0.00  0.00     0.057 C 
ENDROOT
BRANCH   1   3
HETATM    3  O   UNK N   1      35.313  13.583  14.565  0.00  0.00    -0.371 OA
BRANCH   3   4
HETATM    4  C   UNK N   1      36.090  14.196  13.547  0.00  0.00     0.172 C 
BRANCH   4   5
HETATM    5  C   UNK N   1      35.338  14.355  12.231  0.00  0.00     0.062 C 
BRANCH   5   6
HETATM    6  C   UNK N   1      36.093  13.737  11.073  0.00  0.00     0.224 C 
HETATM    7  N   UNK N   1      36.585  14.780  10.188  0.00  0.00     0.088 N 
HETATM    8  C   UNK N   1      37.737  14.186   9.525  0.00  0.00     0.272 C 
HETATM    9  C   UNK N   1      35.576  15.043   9.176  0.00  0.00     0.310 C 
HETATM   10  C   UNK N   1      38.295  13.112  10.444  0.00  0.00     0.032 C 
HETATM   11  C   UNK N   1      37.319  13.031  11.592  0.00  0.00     0.037 C 
ENDBRANCH   5   6
ENDBRANCH   4   5
ENDBRANCH   3   4
ENDBRANCH   1   3
BRANCH   1  12
HETATM   12  C   UNK N   1      35.406  11.160  14.157  0.00  0.00    -0.019 A 
HETATM   13  C   UNK N   1      36.343  10.170  13.800  0.00  0.00     0.012 A 
HETATM   14  C   UNK N   1      35.992   9.121  12.950  0.00  0.00     0.024 A 
HETATM   15  C   UNK N   1      34.699   9.051  12.426  0.00  0.00     0.034 A 
HETATM   16 Cl   UNK N   1      34.269   7.754  11.333  0.00  0.00    -0.084 Cl
HETATM   17  C   UNK N   1      33.756  10.021  12.767  0.00  0.00     0.024 A 
HETATM   18  C   UNK N   1      34.105  11.065  13.625  0.00  0.00     0.012 A 
ENDBRANCH   1  12
BRANCH   1  19
HETATM   19  C   UNK N   1      35.638  12.295  16.549  0.00  0.00    -0.020 A 
HETATM   20  C   UNK N   1      35.691  11.104  17.298  0.00  0.00     0.010 A 
HETATM   21  C   UNK N   1      35.460  11.117  18.676  0.00  0.00     0.001 A 
HETATM   22  C   UNK N   1      35.172  12.315  19.328  0.00  0.00     0.000 A 
HETATM   23  C   UNK N   1      35.116  13.506  18.603  0.00  0.00     0.001 A 
HETATM   24  C   UNK N   1      35.347  13.495  17.225  0.00  0.00     0.010 A 
ENDBRANCH   1  19
TORSDOF 6
ENDMDL
MODEL 2
REMARK VINA RESULT:      -6.4      7.787     12.061
REMARK  6 active torsions:
REMARK  status: ('A' for Active; 'I' for Inactive)
REMARK    1  A    between atoms: O_2  and  C_9 
REMARK    2  A    between atoms: C_11  and  O_2 
REMARK    3  A    between atoms: C_4  and  C_8 
REMARK    4  A    between atoms: C_8  and  C_9 
REMARK    5  A    between atoms: C_11  and  C_12 
REMARK    6  A    between atoms: C_11  and  C_13 
ROOT
HETATM    1  C   UNK N   1      28.921  17.574   6.085  0.00  0.00     0.111 C 
HETATM    2  C   UNK N   1      27.996  16.399   6.398  0.00  0.00     0.057 C 
ENDROOT
BRANCH   1   3
HETATM    3  O   UNK N   1      29.346  18.124   7.338  0.00  0.00    -0.371 OA
BRANCH   3   4
HETATM    4  C   UNK N   1      30.198  17.256   8.071  0.00  0.00     0.172 C 
BRANCH   4   5
HETATM    5  C   UNK N   1      31.370  17.978   8.727  0.00  0.00     0.062 C 
BRANCH   5   6
HETATM    6  C   UNK N   1      32.680  17.254   8.492  0.00  0.00     0.224 C 
HETATM    7  N   UNK N   1      32.424  15.864   8.156  0.00  0.00     0.088 N 
HETATM    8  C   UNK N   1      33.589  15.451   7.386  0.00  0.00     0.272 C 
HETATM    9  C   UNK N   1      32.403  15.086   9.383  0.00  0.00     0.310 C 
HETATM   10  C   UNK N   1      34.175  16.693   6.736  0.00  0.00     0.032 C 
HETATM   11  C   UNK N   1      33.371  17.844   7.290  0.00  0.00     0.037 C 
ENDBRANCH   5   6
ENDBRANCH   4   5
ENDBRANCH   3   4
ENDBRANCH   1   3
BRANCH   1  12
HETATM   12  C   UNK N   1      30.111  16.974   5.303  0.00  0.00    -0.019 A 
HETATM   13  C   UNK N   1      30.972  17.841   4.601  0.00  0.00     0.012 A 
HETATM   14  C   UNK N   1      32.015  17.340   3.820  0.00  0.00     0.024 A 
HETATM   15  C   UNK N   1      32.207  15.961   3.714  0.00  0.00     0.034 A 
HETATM   16 Cl   UNK N   1      33.493  15.333   2.708  0.00  0.00    -0.084 Cl
HETATM   17  C   UNK N   1      31.365  15.086   4.403  0.00  0.00     0.024 A 
HETATM   18  C   UNK N   1      30.328  15.588   5.191  0.00  0.00     0.012 A 
ENDBRANCH   1  12
BRANCH   1  19
HETATM   19  C   UNK N   1      28.032  18.626   5.410  0.00  0.00    -0.020 A 
HETATM   20  C   UNK N   1      27.802  19.905   5.950  0.00  0.00     0.010 A 
HETATM   21  C   UNK N   1      26.970  20.818   5.297  0.00  0.00     0.001 A 
HETATM   22  C   UNK N   1      26.353  20.470   4.096  0.00  0.00     0.000 A 
HETATM   23  C   UNK N   1      26.570  19.207   3.543  0.00  0.00     0.001 A 
HETATM   24  C   UNK N   1      27.401  18.294   4.195  0.00  0.00     0.010 A 
ENDBRANCH   1  19
TORSDOF 6
ENDMDL
MODEL 3
REMARK VINA RESULT:      -6.3      9.752     13.565
REMARK  6 active torsions:
REMARK  status: ('A' for Active; 'I' for Inactive)
REMARK    1  A    between atoms: O_2  and  C_9 
REMARK    2  A    between atoms: C_11  and  O_2 
REMARK    3  A    between atoms: C_4  and  C_8 
REMARK    4  A    between atoms: C_8  and  C_9 
REMARK    5  A    between atoms: C_11  and  C_12 
REMARK    6  A    between atoms: C_11  and  C_13 
ROOT
HETATM    1  C   UNK N   1      28.990  17.237   5.950  0.00  0.00     0.111 C 
HETATM    2  C   UNK N   1      29.116  16.520   4.607  0.00  0.00     0.057 C 
ENDROOT
BRANCH   1   3
HETATM    3  O   UNK N   1      28.156  16.426   6.787  0.00  0.00    -0.371 OA
BRANCH   3   4
HETATM    4  C   UNK N   1      27.296  15.565   6.055  0.00  0.00     0.172 C 
BRANCH   4   5
HETATM    5  C   UNK N   1      25.944  15.353   6.727  0.00  0.00     0.062 C 
BRANCH   5   6
HETATM    6  C   UNK N   1      24.796  15.605   5.772  0.00  0.00     0.224 C 
HETATM    7  N   UNK N   1      23.546  15.683   6.510  0.00  0.00     0.088 N 
HETATM    8  C   UNK N   1      22.674  16.495   5.673  0.00  0.00     0.272 C 
HETATM    9  C   UNK N   1      22.971  14.351   6.590  0.00  0.00     0.310 C 
HETATM   10  C   UNK N   1      23.558  17.396   4.826  0.00  0.00     0.032 C 
HETATM   11  C   UNK N   1      24.970  16.953   5.122  0.00  0.00     0.037 C 
ENDBRANCH   5   6
ENDBRANCH   4   5
ENDBRANCH   3   4
ENDBRANCH   1   3
BRANCH   1  12
HETATM   12  C   UNK N   1      30.426  17.331   6.513  0.00  0.00    -0.019 A 
HETATM   13  C   UNK N   1      30.604  17.599   7.884  0.00  0.00     0.012 A 
HETATM   14  C   UNK N   1      31.881  17.767   8.423  0.00  0.00     0.024 A 
HETATM   15  C   UNK N   1      33.003  17.688   7.596  0.00  0.00     0.034 A 
HETATM   16 Cl   UNK N   1      34.601  17.933   8.265  0.00  0.00    -0.084 Cl
HETATM   17  C   UNK N   1      32.847  17.424   6.234  0.00  0.00     0.024 A 
HETATM   18  C   UNK N   1      31.571  17.246   5.698  0.00  0.00     0.012 A 
ENDBRANCH   1  12
BRANCH   1  19
HETATM   19  C   UNK N   1      28.213  18.526   5.653  0.00  0.00    -0.020 A 
HETATM   20  C   UNK N   1      27.719  19.379   6.658  0.00  0.00     0.010 A 
HETATM   21  C   UNK N   1      27.005  20.534   6.328  0.00  0.00     0.001 A 
HETATM   22  C   UNK N   1      26.770  20.855   4.991  0.00  0.00     0.000 A 
HETATM   23  C   UNK N   1      27.252  20.023   3.981  0.00  0.00     0.001 A 
HETATM   24  C   UNK N   1      27.966  18.868   4.310  0.00  0.00     0.010 A 
ENDBRANCH   1  19
TORSDOF 6
ENDMDL
MODEL 4
REMARK VINA RESULT:      -6.3      9.741     12.456
REMARK  6 active torsions:
REMARK  status: ('A' for Active; 'I' for Inactive)
REMARK    1  A    between atoms: O_2  and  C_9 
REMARK    2  A    between atoms: C_11  and  O_2 
REMARK    3  A    between atoms: C_4  and  C_8 
REMARK    4  A    between atoms: C_8  and  C_9 
REMARK    5  A    between atoms: C_11  and  C_12 
REMARK    6  A    between atoms: C_11  and  C_13 
ROOT
HETATM    1  C   UNK N   1      28.990  17.587   5.323  0.00  0.00     0.111 C 
HETATM    2  C   UNK N   1      28.767  16.094   5.092  0.00  0.00     0.057 C 
ENDROOT
BRANCH   1   3
HETATM    3  O   UNK N   1      30.260  17.920   4.747  0.00  0.00    -0.371 OA
BRANCH   3   4
HETATM    4  C   UNK N   1      30.752  16.924   3.862  0.00  0.00     0.172 C 
BRANCH   4   5
HETATM    5  C   UNK N   1      32.273  16.913   3.756  0.00  0.00     0.062 C 
BRANCH   5   6
HETATM    6  C   UNK N   1      32.911  16.131   4.885  0.00  0.00     0.224 C 
HETATM    7  N   UNK N   1      33.987  15.301   4.368  0.00  0.00     0.088 N 
HETATM    8  C   UNK N   1      34.876  15.102   5.503  0.00  0.00     0.272 C 
HETATM    9  C   UNK N   1      33.438  14.007   4.000  0.00  0.00     0.310 C 
HETATM   10  C   UNK N   1      34.696  16.283   6.442  0.00  0.00     0.032 C 
HETATM   11  C   UNK N   1      33.562  17.085   5.853  0.00  0.00     0.037 C 
ENDBRANCH   5   6
ENDBRANCH   4   5
ENDBRANCH   3   4
ENDBRANCH   1   3
BRANCH   1  12
HETATM   12  C   UNK N   1      27.836  18.304   4.587  0.00  0.00    -0.019 A 
HETATM   13  C   UNK N   1      27.901  19.700   4.413  0.00  0.00     0.012 A 
HETATM   14  C   UNK N   1      26.849  20.401   3.821  0.00  0.00     0.024 A 
HETATM   15  C   UNK N   1      25.703  19.718   3.407  0.00  0.00     0.034 A 
HETATM   16 Cl   UNK N   1      24.369  20.600   2.697  0.00  0.00    -0.084 Cl
HETATM   17  C   UNK N   1      25.619  18.335   3.570  0.00  0.00     0.024 A 
HETATM   18  C   UNK N   1      26.677  17.634   4.153  0.00  0.00     0.012 A 
ENDBRANCH   1  12
BRANCH   1  19
HETATM   19  C   UNK N   1      29.129  17.750   6.842  0.00  0.00    -0.020 A 
HETATM   20  C   UNK N   1      28.086  18.211   7.668  0.00  0.00     0.010 A 
HETATM   21  C   UNK N   1      28.275  18.352   9.045  0.00  0.00     0.001 A 
HETATM   22  C   UNK N   1      29.506  18.037   9.620  0.00  0.00     0.000 A 
HETATM   23  C   UNK N   1      30.551  17.577   8.818  0.00  0.00     0.001 A 
HETATM   24  C   UNK N   1      30.363  17.436   7.442  0.00  0.00     0.010 A 
ENDBRANCH   1  19
TORSDOF 6
ENDMDL
MODEL 5
REMARK VINA RESULT:      -6.3     21.132     23.830
REMARK  6 active torsions:
REMARK  status: ('A' for Active; 'I' for Inactive)
REMARK    1  A    between atoms: O_2  and  C_9 
REMARK    2  A    between atoms: C_11  and  O_2 
REMARK    3  A    between atoms: C_4  and  C_8 
REMARK    4  A    between atoms: C_8  and  C_9 
REMARK    5  A    between atoms: C_11  and  C_12 
REMARK    6  A    between atoms: C_11  and  C_13 
ROOT
HETATM    1  C   UNK N   1      27.623  24.748  -4.443  0.00  0.00     0.111 C 
HETATM    2  C   UNK N   1      27.031  24.127  -3.179  0.00  0.00     0.057 C 
ENDROOT
BRANCH   1   3
HETATM    3  O   UNK N   1      29.045  24.786  -4.271  0.00  0.00    -0.371 OA
BRANCH   3   4
HETATM    4  C   UNK N   1      29.492  24.052  -3.141  0.00  0.00     0.172 C 
BRANCH   4   5
HETATM    5  C   UNK N   1      30.973  23.691  -3.206  0.00  0.00     0.062 C 
BRANCH   5   6
HETATM    6  C   UNK N   1      31.249  22.634  -4.255  0.00  0.00     0.224 C 
HETATM    7  N   UNK N   1      32.649  22.247  -4.213  0.00  0.00     0.088 N 
HETATM    8  C   UNK N   1      32.674  20.898  -4.758  0.00  0.00     0.272 C 
HETATM    9  C   UNK N   1      33.394  23.107  -5.118  0.00  0.00     0.310 C 
HETATM   10  C   UNK N   1      31.311  20.275  -4.510  0.00  0.00     0.032 C 
HETATM   11  C   UNK N   1      30.471  21.386  -3.928  0.00  0.00     0.037 C 
ENDBRANCH   5   6
ENDBRANCH   4   5
ENDBRANCH   3   4
ENDBRANCH   1   3
BRANCH   1  12
HETATM   12  C   UNK N   1      27.224  23.806  -5.601  0.00  0.00    -0.019 A 
HETATM   13  C   UNK N   1      25.858  23.543  -5.826  0.00  0.00     0.012 A 
HETATM   14  C   UNK N   1      25.454  22.641  -6.812  0.00  0.00     0.024 A 
HETATM   15  C   UNK N   1      26.409  21.971  -7.579  0.00  0.00     0.034 A 
HETATM   16 Cl   UNK N   1      25.902  20.815  -8.790  0.00  0.00    -0.084 Cl
HETATM   17  C   UNK N   1      27.767  22.218  -7.371  0.00  0.00     0.024 A 
HETATM   18  C   UNK N   1      28.170  23.128  -6.392  0.00  0.00     0.012 A 
ENDBRANCH   1  12
BRANCH   1  19
HETATM   19  C   UNK N   1      27.131  26.202  -4.453  0.00  0.00    -0.020 A 
HETATM   20  C   UNK N   1      26.326  26.752  -3.438  0.00  0.00     0.010 A 
HETATM   21  C   UNK N   1      25.896  28.080  -3.507  0.00  0.00     0.001 A 
HETATM   22  C   UNK N   1      26.262  28.879  -4.590  0.00  0.00     0.000 A 
HETATM   23  C   UNK N   1      27.061  28.352  -5.606  0.00  0.00     0.001 A 
HETATM   24  C   UNK N   1      27.491  27.025  -5.537  0.00  0.00     0.010 A 
ENDBRANCH   1  19
TORSDOF 6
ENDMDL
MODEL 6
REMARK VINA RESULT:      -6.2      1.271      1.918
REMARK  6 active torsions:
REMARK  status: ('A' for Active; 'I' for Inactive)
REMARK    1  A    between atoms: O_2  and  C_9 
REMARK    2  A    between atoms: C_11  and  O_2 
REMARK    3  A    between atoms: C_4  and  C_8 
REMARK    4  A    between atoms: C_8  and  C_9 
REMARK    5  A    between atoms: C_11  and  C_12 
REMARK    6  A    between atoms: C_11  and  C_13 
ROOT
HETATM    1  C   UNK N   1      35.737  12.325  14.846  0.00  0.00     0.111 C 
HETATM    2  C   UNK N   1      37.229  12.571  14.625  0.00  0.00     0.057 C 
ENDROOT
BRANCH   1   3
HETATM    3  O   UNK N   1      35.039  13.469  14.340  0.00  0.00    -0.371 OA
BRANCH   3   4
HETATM    4  C   UNK N   1      35.654  14.039  13.194  0.00  0.00     0.172 C 
BRANCH   4   5
HETATM    5  C   UNK N   1      34.959  13.664  11.889  0.00  0.00     0.062 C 
BRANCH   5   6
HETATM    6  C   UNK N   1      35.268  14.650  10.783  0.00  0.00     0.224 C 
HETATM    7  N   UNK N   1      34.048  15.001  10.076  0.00  0.00     0.088 N 
HETATM    8  C   UNK N   1      34.315  16.316   9.511  0.00  0.00     0.272 C 
HETATM    9  C   UNK N   1      33.868  14.072   8.973  0.00  0.00     0.310 C 
HETATM   10  C   UNK N   1      35.361  16.989  10.384  0.00  0.00     0.032 C 
HETATM   11  C   UNK N   1      35.775  15.936  11.383  0.00  0.00     0.037 C 
ENDBRANCH   5   6
ENDBRANCH   4   5
ENDBRANCH   3   4
ENDBRANCH   1   3
BRANCH   1  12
HETATM   12  C   UNK N   1      35.396  11.055  14.034  0.00  0.00    -0.019 A 
HETATM   13  C   UNK N   1      36.438  10.182  13.665  0.00  0.00     0.012 A 
HETATM   14  C   UNK N   1      36.188   9.063  12.868  0.00  0.00     0.024 A 
HETATM   15  C   UNK N   1      34.894   8.807  12.410  0.00  0.00     0.034 A 
HETATM   16 Cl   UNK N   1      34.588   7.424  11.383  0.00  0.00    -0.084 Cl
HETATM   17  C   UNK N   1      33.849   9.661  12.765  0.00  0.00     0.024 A 
HETATM   18  C   UNK N   1      34.097  10.774  13.570  0.00  0.00     0.012 A 
ENDBRANCH   1  12
BRANCH   1  19
HETATM   19  C   UNK N   1      35.546  12.318  16.368  0.00  0.00    -0.020 A 
HETATM   20  C   UNK N   1      35.325  13.484  17.124  0.00  0.00     0.010 A 
HETATM   21  C   UNK N   1      35.171  13.418  18.512  0.00  0.00     0.001 A 
HETATM   22  C   UNK N   1      35.236  12.188  19.167  0.00  0.00     0.000 A 
HETATM   23  C   UNK N   1      35.453  11.020  18.434  0.00  0.00     0.001 A 
HETATM   24  C   UNK N   1      35.607  11.086  17.047  0.00  0.00     0.010 A 
ENDBRANCH   1  19
TORSDOF 6
ENDMDL
MODEL 7
REMARK VINA RESULT:      -6.0     22.074     25.502
REMARK  6 active torsions:
REMARK  status: ('A' for Active; 'I' for Inactive)
REMARK    1  A    between atoms: O_2  and  C_9 
REMARK    2  A    between atoms: C_11  and  O_2 
REMARK    3  A    between atoms: C_4  and  C_8 
REMARK    4  A    between atoms: C_8  and  C_9 
REMARK    5  A    between atoms: C_11  and  C_12 
REMARK    6  A    between atoms: C_11  and  C_13 
ROOT
HETATM    1  C   UNK N   1      26.898  24.959  -5.406  0.00  0.00     0.111 C 
HETATM    2  C   UNK N   1      25.558  24.366  -4.974  0.00  0.00     0.057 C 
ENDROOT
BRANCH   1   3
HETATM    3  O   UNK N   1      26.993  24.800  -6.827  0.00  0.00    -0.371 OA
BRANCH   3   4
HETATM    4  C   UNK N   1      25.729  24.687  -7.464  0.00  0.00     0.172 C 
BRANCH   4   5
HETATM    5  C   UNK N   1      25.832  24.359  -8.950  0.00  0.00     0.062 C 
BRANCH   5   6
HETATM    6  C   UNK N   1      25.888  22.865  -9.194  0.00  0.00     0.224 C 
HETATM    7  N   UNK N   1      27.246  22.383  -9.006  0.00  0.00     0.088 N 
HETATM    8  C   UNK N   1      27.093  20.978  -8.657  0.00  0.00     0.272 C 
HETATM    9  C   UNK N   1      27.943  22.452 -10.279  0.00  0.00     0.310 C 
HETATM   10  C   UNK N   1      25.723  20.808  -8.021  0.00  0.00     0.032 C 
HETATM   11  C   UNK N   1      25.056  22.155  -8.157  0.00  0.00     0.037 C 
ENDBRANCH   5   6
ENDBRANCH   4   5
ENDBRANCH   3   4
ENDBRANCH   1   3
BRANCH   1  12
HETATM   12  C   UNK N   1      26.843  26.452  -5.012  0.00  0.00    -0.019 A 
HETATM   13  C   UNK N   1      26.003  26.848  -3.953  0.00  0.00     0.012 A 
HETATM   14  C   UNK N   1      25.864  28.194  -3.611  0.00  0.00     0.024 A 
HETATM   15  C   UNK N   1      26.551  29.172  -4.333  0.00  0.00     0.034 A 
HETATM   16 Cl   UNK N   1      26.350  30.861  -3.926  0.00  0.00    -0.084 Cl
HETATM   17  C   UNK N   1      27.389  28.800  -5.385  0.00  0.00     0.024 A 
HETATM   18  C   UNK N   1      27.535  27.453  -5.721  0.00  0.00     0.012 A 
ENDBRANCH   1  12
BRANCH   1  19
HETATM   19  C   UNK N   1      27.967  24.055  -4.779  0.00  0.00    -0.020 A 
HETATM   20  C   UNK N   1      28.243  24.027  -3.399  0.00  0.00     0.010 A 
HETATM   21  C   UNK N   1      29.239  23.192  -2.886  0.00  0.00     0.001 A 
HETATM   22  C   UNK N   1      29.976  22.372  -3.741  0.00  0.00     0.000 A 
HETATM   23  C   UNK N   1      29.716  22.385  -5.112  0.00  0.00     0.001 A 
HETATM   24  C   UNK N   1      28.721  23.219  -5.626  0.00  0.00     0.010 A 
ENDBRANCH   1  19
TORSDOF 6
ENDMDL
MODEL 8
REMARK VINA RESULT:      -6.0      3.203      6.273
REMARK  6 active torsions:
REMARK  status: ('A' for Active; 'I' for Inactive)
REMARK    1  A    between atoms: O_2  and  C_9 
REMARK    2  A    between atoms: C_11  and  O_2 
REMARK    3  A    between atoms: C_4  and  C_8 
REMARK    4  A    between atoms: C_8  and  C_9 
REMARK    5  A    between atoms: C_11  and  C_12 
REMARK    6  A    between atoms: C_11  and  C_13 
ROOT
HETATM    1  C   UNK N   1      35.896  12.366  14.912  0.00  0.00     0.111 C 
HETATM    2  C   UNK N   1      34.446  11.912  15.068  0.00  0.00     0.057 C 
ENDROOT
BRANCH   1   3
HETATM    3  O   UNK N   1      36.728  11.278  15.333  0.00  0.00    -0.371 OA
BRANCH   3   4
HETATM    4  C   UNK N   1      36.008  10.239  15.979  0.00  0.00     0.172 C 
BRANCH   4   5
HETATM    5  C   UNK N   1      36.461   9.997  17.416  0.00  0.00     0.062 C 
BRANCH   5   6
HETATM    6  C   UNK N   1      35.285   9.838  18.357  0.00  0.00     0.224 C 
HETATM    7  N   UNK N   1      35.447   8.632  19.153  0.00  0.00     0.088 N 
HETATM    8  C   UNK N   1      34.675   8.883  20.361  0.00  0.00     0.272 C 
HETATM    9  C   UNK N   1      34.824   7.525  18.448  0.00  0.00     0.310 C 
HETATM   10  C   UNK N   1      34.617  10.388  20.567  0.00  0.00     0.032 C 
HETATM   11  C   UNK N   1      35.271  10.978  19.342  0.00  0.00     0.037 C 
ENDBRANCH   5   6
ENDBRANCH   4   5
ENDBRANCH   3   4
ENDBRANCH   1   3
BRANCH   1  12
HETATM   12  C   UNK N   1      36.083  12.666  13.408  0.00  0.00    -0.019 A 
HETATM   13  C   UNK N   1      37.239  12.192  12.757  0.00  0.00     0.012 A 
HETATM   14  C   UNK N   1      37.488  12.502  11.419  0.00  0.00     0.024 A 
HETATM   15  C   UNK N   1      36.593  13.307  10.712  0.00  0.00     0.034 A 
HETATM   16 Cl   UNK N   1      36.923  13.723   9.045  0.00  0.00    -0.084 Cl
HETATM   17  C   UNK N   1      35.442  13.786  11.339  0.00  0.00     0.024 A 
HETATM   18  C   UNK N   1      35.189  13.468  12.674  0.00  0.00     0.012 A 
ENDBRANCH   1  12
BRANCH   1  19
HETATM   19  C   UNK N   1      36.082  13.496  15.933  0.00  0.00    -0.020 A 
HETATM   20  C   UNK N   1      35.330  13.597  17.119  0.00  0.00     0.010 A 
HETATM   21  C   UNK N   1      35.533  14.657  18.007  0.00  0.00     0.001 A 
HETATM   22  C   UNK N   1      36.488  15.634  17.725  0.00  0.00     0.000 A 
HETATM   23  C   UNK N   1      37.244  15.551  16.555  0.00  0.00     0.001 A 
HETATM   24  C   UNK N   1      37.041  14.491  15.667  0.00  0.00     0.010 A 
ENDBRANCH   1  19
TORSDOF 6
ENDMDL
MODEL 9
REMARK VINA RESULT:      -6.0     20.570     24.348
REMARK  6 active torsions:
REMARK  status: ('A' for Active; 'I' for Inactive)
REMARK    1  A    between atoms: O_2  and  C_9 
REMARK    2  A    between atoms: C_11  and  O_2 
REMARK    3  A    between atoms: C_4  and  C_8 
REMARK    4  A    between atoms: C_8  and  C_9 
REMARK    5  A    between atoms: C_11  and  C_12 
REMARK    6  A    between atoms: C_11  and  C_13 
ROOT
HETATM    1  C   UNK N   1      28.576  24.203  -4.492  0.00  0.00     0.111 C 
HETATM    2  C   UNK N   1      27.651  24.243  -3.277  0.00  0.00     0.057 C 
ENDROOT
BRANCH   1   3
HETATM    3  O   UNK N   1      28.917  25.559  -4.809  0.00  0.00    -0.371 OA
BRANCH   3   4
HETATM    4  C   UNK N   1      28.134  26.512  -4.106  0.00  0.00     0.172 C 
BRANCH   4   5
HETATM    5  C   UNK N   1      28.051  27.861  -4.814  0.00  0.00     0.062 C 
BRANCH   5   6
HETATM    6  C   UNK N   1      27.036  27.844  -5.938  0.00  0.00     0.224 C 
HETATM    7  N   UNK N   1      27.540  27.053  -7.049  0.00  0.00     0.088 N 
HETATM    8  C   UNK N   1      26.347  26.599  -7.749  0.00  0.00     0.272 C 
HETATM    9  C   UNK N   1      28.275  27.929  -7.945  0.00  0.00     0.310 C 
HETATM   10  C   UNK N   1      25.210  26.557  -6.741  0.00  0.00     0.032 C 
HETATM   11  C   UNK N   1      25.784  27.144  -5.475  0.00  0.00     0.037 C 
ENDBRANCH   5   6
ENDBRANCH   4   5
ENDBRANCH   3   4
ENDBRANCH   1   3
BRANCH   1  12
HETATM   12  C   UNK N   1      29.819  23.402  -4.048  0.00  0.00    -0.019 A 
HETATM   13  C   UNK N   1      31.095  23.844  -4.450  0.00  0.00     0.012 A 
HETATM   14  C   UNK N   1      32.241  23.111  -4.136  0.00  0.00     0.024 A 
HETATM   15  C   UNK N   1      32.131  21.913  -3.428  0.00  0.00     0.034 A 
HETATM   16 Cl   UNK N   1      33.564  20.978  -3.065  0.00  0.00    -0.084 Cl
HETATM   17  C   UNK N   1      30.876  21.458  -3.020  0.00  0.00     0.024 A 
HETATM   18  C   UNK N   1      29.731  22.196  -3.326  0.00  0.00     0.012 A 
ENDBRANCH   1  12
BRANCH   1  19
HETATM   19  C   UNK N   1      27.713  23.675  -5.645  0.00  0.00    -0.020 A 
HETATM   20  C   UNK N   1      26.337  23.401  -5.518  0.00  0.00     0.010 A 
HETATM   21  C   UNK N   1      25.604  22.907  -6.601  0.00  0.00     0.001 A 
HETATM   22  C   UNK N   1      26.231  22.677  -7.825  0.00  0.00     0.000 A 
HETATM   23  C   UNK N   1      27.593  22.943  -7.971  0.00  0.00     0.001 A 
HETATM   24  C   UNK N   1      28.326  23.437  -6.890  0.00  0.00     0.010 A 
ENDBRANCH   1  19
TORSDOF 6
ENDMDL
