MODEL 1
REMARK VINA RESULT:      -4.8      0.000      0.000
REMARK  0 active torsions:
REMARK  status: ('A' for Active; 'I' for Inactive)
REMARK       I    between atoms: N_8  and  C_12 
ROOT
HETATM    1  S   UNK N   1      42.309  19.264   2.734  0.00  0.00    -0.057 SA
HETATM    2  N   UNK N   1      43.863  23.150   3.155  0.00  0.00    -0.174 N 
HETATM    3  N   UNK N   1      40.967  21.809   1.757  0.00  0.00    -0.347 N 
HETATM    4  N   UNK N   1      41.866  23.865   2.021  0.00  0.00    -0.336 N 
ATOM      5  HN  UNK N   1      42.003  24.875   1.989  1.00  0.00     0.168 HD
HETATM    6  N   UNK N   1      44.032  20.801   3.489  0.00  0.00    -0.179 N 
ATOM      7  HN  UNK N   1      44.555  20.002   3.849  1.00  0.00     0.185 HD
HETATM    8  N   UNK N   1      45.788  22.250   4.270  0.00  0.00    -0.234 N 
HETATM    9  C   UNK N   1      42.145  21.711   2.393  0.00  0.00     0.117 A 
HETATM   10  C   UNK N   1      42.676  22.938   2.547  0.00  0.00     0.152 A 
HETATM   11  C   UNK N   1      42.830  20.593   2.873  0.00  0.00     0.147 A 
HETATM   12  C   UNK N   1      44.549  22.066   3.632  0.00  0.00     0.678 A 
HETATM   13  C   UNK N   1      40.817  23.146   1.539  0.00  0.00     0.182 A 
HETATM   14  H   UNK N   1      44.226  24.061   3.253  0.00  0.00     0.186 HD
HETATM   15  H   UNK N   1      40.352  21.083   1.507  0.00  0.00     0.167 HD
HETATM   16  H   UNK N   1      46.285  21.473   4.615  0.00  0.00     0.174 HD
HETATM   17  H   UNK N   1      46.160  23.156   4.373  0.00  0.00     0.174 HD
ENDROOT
TORSDOF 0
ENDMDL
MODEL 2
REMARK VINA RESULT:      -4.7     21.021     22.514
REMARK  0 active torsions:
REMARK  status: ('A' for Active; 'I' for Inactive)
REMARK       I    between atoms: N_8  and  C_12 
ROOT
HETATM    1  S   UNK N   1      23.401  19.303   3.884  0.00  0.00    -0.057 SA
HETATM    2  N   UNK N   1      19.686  19.309   1.910  0.00  0.00    -0.174 N 
HETATM    3  N   UNK N   1      21.147  17.324   4.373  0.00  0.00    -0.347 N 
HETATM    4  N   UNK N   1      19.177  17.391   3.270  0.00  0.00    -0.336 N 
ATOM      5  HN  UNK N   1      18.232  17.168   2.958  1.00  0.00     0.168 HD
HETATM    6  N   UNK N   1      21.847  20.237   2.267  0.00  0.00    -0.179 N 
ATOM      7  HN  UNK N   1      22.546  20.944   2.036  1.00  0.00     0.185 HD
HETATM    8  N   UNK N   1      20.372  21.227   0.642  0.00  0.00    -0.234 N 
HETATM    9  C   UNK N   1      21.149  18.347   3.503  0.00  0.00     0.117 A 
HETATM   10  C   UNK N   1      19.972  18.382   2.849  0.00  0.00     0.152 A 
HETATM   11  C   UNK N   1      22.131  19.297   3.216  0.00  0.00     0.147 A 
HETATM   12  C   UNK N   1      20.637  20.247   1.616  0.00  0.00     0.678 A 
HETATM   13  C   UNK N   1      19.922  16.750   4.210  0.00  0.00     0.182 A 
HETATM   14  H   UNK N   1      18.816  19.308   1.448  0.00  0.00     0.186 HD
HETATM   15  H   UNK N   1      21.866  17.051   4.986  0.00  0.00     0.167 HD
HETATM   16  H   UNK N   1      21.054  21.905   0.427  0.00  0.00     0.174 HD
HETATM   17  H   UNK N   1      19.505  21.236   0.175  0.00  0.00     0.174 HD
ENDROOT
TORSDOF 0
ENDMDL
MODEL 3
REMARK VINA RESULT:      -4.6     22.228     23.033
REMARK  0 active torsions:
REMARK  status: ('A' for Active; 'I' for Inactive)
REMARK       I    between atoms: N_8  and  C_12 
ROOT
HETATM    1  S   UNK N   1      20.519  17.013   4.748  0.00  0.00    -0.057 SA
HETATM    2  N   UNK N   1      20.427  19.366   1.262  0.00  0.00    -0.174 N 
HETATM    3  N   UNK N   1      19.893  15.993   1.955  0.00  0.00    -0.347 N 
HETATM    4  N   UNK N   1      19.863  17.321   0.127  0.00  0.00    -0.336 N 
ATOM      5  HN  UNK N   1      19.775  17.643  -0.836  1.00  0.00     0.168 HD
HETATM    6  N   UNK N   1      20.748  19.146   3.609  0.00  0.00    -0.179 N 
ATOM      7  HN  UNK N   1      20.969  19.577   4.507  1.00  0.00     0.185 HD
HETATM    8  N   UNK N   1      20.996  21.301   2.563  0.00  0.00    -0.234 N 
HETATM    9  C   UNK N   1      20.187  17.255   2.306  0.00  0.00     0.117 A 
HETATM   10  C   UNK N   1      20.168  18.042   1.214  0.00  0.00     0.152 A 
HETATM   11  C   UNK N   1      20.485  17.807   3.553  0.00  0.00     0.147 A 
HETATM   12  C   UNK N   1      20.721  19.924   2.476  0.00  0.00     0.678 A 
HETATM   13  C   UNK N   1      19.697  16.059   0.608  0.00  0.00     0.182 A 
HETATM   14  H   UNK N   1      20.405  19.915   0.444  0.00  0.00     0.186 HD
HETATM   15  H   UNK N   1      19.833  15.202   2.537  0.00  0.00     0.167 HD
HETATM   16  H   UNK N   1      21.207  21.706   3.434  0.00  0.00     0.174 HD
HETATM   17  H   UNK N   1      20.976  21.859   1.752  0.00  0.00     0.174 HD
ENDROOT
TORSDOF 0
ENDMDL
MODEL 4
REMARK VINA RESULT:      -4.6      1.846      3.599
REMARK  0 active torsions:
REMARK  status: ('A' for Active; 'I' for Inactive)
REMARK       I    between atoms: N_8  and  C_12 
ROOT
HETATM    1  S   UNK N   1      41.748  19.824   2.708  0.00  0.00    -0.057 SA
HETATM    2  N   UNK N   1      45.077  22.131   3.845  0.00  0.00    -0.174 N 
HETATM    3  N   UNK N   1      44.596  18.795   2.960  0.00  0.00    -0.347 N 
HETATM    4  N   UNK N   1      46.336  20.098   3.577  0.00  0.00    -0.336 N 
ATOM      5  HN  UNK N   1      47.276  20.411   3.817  1.00  0.00     0.168 HD
HETATM    6  N   UNK N   1      42.751  21.929   3.389  0.00  0.00    -0.179 N 
ATOM      7  HN  UNK N   1      41.829  22.362   3.331  1.00  0.00     0.185 HD
HETATM    8  N   UNK N   1      43.660  24.056   4.058  0.00  0.00    -0.234 N 
HETATM    9  C   UNK N   1      44.167  20.047   3.186  0.00  0.00     0.117 A 
HETATM   10  C   UNK N   1      45.207  20.819   3.553  0.00  0.00     0.152 A 
HETATM   11  C   UNK N   1      42.890  20.603   3.095  0.00  0.00     0.147 A 
HETATM   12  C   UNK N   1      43.832  22.692   3.761  0.00  0.00     0.678 A 
HETATM   13  C   UNK N   1      45.935  18.852   3.208  0.00  0.00     0.182 A 
HETATM   14  H   UNK N   1      45.858  22.670   4.110  0.00  0.00     0.186 HD
HETATM   15  H   UNK N   1      44.065  18.015   2.681  0.00  0.00     0.167 HD
HETATM   16  H   UNK N   1      42.766  24.464   3.999  0.00  0.00     0.174 HD
HETATM   17  H   UNK N   1      44.434  24.604   4.325  0.00  0.00     0.174 HD
ENDROOT
TORSDOF 0
ENDMDL
MODEL 5
REMARK VINA RESULT:      -4.5     22.234     22.531
REMARK  0 active torsions:
REMARK  status: ('A' for Active; 'I' for Inactive)
REMARK       I    between atoms: N_8  and  C_12 
ROOT
HETATM    1  S   UNK N   1      20.042  16.927   0.802  0.00  0.00    -0.057 SA
HETATM    2  N   UNK N   1      20.993  19.289   4.151  0.00  0.00    -0.174 N 
HETATM    3  N   UNK N   1      20.449  19.938   0.771  0.00  0.00    -0.347 N 
HETATM    4  N   UNK N   1      20.959  21.140   2.615  0.00  0.00    -0.336 N 
ATOM      5  HN  UNK N   1      21.182  21.919   3.234  1.00  0.00     0.168 HD
HETATM    6  N   UNK N   1      20.519  17.173   3.171  0.00  0.00    -0.179 N 
ATOM      7  HN  UNK N   1      20.401  16.166   3.277  1.00  0.00     0.185 HD
HETATM    8  N   UNK N   1      20.981  17.324   5.529  0.00  0.00    -0.234 N 
HETATM    9  C   UNK N   1      20.536  19.123   1.834  0.00  0.00     0.117 A 
HETATM   10  C   UNK N   1      20.840  19.844   2.930  0.00  0.00     0.152 A 
HETATM   11  C   UNK N   1      20.366  17.741   1.938  0.00  0.00     0.147 A 
HETATM   12  C   UNK N   1      20.830  17.936   4.271  0.00  0.00     0.678 A 
HETATM   13  C   UNK N   1      20.714  21.176   1.278  0.00  0.00     0.182 A 
HETATM   14  H   UNK N   1      21.216  19.843   4.934  0.00  0.00     0.186 HD
HETATM   15  H   UNK N   1      20.242  19.698  -0.160  0.00  0.00     0.167 HD
HETATM   16  H   UNK N   1      20.865  16.351   5.620  0.00  0.00     0.174 HD
HETATM   17  H   UNK N   1      21.204  17.869   6.319  0.00  0.00     0.174 HD
ENDROOT
TORSDOF 0
ENDMDL
MODEL 6
REMARK VINA RESULT:      -4.5     22.245     22.687
REMARK  0 active torsions:
REMARK  status: ('A' for Active; 'I' for Inactive)
REMARK       I    between atoms: N_8  and  C_12 
ROOT
HETATM    1  S   UNK N   1      20.049  16.306   1.102  0.00  0.00    -0.057 SA
HETATM    2  N   UNK N   1      20.885  20.143   2.611  0.00  0.00    -0.174 N 
HETATM    3  N   UNK N   1      20.814  16.936   3.974  0.00  0.00    -0.347 N 
HETATM    4  N   UNK N   1      21.250  19.027   4.712  0.00  0.00    -0.336 N 
ATOM      5  HN  UNK N   1      21.492  19.812   5.316  1.00  0.00     0.168 HD
HETATM    6  N   UNK N   1      20.278  18.707   0.814  0.00  0.00    -0.179 N 
ATOM      7  HN  UNK N   1      20.028  18.591  -0.169  1.00  0.00     0.185 HD
HETATM    8  N   UNK N   1      20.481  21.076   0.437  0.00  0.00    -0.234 N 
HETATM    9  C   UNK N   1      20.681  17.810   2.964  0.00  0.00     0.117 A 
HETATM   10  C   UNK N   1      20.941  19.054   3.409  0.00  0.00     0.152 A 
HETATM   11  C   UNK N   1      20.336  17.610   1.626  0.00  0.00     0.147 A 
HETATM   12  C   UNK N   1      20.549  19.964   1.297  0.00  0.00     0.678 A 
HETATM   13  C   UNK N   1      21.165  17.710   5.040  0.00  0.00     0.182 A 
HETATM   14  H   UNK N   1      21.082  21.040   2.966  0.00  0.00     0.186 HD
HETATM   15  H   UNK N   1      20.688  15.961   3.951  0.00  0.00     0.167 HD
HETATM   16  H   UNK N   1      20.239  20.953  -0.509  0.00  0.00     0.174 HD
HETATM   17  H   UNK N   1      20.675  21.978   0.782  0.00  0.00     0.174 HD
ENDROOT
TORSDOF 0
ENDMDL
MODEL 7
REMARK VINA RESULT:      -4.4     14.911     15.565
REMARK  0 active torsions:
REMARK  status: ('A' for Active; 'I' for Inactive)
REMARK       I    between atoms: N_8  and  C_12 
ROOT
HETATM    1  S   UNK N   1      29.938  17.123   5.008  0.00  0.00    -0.057 SA
HETATM    2  N   UNK N   1      27.367  19.546   7.292  0.00  0.00    -0.174 N 
HETATM    3  N   UNK N   1      28.011  19.187   3.886  0.00  0.00    -0.347 N 
HETATM    4  N   UNK N   1      26.659  20.454   5.179  0.00  0.00    -0.336 N 
ATOM      5  HN  UNK N   1      25.963  21.137   5.477  1.00  0.00     0.168 HD
HETATM    6  N   UNK N   1      29.036  17.857   7.140  0.00  0.00    -0.179 N 
ATOM      7  HN  UNK N   1      29.651  17.189   7.605  1.00  0.00     0.185 HD
HETATM    8  N   UNK N   1      28.198  18.523   9.297  0.00  0.00    -0.234 N 
HETATM    9  C   UNK N   1      28.202  18.880   5.179  0.00  0.00     0.117 A 
HETATM   10  C   UNK N   1      27.394  19.637   5.945  0.00  0.00     0.152 A 
HETATM   11  C   UNK N   1      29.058  17.954   5.778  0.00  0.00     0.147 A 
HETATM   12  C   UNK N   1      28.200  18.644   7.896  0.00  0.00     0.678 A 
HETATM   13  C   UNK N   1      27.056  20.159   3.912  0.00  0.00     0.182 A 
HETATM   14  H   UNK N   1      26.765  20.114   7.825  0.00  0.00     0.186 HD
HETATM   15  H   UNK N   1      28.458  18.800   3.100  0.00  0.00     0.167 HD
HETATM   16  H   UNK N   1      28.796  17.875   9.736  0.00  0.00     0.174 HD
HETATM   17  H   UNK N   1      27.600  19.086   9.840  0.00  0.00     0.174 HD
ENDROOT
TORSDOF 0
ENDMDL
MODEL 8
REMARK VINA RESULT:      -4.4     12.658     13.312
REMARK  0 active torsions:
REMARK  status: ('A' for Active; 'I' for Inactive)
REMARK       I    between atoms: N_8  and  C_12 
ROOT
HETATM    1  S   UNK N   1      34.533  12.575   9.793  0.00  0.00    -0.057 SA
HETATM    2  N   UNK N   1      36.086  15.604  12.266  0.00  0.00    -0.174 N 
HETATM    3  N   UNK N   1      34.314  15.560   9.266  0.00  0.00    -0.347 N 
HETATM    4  N   UNK N   1      35.175  17.130  10.644  0.00  0.00    -0.336 N 
ATOM      5  HN  UNK N   1      35.439  18.030  11.044  1.00  0.00     0.168 HD
HETATM    6  N   UNK N   1      35.728  13.303  11.780  0.00  0.00    -0.179 N 
ATOM      7  HN  UNK N   1      35.850  12.324  12.038  1.00  0.00     0.185 HD
HETATM    8  N   UNK N   1      36.924  13.933  13.772  0.00  0.00    -0.234 N 
HETATM    9  C   UNK N   1      34.913  14.967  10.311  0.00  0.00     0.117 A 
HETATM   10  C   UNK N   1      35.424  15.907  11.129  0.00  0.00     0.152 A 
HETATM   11  C   UNK N   1      35.059  13.616  10.630  0.00  0.00     0.147 A 
HETATM   12  C   UNK N   1      36.239  14.284  12.594  0.00  0.00     0.678 A 
HETATM   13  C   UNK N   1      34.489  16.892   9.494  0.00  0.00     0.182 A 
HETATM   14  H   UNK N   1      36.449  16.314  12.844  0.00  0.00     0.186 HD
HETATM   15  H   UNK N   1      33.854  15.132   8.509  0.00  0.00     0.167 HD
HETATM   16  H   UNK N   1      37.036  12.985  14.012  0.00  0.00     0.174 HD
HETATM   17  H   UNK N   1      37.290  14.636  14.357  0.00  0.00     0.174 HD
ENDROOT
TORSDOF 0
ENDMDL
MODEL 9
REMARK VINA RESULT:      -4.4     14.409     15.513
REMARK  0 active torsions:
REMARK  status: ('A' for Active; 'I' for Inactive)
REMARK       I    between atoms: N_8  and  C_12 
ROOT
HETATM    1  S   UNK N   1      28.415  17.930   8.423  0.00  0.00    -0.057 SA
HETATM    2  N   UNK N   1      28.492  19.180   4.407  0.00  0.00    -0.174 N 
HETATM    3  N   UNK N   1      26.908  20.315   7.295  0.00  0.00    -0.347 N 
HETATM    4  N   UNK N   1      26.999  20.926   5.122  0.00  0.00    -0.336 N 
ATOM      5  HN  UNK N   1      26.844  21.428   4.248  1.00  0.00     0.168 HD
HETATM    6  N   UNK N   1      29.177  17.688   6.129  0.00  0.00    -0.179 N 
ATOM      7  HN  UNK N   1      29.717  16.872   6.417  1.00  0.00     0.185 HD
HETATM    8  N   UNK N   1      29.982  17.374   3.882  0.00  0.00    -0.234 N 
HETATM    9  C   UNK N   1      27.710  19.475   6.622  0.00  0.00     0.117 A 
HETATM   10  C   UNK N   1      27.761  19.844   5.328  0.00  0.00     0.152 A 
HETATM   11  C   UNK N   1      28.435  18.364   7.055  0.00  0.00     0.147 A 
HETATM   12  C   UNK N   1      29.209  18.088   4.815  0.00  0.00     0.678 A 
HETATM   13  C   UNK N   1      26.483  21.200   6.350  0.00  0.00     0.182 A 
HETATM   14  H   UNK N   1      28.509  19.474   3.467  0.00  0.00     0.186 HD
HETATM   15  H   UNK N   1      26.680  20.297   8.252  0.00  0.00     0.167 HD
HETATM   16  H   UNK N   1      30.500  16.588   4.171  0.00  0.00     0.174 HD
HETATM   17  H   UNK N   1      30.006  17.659   2.940  0.00  0.00     0.174 HD
ENDROOT
TORSDOF 0
ENDMDL
