MODEL 1
REMARK VINA RESULT:      -5.3      0.000      0.000
REMARK  0 active torsions:
REMARK  status: ('A' for Active; 'I' for Inactive)
ROOT
HETATM    1 Cl   UNK N   1      29.216  16.035   6.017  0.00  0.00    -0.084 Cl
HETATM    2  O   UNK N   1      34.568  18.126   6.799  0.00  0.00    -0.259 OA
HETATM    3  O   UNK N   1      35.325  18.906   8.758  0.00  0.00    -0.238 OA
HETATM    4  N   UNK N   1      33.203  18.109   8.570  0.00  0.00    -0.300 N 
HETATM    5  C   UNK N   1      32.578  17.607   7.493  0.00  0.00     0.072 A 
HETATM    6  C   UNK N   1      33.420  17.622   6.421  0.00  0.00     0.107 A 
HETATM    7  C   UNK N   1      31.281  17.128   7.411  0.00  0.00     0.056 A 
HETATM    8  C   UNK N   1      33.031  17.156   5.168  0.00  0.00     0.041 A 
HETATM    9  C   UNK N   1      30.846  16.648   6.165  0.00  0.00     0.036 A 
HETATM   10  C   UNK N   1      34.439  18.416   8.080  0.00  0.00     0.370 A 
HETATM   11  C   UNK N   1      31.716  16.661   5.044  0.00  0.00     0.026 A 
HETATM   12  H   UNK N   1      32.856  18.227   9.483  0.00  0.00     0.171 HD
ENDROOT
TORSDOF 0
ENDMDL
MODEL 2
REMARK VINA RESULT:      -5.2     11.947     12.991
REMARK  0 active torsions:
REMARK  status: ('A' for Active; 'I' for Inactive)
ROOT
HETATM    1 Cl   UNK N   1      24.673  11.959  10.883  0.00  0.00    -0.084 Cl
HETATM    2  O   UNK N   1      19.420  14.164   9.799  0.00  0.00    -0.259 OA
HETATM    3  O   UNK N   1      19.053  15.867   8.391  0.00  0.00    -0.238 OA
HETATM    4  N   UNK N   1      21.160  15.085   8.738  0.00  0.00    -0.300 N 
HETATM    5  C   UNK N   1      21.573  14.086   9.534  0.00  0.00     0.072 A 
HETATM    6  C   UNK N   1      20.504  13.532  10.174  0.00  0.00     0.107 A 
HETATM    7  C   UNK N   1      22.868  13.632   9.724  0.00  0.00     0.056 A 
HETATM    8  C   UNK N   1      20.643  12.471  11.065  0.00  0.00     0.041 A 
HETATM    9  C   UNK N   1      23.055  12.562  10.614  0.00  0.00     0.036 A 
HETATM   10  C   UNK N   1      19.811  15.090   8.943  0.00  0.00     0.370 A 
HETATM   11  C   UNK N   1      21.948  11.981  11.285  0.00  0.00     0.026 A 
HETATM   12  H   UNK N   1      21.696  15.668   8.154  0.00  0.00     0.171 HD
ENDROOT
TORSDOF 0
ENDMDL
MODEL 3
REMARK VINA RESULT:      -5.0     10.969     11.822
REMARK  0 active torsions:
REMARK  status: ('A' for Active; 'I' for Inactive)
ROOT
HETATM    1 Cl   UNK N   1      23.756  12.643   6.642  0.00  0.00    -0.084 Cl
HETATM    2  O   UNK N   1      22.153  12.215  12.198  0.00  0.00    -0.259 OA
HETATM    3  O   UNK N   1      23.594  11.939  13.891  0.00  0.00    -0.238 OA
HETATM    4  N   UNK N   1      24.340  12.094  11.748  0.00  0.00    -0.300 N 
HETATM    5  C   UNK N   1      23.637  12.259  10.616  0.00  0.00     0.072 A 
HETATM    6  C   UNK N   1      22.307  12.331  10.903  0.00  0.00     0.107 A 
HETATM    7  C   UNK N   1      24.123  12.351   9.322  0.00  0.00     0.056 A 
HETATM    8  C   UNK N   1      21.344  12.502   9.912  0.00  0.00     0.041 A 
HETATM    9  C   UNK N   1      23.187  12.523   8.289  0.00  0.00     0.036 A 
HETATM   10  C   UNK N   1      23.365  12.074  12.702  0.00  0.00     0.370 A 
HETATM   11  C   UNK N   1      21.800  12.599   8.580  0.00  0.00     0.026 A 
HETATM   12  H   UNK N   1      25.314  12.010  11.861  0.00  0.00     0.171 HD
ENDROOT
TORSDOF 0
ENDMDL
MODEL 4
REMARK VINA RESULT:      -4.7      8.945      9.610
REMARK  0 active torsions:
REMARK  status: ('A' for Active; 'I' for Inactive)
ROOT
HETATM    1 Cl   UNK N   1      33.835  10.132  11.808  0.00  0.00    -0.084 Cl
HETATM    2  O   UNK N   1      35.925  13.499  16.042  0.00  0.00    -0.259 OA
HETATM    3  O   UNK N   1      37.558  15.003  15.743  0.00  0.00    -0.238 OA
HETATM    4  N   UNK N   1      36.818  13.736  14.005  0.00  0.00    -0.300 N 
HETATM    5  C   UNK N   1      35.860  12.795  13.990  0.00  0.00     0.072 A 
HETATM    6  C   UNK N   1      35.325  12.659  15.236  0.00  0.00     0.107 A 
HETATM    7  C   UNK N   1      35.432  12.039  12.912  0.00  0.00     0.056 A 
HETATM    8  C   UNK N   1      34.307  11.749  15.509  0.00  0.00     0.041 A 
HETATM    9  C   UNK N   1      34.406  11.107  13.141  0.00  0.00     0.036 A 
HETATM   10  C   UNK N   1      36.815  14.141  15.308  0.00  0.00     0.370 A 
HETATM   11  C   UNK N   1      33.843  10.960  14.435  0.00  0.00     0.026 A 
HETATM   12  H   UNK N   1      37.380  14.055  13.263  0.00  0.00     0.171 HD
ENDROOT
TORSDOF 0
ENDMDL
MODEL 5
REMARK VINA RESULT:      -4.6     15.565     16.332
REMARK  0 active torsions:
REMARK  status: ('A' for Active; 'I' for Inactive)
ROOT
HETATM    1 Cl   UNK N   1      25.577  24.061  -8.737  0.00  0.00    -0.084 Cl
HETATM    2  O   UNK N   1      26.221  26.015  -3.315  0.00  0.00    -0.259 OA
HETATM    3  O   UNK N   1      25.972  28.163  -2.729  0.00  0.00    -0.238 OA
HETATM    4  N   UNK N   1      25.694  27.512  -4.891  0.00  0.00    -0.300 N 
HETATM    5  C   UNK N   1      25.800  26.285  -5.427  0.00  0.00     0.072 A 
HETATM    6  C   UNK N   1      26.122  25.383  -4.457  0.00  0.00     0.107 A 
HETATM    7  C   UNK N   1      25.624  25.921  -6.751  0.00  0.00     0.056 A 
HETATM    8  C   UNK N   1      26.295  24.029  -4.734  0.00  0.00     0.041 A 
HETATM    9  C   UNK N   1      25.790  24.565  -7.077  0.00  0.00     0.036 A 
HETATM   10  C   UNK N   1      25.966  27.284  -3.573  0.00  0.00     0.370 A 
HETATM   11  C   UNK N   1      26.124  23.619  -6.074  0.00  0.00     0.026 A 
HETATM   12  H   UNK N   1      25.475  28.361  -5.336  0.00  0.00     0.171 HD
ENDROOT
TORSDOF 0
ENDMDL
MODEL 6
REMARK VINA RESULT:      -4.5     11.518     12.403
REMARK  0 active torsions:
REMARK  status: ('A' for Active; 'I' for Inactive)
ROOT
HETATM    1 Cl   UNK N   1      29.777  20.348  -8.065  0.00  0.00    -0.084 Cl
HETATM    2  O   UNK N   1      31.387  21.618  -2.641  0.00  0.00    -0.259 OA
HETATM    3  O   UNK N   1      30.411  23.202  -1.392  0.00  0.00    -0.238 OA
HETATM    4  N   UNK N   1      29.693  22.791  -3.511  0.00  0.00    -0.300 N 
HETATM    5  C   UNK N   1      30.147  21.894  -4.401  0.00  0.00     0.072 A 
HETATM    6  C   UNK N   1      31.178  21.186  -3.859  0.00  0.00     0.107 A 
HETATM    7  C   UNK N   1      29.687  21.668  -5.687  0.00  0.00     0.056 A 
HETATM    8  C   UNK N   1      31.840  20.185  -4.565  0.00  0.00     0.041 A 
HETATM    9  C   UNK N   1      30.325  20.666  -6.437  0.00  0.00     0.036 A 
HETATM   10  C   UNK N   1      30.501  22.575  -2.433  0.00  0.00     0.370 A 
HETATM   11  C   UNK N   1      31.400  19.925  -5.880  0.00  0.00     0.026 A 
HETATM   12  H   UNK N   1      28.961  23.441  -3.611  0.00  0.00     0.171 HD
ENDROOT
TORSDOF 0
ENDMDL
MODEL 7
REMARK VINA RESULT:      -4.5     11.031     11.662
REMARK  0 active torsions:
REMARK  status: ('A' for Active; 'I' for Inactive)
ROOT
HETATM    1 Cl   UNK N   1      39.796  23.519  -0.713  0.00  0.00    -0.084 Cl
HETATM    2  O   UNK N   1      42.888  21.321   3.675  0.00  0.00    -0.259 OA
HETATM    3  O   UNK N   1      44.327  22.519   4.904  0.00  0.00    -0.238 OA
HETATM    4  N   UNK N   1      43.168  23.490   3.205  0.00  0.00    -0.300 N 
HETATM    5  C   UNK N   1      42.273  22.942   2.368  0.00  0.00     0.072 A 
HETATM    6  C   UNK N   1      42.110  21.621   2.664  0.00  0.00     0.107 A 
HETATM    7  C   UNK N   1      41.582  23.562   1.340  0.00  0.00     0.056 A 
HETATM    8  C   UNK N   1      41.236  20.805   1.951  0.00  0.00     0.041 A 
HETATM    9  C   UNK N   1      40.689  22.776   0.594  0.00  0.00     0.036 A 
HETATM   10  C   UNK N   1      43.518  22.436   3.997  0.00  0.00     0.370 A 
HETATM   11  C   UNK N   1      40.514  21.401   0.896  0.00  0.00     0.026 A 
HETATM   12  H   UNK N   1      43.491  24.419   3.238  0.00  0.00     0.171 HD
ENDROOT
TORSDOF 0
ENDMDL
MODEL 8
REMARK VINA RESULT:      -4.5     11.327     12.354
REMARK  0 active torsions:
REMARK  status: ('A' for Active; 'I' for Inactive)
ROOT
HETATM    1 Cl   UNK N   1      23.413  11.872  13.410  0.00  0.00    -0.084 Cl
HETATM    2  O   UNK N   1      22.410  12.899   7.792  0.00  0.00    -0.259 OA
HETATM    3  O   UNK N   1      20.397  13.432   6.966  0.00  0.00    -0.238 OA
HETATM    4  N   UNK N   1      20.671  13.050   9.191  0.00  0.00    -0.300 N 
HETATM    5  C   UNK N   1      21.786  12.724   9.864  0.00  0.00     0.072 A 
HETATM    6  C   UNK N   1      22.838  12.635   9.001  0.00  0.00     0.107 A 
HETATM    7  C   UNK N   1      21.920  12.497  11.223  0.00  0.00     0.056 A 
HETATM    8  C   UNK N   1      24.122  12.310   9.430  0.00  0.00     0.041 A 
HETATM    9  C   UNK N   1      23.199  12.166  11.701  0.00  0.00     0.036 A 
HETATM   10  C   UNK N   1      21.118  13.147   7.906  0.00  0.00     0.370 A 
HETATM   11  C   UNK N   1      24.299  12.071  10.810  0.00  0.00     0.026 A 
HETATM   12  H   UNK N   1      19.760  13.185   9.538  0.00  0.00     0.171 HD
ENDROOT
TORSDOF 0
ENDMDL
MODEL 9
REMARK VINA RESULT:      -4.4      9.584     10.260
REMARK  0 active torsions:
REMARK  status: ('A' for Active; 'I' for Inactive)
ROOT
HETATM    1 Cl   UNK N   1      35.390   9.921  17.860  0.00  0.00    -0.084 Cl
HETATM    2  O   UNK N   1      34.846  13.171  13.088  0.00  0.00    -0.259 OA
HETATM    3  O   UNK N   1      36.063  15.010  12.690  0.00  0.00    -0.238 OA
HETATM    4  N   UNK N   1      36.364  13.813  14.600  0.00  0.00    -0.300 N 
HETATM    5  C   UNK N   1      35.738  12.698  15.009  0.00  0.00     0.072 A 
HETATM    6  C   UNK N   1      34.816  12.317  14.080  0.00  0.00     0.107 A 
HETATM    7  C   UNK N   1      35.945  11.991  16.181  0.00  0.00     0.056 A 
HETATM    8  C   UNK N   1      34.018  11.189  14.248  0.00  0.00     0.041 A 
HETATM    9  C   UNK N   1      35.162  10.844  16.393  0.00  0.00     0.036 A 
HETATM   10  C   UNK N   1      35.770  14.063  13.398  0.00  0.00     0.370 A 
HETATM   11  C   UNK N   1      34.200  10.441  15.431  0.00  0.00     0.026 A 
HETATM   12  H   UNK N   1      37.074  14.321  15.053  0.00  0.00     0.171 HD
ENDROOT
TORSDOF 0
ENDMDL
