REMARK  0 active torsions:
REMARK  status: ('A' for Active; 'I' for Inactive)
ROOT
HETATM    1 Cl   UNK N   1       0.207   1.648  -0.000  0.00  0.00    -0.084 Cl
HETATM    2  O   UNK N   1       5.135  -1.409   0.000  0.00  0.00    -0.259 OA
HETATM    3  O   UNK N   1       7.174  -0.481  -0.000  0.00  0.00    -0.238 OA
HETATM    4  N   UNK N   1       5.309   0.821  -0.000  0.00  0.00    -0.300 N 
HETATM    5  C   UNK N   1       4.018   0.452  -0.000  0.00  0.00     0.072 A 
HETATM    6  C   UNK N   1       3.925  -0.908   0.000  0.00  0.00     0.107 A 
HETATM    7  C   UNK N   1       2.902   1.272  -0.000  0.00  0.00     0.056 A 
HETATM    8  C   UNK N   1       2.698  -1.566   0.000  0.00  0.00     0.041 A 
HETATM    9  C   UNK N   1       1.642   0.651  -0.000  0.00  0.00     0.036 A 
HETATM   10  C   UNK N   1       5.960  -0.378  -0.000  0.00  0.00     0.370 A 
HETATM   11  C   UNK N   1       1.537  -0.764   0.000  0.00  0.00     0.026 A 
HETATM   12  H   UNK N   1       5.690   1.728  -0.000  0.00  0.00     0.171 HD
ENDROOT
TORSDOF 0
