REMARK  8 active torsions:
REMARK  status: ('A' for Active; 'I' for Inactive)
REMARK    1  A    between atoms: C_48  and  C_54 
REMARK    2  A    between atoms: C_49  and  C_55 
REMARK    3  A    between atoms: C_62  and  C_67 
REMARK    4  A    between atoms: C_63  and  C_69 
REMARK    5  A    between atoms: C_70  and  C_78 
REMARK    6  A    between atoms: C_71  and  C_79 
REMARK    7  A    between atoms: C_81  and  C_89 
REMARK    8  A    between atoms: C_83  and  C_91 
ROOT
HETATM    1  O   UNK N   1       3.301  11.393   0.000  0.00  0.00    -0.271 OA
HETATM    2  O   UNK N   1       6.159  12.219   0.000  0.00  0.00    -0.266 OA
HETATM    3  O   UNK N   1       0.443  13.869   0.000  0.00  0.00    -0.271 OA
HETATM    4  O   UNK N   1       5.142  15.408   0.000  0.00  0.00    -0.271 OA
HETATM    5  O   UNK N   1       2.586  15.931   0.000  0.00  0.00    -0.271 OA
HETATM    6  O   UNK N   1       4.015  17.581   0.000  0.00  0.00    -0.274 OA
HETATM    7  O   UNK N   1       7.588  14.694   0.000  0.00  0.00    -0.247 OA
HETATM    8  N   UNK N   1       5.110  13.550   0.000  0.00  0.00    -0.220 N 
HETATM    9  N   UNK N   1       4.730  12.219   0.000  0.00  0.00    -0.340 N 
HETATM   10  N   UNK N   1       4.862  14.957   0.000  0.00  0.00    -0.227 N 
ATOM     11  HN  UNK N   1       5.211  15.915   0.000  1.00  0.00     0.177 HD
HETATM   12  N   UNK N   1       2.586  12.631   0.000  0.00  0.00    -0.357 N 
HETATM   13  N   UNK N   1       5.923  14.957   0.000  0.00  0.00    -0.235 N 
HETATM   14  N   UNK N   1       4.730  13.869   0.000  0.00  0.00    -0.320 N 
HETATM   15  N   UNK N   1       1.872  13.869   0.000  0.00  0.00    -0.346 N 
HETATM   16  N   UNK N   1       0.443  12.219   0.000  0.00  0.00    -0.417 N 
HETATM   17  N   UNK N   1       3.301  14.694   0.000  0.00  0.00    -0.344 N 
HETATM   18  N   UNK N   1       4.730  16.344   0.000  0.00  0.00    -0.359 N 
HETATM   19  N   UNK N   1       6.159  18.819   0.000  0.00  0.00    -0.426 N 
HETATM   20  N   UNK N   1       6.873  13.456   0.000  0.00  0.00    -0.317 N 
HETATM   21  N   UNK N   1       4.015  20.881   0.000  0.00  0.00    -0.430 N 
HETATM   22  N   UNK N   1       8.302  13.456   0.000  0.00  0.00    -0.352 N 
HETATM   23  C   UNK N   1       4.298  13.406   0.000  0.00  0.00     0.133 A 
HETATM   24  C   UNK N   1       4.015  12.631   0.000  0.00  0.00     0.200 A 
HETATM   25  C   UNK N   1       3.767  14.038   0.000  0.00  0.00     0.048 A 
HETATM   26  C   UNK N   1       4.049  14.813   0.000  0.00  0.00     0.140 A 
HETATM   27  C   UNK N   1       3.301  12.219   0.000  0.00  0.00     0.242 A 
HETATM   28  C   UNK N   1       5.392  14.325   0.000  0.00  0.00     0.667 A 
HETATM   29  C   UNK N   1       1.872  12.219   0.000  0.00  0.00     0.157 A 
HETATM   30  C   UNK N   1       5.444  12.631   0.000  0.00  0.00     0.270 A 
HETATM   31  C   UNK N   1       1.157  12.631   0.000  0.00  0.00     0.185 A 
HETATM   32  C   UNK N   1       5.444  13.456   0.000  0.00  0.00     0.118 A 
HETATM   33  C   UNK N   1       4.015  15.106   0.000  0.00  0.00     0.194 A 
HETATM   34  C   UNK N   1       1.157  13.456   0.000  0.00  0.00     0.242 A 
HETATM   35  C   UNK N   1       1.872  14.694   0.000  0.00  0.00     0.172 A 
HETATM   36  C   UNK N   1       4.015  15.931   0.000  0.00  0.00     0.157 A 
HETATM   37  C   UNK N   1       4.730  14.694   0.000  0.00  0.00     0.246 A 
HETATM   38  C   UNK N   1       5.444  18.406   0.000  0.00  0.00     0.082 A 
HETATM   39  C   UNK N   1       2.586  15.106   0.000  0.00  0.00     0.240 A 
HETATM   40  C   UNK N   1       4.730  18.819   0.000  0.00  0.00     0.026 A 
HETATM   41  C   UNK N   1       5.444  17.581   0.000  0.00  0.00     0.127 A 
HETATM   42  C   UNK N   1       6.159  13.869   0.000  0.00  0.00     0.128 A 
HETATM   43  C   UNK N   1       1.157  15.106   0.000  0.00  0.00     0.042 A 
HETATM   44  C   UNK N   1       4.730  19.644   0.000  0.00  0.00     0.021 A 
HETATM   45  C   UNK N   1       4.730  17.169   0.000  0.00  0.00     0.219 A 
HETATM   46  C   UNK N   1       4.015  20.056   0.000  0.00  0.00     0.111 A 
HETATM   47  C   UNK N   1       7.588  13.869   0.000  0.00  0.00     0.317 A 
HETATM   48  H   UNK N   1       5.743  12.795   0.000  0.00  0.00     0.178 HD
HETATM   49  H   UNK N   1       4.730  11.234   0.000  0.00  0.00     0.163 HD
HETATM   50  H   UNK N   1       2.586  13.615   0.000  0.00  0.00     0.162 HD
HETATM   51  H   UNK N   1       6.892  14.786   0.000  0.00  0.00     0.174 HD
HETATM   52  H   UNK N   1       5.586  15.882   0.000  0.00  0.00     0.174 HD
HETATM   53  H   UNK N   1       3.877  13.376   0.000  0.00  0.00     0.169 HD
HETATM   54  H   UNK N   1       2.725  13.376   0.000  0.00  0.00     0.163 HD
HETATM   55  H   UNK N   1      -0.440  12.729   0.000  0.00  0.00     0.150 HD
HETATM   56  H   UNK N   1       0.443  11.199   0.000  0.00  0.00     0.150 HD
HETATM   57  H   UNK N   1       3.301  13.709   0.000  0.00  0.00     0.163 HD
HETATM   58  H   UNK N   1       5.582  15.851   0.000  0.00  0.00     0.162 HD
HETATM   59  H   UNK N   1       7.042  18.309   0.000  0.00  0.00     0.150 HD
HETATM   60  H   UNK N   1       6.159  19.839   0.000  0.00  0.00     0.150 HD
HETATM   61  H   UNK N   1       6.873  12.472   0.000  0.00  0.00     0.170 HD
HETATM   62  H   UNK N   1       4.899  21.391   0.000  0.00  0.00     0.149 HD
HETATM   63  H   UNK N   1       3.132  21.391   0.000  0.00  0.00     0.149 HD
HETATM   64  H   UNK N   1       8.302  12.472   0.000  0.00  0.00     0.160 HD
HETATM   65  H   UNK N   1       9.155  13.948   0.000  0.00  0.00     0.160 HD
ENDROOT
TORSDOF 8
