MODEL 1
REMARK VINA RESULT:     -15.7      0.000      0.000
REMARK  8 active torsions:
REMARK  status: ('A' for Active; 'I' for Inactive)
REMARK    1  A    between atoms: C_48  and  C_54 
REMARK    2  A    between atoms: C_49  and  C_55 
REMARK    3  A    between atoms: C_62  and  C_67 
REMARK    4  A    between atoms: C_63  and  C_69 
REMARK    5  A    between atoms: C_70  and  C_78 
REMARK    6  A    between atoms: C_71  and  C_79 
REMARK    7  A    between atoms: C_81  and  C_89 
REMARK    8  A    between atoms: C_83  and  C_91 
ROOT
HETATM    1  O   UNK N   1      19.003  17.042   4.129  0.00  0.00    -0.271 OA
HETATM    2  O   UNK N   1      19.403  19.249   2.175  0.00  0.00    -0.266 OA
HETATM    3  O   UNK N   1      21.776  15.715   6.330  0.00  0.00    -0.271 OA
HETATM    4  O   UNK N   1      22.607  19.392   3.131  0.00  0.00    -0.271 OA
HETATM    5  O   UNK N   1      23.462  17.754   4.973  0.00  0.00    -0.271 OA
HETATM    6  O   UNK N   1      24.851  19.188   4.088  0.00  0.00    -0.274 OA
HETATM    7  O   UNK N   1      21.584  20.903   1.352  0.00  0.00    -0.247 OA
HETATM    8  N   UNK N   1      20.826  18.875   3.014  0.00  0.00    -0.220 N 
HETATM    9  N   UNK N   1      19.600  18.256   3.183  0.00  0.00    -0.340 N 
HETATM   10  N   UNK N   1      22.212  19.077   3.295  0.00  0.00    -0.227 N 
ATOM     11  HN  UNK N   1      23.085  19.575   3.120  1.00  0.00     0.177 HD
HETATM   12  N   UNK N   1      20.291  16.875   4.726  0.00  0.00    -0.357 N 
HETATM   13  N   UNK N   1      22.066  19.815   2.546  0.00  0.00    -0.235 N 
HETATM   14  N   UNK N   1      21.185  18.696   3.306  0.00  0.00    -0.320 N 
HETATM   15  N   UNK N   1      21.579  16.708   5.322  0.00  0.00    -0.346 N 
HETATM   16  N   UNK N   1      20.191  15.275   6.207  0.00  0.00    -0.417 N 
HETATM   17  N   UNK N   1      22.175  17.922   4.376  0.00  0.00    -0.344 N 
HETATM   18  N   UNK N   1      23.563  19.355   3.491  0.00  0.00    -0.359 N 
HETATM   19  N   UNK N   1      25.745  21.008   2.669  0.00  0.00    -0.426 N 
HETATM   20  N   UNK N   1      20.493  20.075   1.764  0.00  0.00    -0.317 N 
HETATM   21  N   UNK N   1      28.022  20.067   4.335  0.00  0.00    -0.430 N 
HETATM   22  N   UNK N   1      20.296  21.069   0.756  0.00  0.00    -0.352 N 
HETATM   23  C   UNK N   1      20.800  18.272   3.576  0.00  0.00     0.133 A 
HETATM   24  C   UNK N   1      20.094  17.869   3.718  0.00  0.00     0.200 A 
HETATM   25  C   UNK N   1      21.480  18.071   3.998  0.00  0.00     0.048 A 
HETATM   26  C   UNK N   1      22.186  18.474   3.857  0.00  0.00     0.140 A 
HETATM   27  C   UNK N   1      19.797  17.262   4.191  0.00  0.00     0.242 A 
HETATM   28  C   UNK N   1      21.532  19.277   2.873  0.00  0.00     0.667 A 
HETATM   29  C   UNK N   1      19.994  16.269   5.199  0.00  0.00     0.157 A 
HETATM   30  C   UNK N   1      19.897  18.862   2.710  0.00  0.00     0.270 A 
HETATM   31  C   UNK N   1      20.488  15.881   5.734  0.00  0.00     0.185 A 
HETATM   32  C   UNK N   1      20.690  19.082   2.772  0.00  0.00     0.118 A 
HETATM   33  C   UNK N   1      22.472  18.528   3.903  0.00  0.00     0.194 A 
HETATM   34  C   UNK N   1      21.281  16.101   5.796  0.00  0.00     0.242 A 
HETATM   35  C   UNK N   1      22.372  16.928   5.384  0.00  0.00     0.172 A 
HETATM   36  C   UNK N   1      23.265  18.748   3.965  0.00  0.00     0.157 A 
HETATM   37  C   UNK N   1      21.978  18.915   3.368  0.00  0.00     0.246 A 
HETATM   38  C   UNK N   1      25.446  20.401   3.142  0.00  0.00     0.082 A 
HETATM   39  C   UNK N   1      22.670  17.535   4.911  0.00  0.00     0.240 A 
HETATM   40  C   UNK N   1      25.942  20.015   3.677  0.00  0.00     0.026 A 
HETATM   41  C   UNK N   1      24.654  20.181   3.080  0.00  0.00     0.127 A 
HETATM   42  C   UNK N   1      20.988  19.689   2.298  0.00  0.00     0.128 A 
HETATM   43  C   UNK N   1      22.867  16.541   5.919  0.00  0.00     0.042 A 
HETATM   44  C   UNK N   1      26.734  20.235   3.738  0.00  0.00     0.021 A 
HETATM   45  C   UNK N   1      24.356  19.575   3.553  0.00  0.00     0.219 A 
HETATM   46  C   UNK N   1      27.229  19.847   4.273  0.00  0.00     0.111 A 
HETATM   47  C   UNK N   1      20.791  20.683   1.290  0.00  0.00     0.317 A 
HETATM   48  H   UNK N   1      20.013  19.114   2.511  0.00  0.00     0.178 HD
HETATM   49  H   UNK N   1      18.653  17.993   3.109  0.00  0.00     0.163 HD
HETATM   50  H   UNK N   1      21.237  17.137   4.800  0.00  0.00     0.162 HD
HETATM   51  H   UNK N   1      21.768  20.443   1.850  0.00  0.00     0.174 HD
HETATM   52  H   UNK N   1      23.001  19.827   2.853  0.00  0.00     0.174 HD
HETATM   53  H   UNK N   1      20.829  17.971   3.871  0.00  0.00     0.169 HD
HETATM   54  H   UNK N   1      20.988  17.170   4.684  0.00  0.00     0.163 HD
HETATM   55  H   UNK N   1      20.803  14.797   6.868  0.00  0.00     0.150 HD
HETATM   56  H   UNK N   1      19.211  15.003   6.131  0.00  0.00     0.150 HD
HETATM   57  H   UNK N   1      21.228  17.659   4.302  0.00  0.00     0.163 HD
HETATM   58  H   UNK N   1      22.972  19.816   2.854  0.00  0.00     0.162 HD
HETATM   59  H   UNK N   1      25.133  21.486   2.008  0.00  0.00     0.150 HD
HETATM   60  H   UNK N   1      26.725  21.280   2.745  0.00  0.00     0.150 HD
HETATM   61  H   UNK N   1      19.547  19.813   1.690  0.00  0.00     0.170 HD
HETATM   62  H   UNK N   1      28.390  20.818   3.750  0.00  0.00     0.149 HD
HETATM   63  H   UNK N   1      28.634  19.589   4.996  0.00  0.00     0.149 HD
HETATM   64  H   UNK N   1      19.350  20.807   0.682  0.00  0.00     0.160 HD
HETATM   65  H   UNK N   1      20.651  21.793   0.191  0.00  0.00     0.160 HD
ENDROOT
TORSDOF 8
ENDMDL
MODEL 2
REMARK VINA RESULT:     -15.1     16.776     19.275
REMARK  8 active torsions:
REMARK  status: ('A' for Active; 'I' for Inactive)
REMARK    1  A    between atoms: C_48  and  C_54 
REMARK    2  A    between atoms: C_49  and  C_55 
REMARK    3  A    between atoms: C_62  and  C_67 
REMARK    4  A    between atoms: C_63  and  C_69 
REMARK    5  A    between atoms: C_70  and  C_78 
REMARK    6  A    between atoms: C_71  and  C_79 
REMARK    7  A    between atoms: C_81  and  C_89 
REMARK    8  A    between atoms: C_83  and  C_91 
ROOT
HETATM    1  O   UNK N   1      35.678  13.304  12.104  0.00  0.00    -0.271 OA
HETATM    2  O   UNK N   1      36.942  15.167  14.049  0.00  0.00    -0.266 OA
HETATM    3  O   UNK N   1      33.810  10.188  13.155  0.00  0.00    -0.271 OA
HETATM    4  O   UNK N   1      35.856  13.183  16.516  0.00  0.00    -0.271 OA
HETATM    5  O   UNK N   1      34.495  11.038  15.921  0.00  0.00    -0.271 OA
HETATM    6  O   UNK N   1      34.901  11.500  18.016  0.00  0.00    -0.274 OA
HETATM    7  O   UNK N   1      37.198  15.316  16.891  0.00  0.00    -0.247 OA
HETATM    8  N   UNK N   1      36.180  13.863  14.817  0.00  0.00    -0.220 N 
HETATM    9  N   UNK N   1      36.235  14.079  13.451  0.00  0.00    -0.340 N 
HETATM   10  N   UNK N   1      35.800  13.141  15.990  0.00  0.00    -0.227 N 
ATOM     11  HN  UNK N   1      35.798  13.043  17.005  1.00  0.00     0.177 HD
HETATM   12  N   UNK N   1      35.098  12.290  12.928  0.00  0.00    -0.357 N 
HETATM   13  N   UNK N   1      36.325  13.949  16.433  0.00  0.00    -0.235 N 
HETATM   14  N   UNK N   1      35.933  13.453  14.948  0.00  0.00    -0.320 N 
HETATM   15  N   UNK N   1      34.518  11.277  13.752  0.00  0.00    -0.346 N 
HETATM   16  N   UNK N   1      34.112  10.814  11.658  0.00  0.00    -0.417 N 
HETATM   17  N   UNK N   1      35.075  12.052  15.098  0.00  0.00    -0.344 N 
HETATM   18  N   UNK N   1      35.481  12.514  17.193  0.00  0.00    -0.359 N 
HETATM   19  N   UNK N   1      35.737  12.663  20.035  0.00  0.00    -0.426 N 
HETATM   20  N   UNK N   1      37.070  15.241  15.469  0.00  0.00    -0.317 N 
HETATM   21  N   UNK N   1      34.298  10.248  21.009  0.00  0.00    -0.430 N 
HETATM   22  N   UNK N   1      37.778  16.330  16.067  0.00  0.00    -0.352 N 
HETATM   23  C   UNK N   1      35.804  13.300  14.347  0.00  0.00     0.133 A 
HETATM   24  C   UNK N   1      35.805  13.378  13.526  0.00  0.00     0.200 A 
HETATM   25  C   UNK N   1      35.425  12.656  14.698  0.00  0.00     0.048 A 
HETATM   26  C   UNK N   1      35.424  12.576  15.519  0.00  0.00     0.140 A 
HETATM   27  C   UNK N   1      35.527  12.991  12.853  0.00  0.00     0.242 A 
HETATM   28  C   UNK N   1      36.178  13.784  15.638  0.00  0.00     0.667 A 
HETATM   29  C   UNK N   1      34.819  11.903  12.256  0.00  0.00     0.157 A 
HETATM   30  C   UNK N   1      36.513  14.466  14.123  0.00  0.00     0.270 A 
HETATM   31  C   UNK N   1      34.390  11.202  12.330  0.00  0.00     0.185 A 
HETATM   32  C   UNK N   1      36.362  14.153  14.872  0.00  0.00     0.118 A 
HETATM   33  C   UNK N   1      35.353  12.439  15.771  0.00  0.00     0.194 A 
HETATM   34  C   UNK N   1      34.239  10.889  13.079  0.00  0.00     0.242 A 
HETATM   35  C   UNK N   1      34.367  10.964  14.501  0.00  0.00     0.172 A 
HETATM   36  C   UNK N   1      35.202  12.126  16.519  0.00  0.00     0.157 A 
HETATM   37  C   UNK N   1      35.782  13.140  15.696  0.00  0.00     0.246 A 
HETATM   38  C   UNK N   1      35.458  12.276  19.362  0.00  0.00     0.082 A 
HETATM   39  C   UNK N   1      34.645  11.351  15.173  0.00  0.00     0.240 A 
HETATM   40  C   UNK N   1      35.029  11.575  19.438  0.00  0.00     0.026 A 
HETATM   41  C   UNK N   1      35.609  12.588  18.613  0.00  0.00     0.127 A 
HETATM   42  C   UNK N   1      36.641  14.541  15.545  0.00  0.00     0.128 A 
HETATM   43  C   UNK N   1      33.938  10.263  14.575  0.00  0.00     0.042 A 
HETATM   44  C   UNK N   1      34.878  11.262  20.186  0.00  0.00     0.021 A 
HETATM   45  C   UNK N   1      35.330  12.201  17.941  0.00  0.00     0.219 A 
HETATM   46  C   UNK N   1      34.449  10.561  20.260  0.00  0.00     0.111 A 
HETATM   47  C   UNK N   1      37.349  15.629  16.143  0.00  0.00     0.317 A 
HETATM   48  H   UNK N   1      36.631  14.632  14.397  0.00  0.00     0.178 HD
HETATM   49  H   UNK N   1      36.415  14.453  12.558  0.00  0.00     0.163 HD
HETATM   50  H   UNK N   1      34.918  11.917  13.821  0.00  0.00     0.162 HD
HETATM   51  H   UNK N   1      36.836  14.751  16.684  0.00  0.00     0.174 HD
HETATM   52  H   UNK N   1      35.989  13.341  17.132  0.00  0.00     0.174 HD
HETATM   53  H   UNK N   1      35.601  12.990  14.144  0.00  0.00     0.169 HD
HETATM   54  H   UNK N   1      35.030  12.113  13.662  0.00  0.00     0.163 HD
HETATM   55  H   UNK N   1      33.581   9.949  11.751  0.00  0.00     0.150 HD
HETATM   56  H   UNK N   1      34.298  11.201  10.733  0.00  0.00     0.150 HD
HETATM   57  H   UNK N   1      35.255  12.425  14.205  0.00  0.00     0.163 HD
HETATM   58  H   UNK N   1      35.993  13.350  17.102  0.00  0.00     0.162 HD
HETATM   59  H   UNK N   1      36.267  13.529  19.942  0.00  0.00     0.150 HD
HETATM   60  H   UNK N   1      35.550  12.276  20.960  0.00  0.00     0.150 HD
HETATM   61  H   UNK N   1      37.250  15.615  14.577  0.00  0.00     0.170 HD
HETATM   62  H   UNK N   1      34.643  10.728  21.841  0.00  0.00     0.149 HD
HETATM   63  H   UNK N   1      33.768   9.383  21.102  0.00  0.00     0.149 HD
HETATM   64  H   UNK N   1      37.957  16.703  15.174  0.00  0.00     0.160 HD
HETATM   65  H   UNK N   1      38.110  16.793  16.870  0.00  0.00     0.160 HD
ENDROOT
TORSDOF 8
ENDMDL
MODEL 3
REMARK VINA RESULT:     -14.9      2.737      4.507
REMARK  8 active torsions:
REMARK  status: ('A' for Active; 'I' for Inactive)
REMARK    1  A    between atoms: C_48  and  C_54 
REMARK    2  A    between atoms: C_49  and  C_55 
REMARK    3  A    between atoms: C_62  and  C_67 
REMARK    4  A    between atoms: C_63  and  C_69 
REMARK    5  A    between atoms: C_70  and  C_78 
REMARK    6  A    between atoms: C_71  and  C_79 
REMARK    7  A    between atoms: C_81  and  C_89 
REMARK    8  A    between atoms: C_83  and  C_91 
ROOT
HETATM    1  O   UNK N   1      19.662  16.785  -0.227  0.00  0.00    -0.271 OA
HETATM    2  O   UNK N   1      20.434  19.336   1.094  0.00  0.00    -0.266 OA
HETATM    3  O   UNK N   1      19.155  13.555   1.672  0.00  0.00    -0.271 OA
HETATM    4  O   UNK N   1      20.439  17.712   4.021  0.00  0.00    -0.271 OA
HETATM    5  O   UNK N   1      19.850  15.171   4.070  0.00  0.00    -0.271 OA
HETATM    6  O   UNK N   1      20.336  16.192   5.937  0.00  0.00    -0.274 OA
HETATM    7  O   UNK N   1      20.986  20.187   3.766  0.00  0.00    -0.247 OA
HETATM    8  N   UNK N   1      20.282  18.064   2.203  0.00  0.00    -0.220 N 
HETATM    9  N   UNK N   1      20.081  17.976   0.836  0.00  0.00    -0.340 N 
HETATM   10  N   UNK N   1      20.334  17.538   3.530  0.00  0.00    -0.227 N 
ATOM     11  HN  UNK N   1      20.497  17.673   4.528  1.00  0.00     0.177 HD
HETATM   12  N   UNK N   1      19.585  15.850   0.851  0.00  0.00    -0.357 N 
HETATM   13  N   UNK N   1      20.596  18.548   3.722  0.00  0.00    -0.235 N 
HETATM   14  N   UNK N   1      20.214  17.636   2.446  0.00  0.00    -0.320 N 
HETATM   15  N   UNK N   1      19.508  14.915   1.930  0.00  0.00    -0.346 N 
HETATM   16  N   UNK N   1      19.022  13.894   0.063  0.00  0.00    -0.417 N 
HETATM   17  N   UNK N   1      19.927  16.106   2.992  0.00  0.00    -0.344 N 
HETATM   18  N   UNK N   1      20.413  17.127   4.859  0.00  0.00    -0.359 N 
HETATM   19  N   UNK N   1      20.965  17.978   7.531  0.00  0.00    -0.426 N 
HETATM   20  N   UNK N   1      20.710  19.761   2.430  0.00  0.00    -0.317 N 
HETATM   21  N   UNK N   1      20.601  15.513   9.155  0.00  0.00    -0.430 N 
HETATM   22  N   UNK N   1      21.062  21.122   2.687  0.00  0.00    -0.352 N 
HETATM   23  C   UNK N   1      20.070  17.320   1.916  0.00  0.00     0.133 A 
HETATM   24  C   UNK N   1      19.937  17.210   1.109  0.00  0.00     0.200 A 
HETATM   25  C   UNK N   1      19.989  16.685   2.437  0.00  0.00     0.048 A 
HETATM   26  C   UNK N   1      20.121  16.794   3.243  0.00  0.00     0.140 A 
HETATM   27  C   UNK N   1      19.728  16.615   0.578  0.00  0.00     0.242 A 
HETATM   28  C   UNK N   1      20.414  18.173   3.010  0.00  0.00     0.667 A 
HETATM   29  C   UNK N   1      19.375  15.255   0.320  0.00  0.00     0.157 A 
HETATM   30  C   UNK N   1      20.290  18.571   1.367  0.00  0.00     0.270 A 
HETATM   31  C   UNK N   1      19.232  14.489   0.593  0.00  0.00     0.185 A 
HETATM   32  C   UNK N   1      20.357  18.401   2.172  0.00  0.00     0.118 A 
HETATM   33  C   UNK N   1      20.137  16.701   3.523  0.00  0.00     0.194 A 
HETATM   34  C   UNK N   1      19.298  14.319   1.398  0.00  0.00     0.242 A 
HETATM   35  C   UNK N   1      19.574  14.745   2.734  0.00  0.00     0.172 A 
HETATM   36  C   UNK N   1      20.203  16.531   4.328  0.00  0.00     0.157 A 
HETATM   37  C   UNK N   1      20.280  17.466   3.250  0.00  0.00     0.246 A 
HETATM   38  C   UNK N   1      20.755  17.382   6.999  0.00  0.00     0.082 A 
HETATM   39  C   UNK N   1      19.784  15.340   3.265  0.00  0.00     0.240 A 
HETATM   40  C   UNK N   1      20.612  16.618   7.273  0.00  0.00     0.026 A 
HETATM   41  C   UNK N   1      20.688  17.552   6.195  0.00  0.00     0.127 A 
HETATM   42  C   UNK N   1      20.566  18.997   2.703  0.00  0.00     0.128 A 
HETATM   43  C   UNK N   1      19.431  13.980   3.007  0.00  0.00     0.042 A 
HETATM   44  C   UNK N   1      20.678  16.448   8.078  0.00  0.00     0.021 A 
HETATM   45  C   UNK N   1      20.479  16.957   5.664  0.00  0.00     0.219 A 
HETATM   46  C   UNK N   1      20.535  15.682   8.351  0.00  0.00     0.111 A 
HETATM   47  C   UNK N   1      20.919  20.357   2.961  0.00  0.00     0.317 A 
HETATM   48  H   UNK N   1      20.377  18.822   1.581  0.00  0.00     0.178 HD
HETATM   49  H   UNK N   1      20.002  18.178  -0.124  0.00  0.00     0.163 HD
HETATM   50  H   UNK N   1      19.664  15.647   1.811  0.00  0.00     0.162 HD
HETATM   51  H   UNK N   1      20.821  19.506   3.730  0.00  0.00     0.174 HD
HETATM   52  H   UNK N   1      20.587  18.037   4.563  0.00  0.00     0.174 HD
HETATM   53  H   UNK N   1      19.963  16.926   1.811  0.00  0.00     0.169 HD
HETATM   54  H   UNK N   1      19.679  15.829   1.603  0.00  0.00     0.163 HD
HETATM   55  H   UNK N   1      18.845  12.949   0.401  0.00  0.00     0.150 HD
HETATM   56  H   UNK N   1      18.940  14.104  -0.932  0.00  0.00     0.150 HD
HETATM   57  H   UNK N   1      19.848  16.309   2.032  0.00  0.00     0.163 HD
HETATM   58  H   UNK N   1      20.583  18.040   4.532  0.00  0.00     0.162 HD
HETATM   59  H   UNK N   1      21.142  18.924   7.193  0.00  0.00     0.150 HD
HETATM   60  H   UNK N   1      21.047  17.768   8.526  0.00  0.00     0.150 HD
HETATM   61  H   UNK N   1      20.630  19.964   1.470  0.00  0.00     0.170 HD
HETATM   62  H   UNK N   1      20.860  16.249   9.812  0.00  0.00     0.149 HD
HETATM   63  H   UNK N   1      20.424  14.567   9.493  0.00  0.00     0.149 HD
HETATM   64  H   UNK N   1      20.983  21.324   1.728  0.00  0.00     0.160 HD
HETATM   65  H   UNK N   1      21.313  21.833   3.321  0.00  0.00     0.160 HD
ENDROOT
TORSDOF 8
ENDMDL
MODEL 4
REMARK VINA RESULT:     -14.4      5.892      8.298
REMARK  8 active torsions:
REMARK  status: ('A' for Active; 'I' for Inactive)
REMARK    1  A    between atoms: C_48  and  C_54 
REMARK    2  A    between atoms: C_49  and  C_55 
REMARK    3  A    between atoms: C_62  and  C_67 
REMARK    4  A    between atoms: C_63  and  C_69 
REMARK    5  A    between atoms: C_70  and  C_78 
REMARK    6  A    between atoms: C_71  and  C_79 
REMARK    7  A    between atoms: C_81  and  C_89 
REMARK    8  A    between atoms: C_83  and  C_91 
ROOT
HETATM    1  O   UNK N   1      27.706  18.521   8.937  0.00  0.00    -0.271 OA
HETATM    2  O   UNK N   1      26.949  19.396   6.196  0.00  0.00    -0.266 OA
HETATM    3  O   UNK N   1      30.780  16.441   9.658  0.00  0.00    -0.271 OA
HETATM    4  O   UNK N   1      29.662  17.813   5.041  0.00  0.00    -0.271 OA
HETATM    5  O   UNK N   1      31.225  16.570   6.720  0.00  0.00    -0.271 OA
HETATM    6  O   UNK N   1      31.714  16.556   4.593  0.00  0.00    -0.274 OA
HETATM    7  O   UNK N   1      28.017  19.081   3.564  0.00  0.00    -0.247 OA
HETATM    8  N   UNK N   1      28.373  18.478   6.203  0.00  0.00    -0.220 N 
HETATM    9  N   UNK N   1      27.617  18.808   7.314  0.00  0.00    -0.340 N 
HETATM   10  N   UNK N   1      29.477  17.863   5.536  0.00  0.00    -0.227 N 
ATOM     11  HN  UNK N   1      29.986  17.657   4.677  1.00  0.00     0.177 HD
HETATM   12  N   UNK N   1      28.909  17.775   8.739  0.00  0.00    -0.357 N 
HETATM   13  N   UNK N   1      28.980  18.299   4.706  0.00  0.00    -0.235 N 
HETATM   14  N   UNK N   1      28.775  18.206   6.305  0.00  0.00    -0.320 N 
HETATM   15  N   UNK N   1      30.112  17.029   8.540  0.00  0.00    -0.346 N 
HETATM   16  N   UNK N   1      29.622  17.044  10.667  0.00  0.00    -0.417 N 
HETATM   17  N   UNK N   1      30.022  17.316   6.918  0.00  0.00    -0.344 N 
HETATM   18  N   UNK N   1      30.512  17.302   4.791  0.00  0.00    -0.359 N 
HETATM   19  N   UNK N   1      31.580  16.987   2.159  0.00  0.00    -0.426 N 
HETATM   20  N   UNK N   1      27.483  19.238   4.881  0.00  0.00    -0.317 N 
HETATM   21  N   UNK N   1      34.030  15.351   2.575  0.00  0.00    -0.430 N 
HETATM   22  N   UNK N   1      26.814  19.826   3.763  0.00  0.00    -0.352 N 
HETATM   23  C   UNK N   1      28.652  18.197   6.926  0.00  0.00     0.133 A 
HETATM   24  C   UNK N   1      28.241  18.363   7.621  0.00  0.00     0.200 A 
HETATM   25  C   UNK N   1      29.344  17.748   6.955  0.00  0.00     0.048 A 
HETATM   26  C   UNK N   1      29.756  17.581   6.260  0.00  0.00     0.140 A 
HETATM   27  C   UNK N   1      28.285  18.220   8.432  0.00  0.00     0.242 A 
HETATM   28  C   UNK N   1      28.785  18.312   5.508  0.00  0.00     0.667 A 
HETATM   29  C   UNK N   1      28.954  17.632   9.550  0.00  0.00     0.157 A 
HETATM   30  C   UNK N   1      27.572  18.951   6.504  0.00  0.00     0.270 A 
HETATM   31  C   UNK N   1      29.577  17.187   9.857  0.00  0.00     0.185 A 
HETATM   32  C   UNK N   1      28.151  18.650   5.999  0.00  0.00     0.118 A 
HETATM   33  C   UNK N   1      29.977  17.460   6.107  0.00  0.00     0.194 A 
HETATM   34  C   UNK N   1      30.156  16.886   9.352  0.00  0.00     0.242 A 
HETATM   35  C   UNK N   1      30.691  16.728   8.036  0.00  0.00     0.172 A 
HETATM   36  C   UNK N   1      30.556  17.159   5.603  0.00  0.00     0.157 A 
HETATM   37  C   UNK N   1      29.354  17.904   5.800  0.00  0.00     0.246 A 
HETATM   38  C   UNK N   1      31.625  16.843   2.971  0.00  0.00     0.082 A 
HETATM   39  C   UNK N   1      30.646  16.872   7.225  0.00  0.00     0.240 A 
HETATM   40  C   UNK N   1      32.249  16.398   3.277  0.00  0.00     0.026 A 
HETATM   41  C   UNK N   1      31.046  17.144   3.475  0.00  0.00     0.127 A 
HETATM   42  C   UNK N   1      28.107  18.794   5.187  0.00  0.00     0.128 A 
HETATM   43  C   UNK N   1      31.314  16.284   8.343  0.00  0.00     0.042 A 
HETATM   44  C   UNK N   1      32.828  16.097   2.772  0.00  0.00     0.021 A 
HETATM   45  C   UNK N   1      31.091  17.001   4.286  0.00  0.00     0.219 A 
HETATM   46  C   UNK N   1      33.451  15.653   3.079  0.00  0.00     0.111 A 
HETATM   47  C   UNK N   1      27.438  19.382   4.069  0.00  0.00     0.317 A 
HETATM   48  H   UNK N   1      27.547  19.015   6.169  0.00  0.00     0.178 HD
HETATM   49  H   UNK N   1      26.926  19.168   7.917  0.00  0.00     0.163 HD
HETATM   50  H   UNK N   1      29.599  17.416   8.137  0.00  0.00     0.162 HD
HETATM   51  H   UNK N   1      28.407  18.761   4.053  0.00  0.00     0.174 HD
HETATM   52  H   UNK N   1      29.787  17.823   4.404  0.00  0.00     0.174 HD
HETATM   53  H   UNK N   1      28.828  18.034   7.274  0.00  0.00     0.169 HD
HETATM   54  H   UNK N   1      29.367  17.560   8.175  0.00  0.00     0.163 HD
HETATM   55  H   UNK N   1      30.393  16.494  11.046  0.00  0.00     0.150 HD
HETATM   56  H   UNK N   1      28.906  17.416  11.291  0.00  0.00     0.150 HD
HETATM   57  H   UNK N   1      29.331  17.676   7.520  0.00  0.00     0.163 HD
HETATM   58  H   UNK N   1      29.767  17.833   4.426  0.00  0.00     0.162 HD
HETATM   59  H   UNK N   1      30.809  17.536   1.780  0.00  0.00     0.150 HD
HETATM   60  H   UNK N   1      32.296  16.614   1.535  0.00  0.00     0.150 HD
HETATM   61  H   UNK N   1      26.792  19.597   5.483  0.00  0.00     0.170 HD
HETATM   62  H   UNK N   1      33.975  15.529   1.571  0.00  0.00     0.149 HD
HETATM   63  H   UNK N   1      34.801  14.802   2.953  0.00  0.00     0.149 HD
HETATM   64  H   UNK N   1      26.124  20.186   4.365  0.00  0.00     0.160 HD
HETATM   65  H   UNK N   1      26.761  19.998   2.795  0.00  0.00     0.160 HD
ENDROOT
TORSDOF 8
ENDMDL
MODEL 5
REMARK VINA RESULT:     -14.3      7.489      9.983
REMARK  8 active torsions:
REMARK  status: ('A' for Active; 'I' for Inactive)
REMARK    1  A    between atoms: C_48  and  C_54 
REMARK    2  A    between atoms: C_49  and  C_55 
REMARK    3  A    between atoms: C_62  and  C_67 
REMARK    4  A    between atoms: C_63  and  C_69 
REMARK    5  A    between atoms: C_70  and  C_78 
REMARK    6  A    between atoms: C_71  and  C_79 
REMARK    7  A    between atoms: C_81  and  C_89 
REMARK    8  A    between atoms: C_83  and  C_91 
ROOT
HETATM    1  O   UNK N   1      27.990  18.373   6.133  0.00  0.00    -0.271 OA
HETATM    2  O   UNK N   1      29.843  17.791   3.879  0.00  0.00    -0.266 OA
HETATM    3  O   UNK N   1      28.864  17.682   9.747  0.00  0.00    -0.271 OA
HETATM    4  O   UNK N   1      32.059  16.655   6.116  0.00  0.00    -0.271 OA
HETATM    5  O   UNK N   1      31.444  16.689   8.651  0.00  0.00    -0.271 OA
HETATM    6  O   UNK N   1      33.392  15.921   8.034  0.00  0.00    -0.274 OA
HETATM    7  O   UNK N   1      32.472  16.704   3.602  0.00  0.00    -0.247 OA
HETATM    8  N   UNK N   1      30.512  17.374   5.380  0.00  0.00    -0.220 N 
HETATM    9  N   UNK N   1      29.257  17.923   5.176  0.00  0.00    -0.340 N 
HETATM   10  N   UNK N   1      31.572  16.855   6.184  0.00  0.00    -0.227 N 
ATOM     11  HN  UNK N   1      32.506  16.453   6.262  1.00  0.00     0.177 HD
HETATM   12  N   UNK N   1      28.719  17.962   7.292  0.00  0.00    -0.357 N 
HETATM   13  N   UNK N   1      32.007  16.757   5.221  0.00  0.00    -0.235 N 
HETATM   14  N   UNK N   1      30.620  17.286   5.856  0.00  0.00    -0.320 N 
HETATM   15  N   UNK N   1      29.449  17.550   8.450  0.00  0.00    -0.346 N 
HETATM   16  N   UNK N   1      27.501  18.319   9.067  0.00  0.00    -0.417 N 
HETATM   17  N   UNK N   1      30.716  17.100   7.493  0.00  0.00    -0.344 N 
HETATM   18  N   UNK N   1      32.663  16.332   6.875  0.00  0.00    -0.359 N 
HETATM   19  N   UNK N   1      35.292  15.246   6.598  0.00  0.00    -0.426 N 
HETATM   20  N   UNK N   1      31.157  17.248   3.741  0.00  0.00    -0.317 N 
HETATM   21  N   UNK N   1      36.116  14.649   9.393  0.00  0.00    -0.430 N 
HETATM   22  N   UNK N   1      31.742  17.116   2.444  0.00  0.00    -0.352 N 
HETATM   23  C   UNK N   1      30.060  17.505   6.057  0.00  0.00     0.133 A 
HETATM   24  C   UNK N   1      29.305  17.830   5.995  0.00  0.00     0.200 A 
HETATM   25  C   UNK N   1      30.365  17.310   6.800  0.00  0.00     0.048 A 
HETATM   26  C   UNK N   1      31.120  16.985   6.863  0.00  0.00     0.140 A 
HETATM   27  C   UNK N   1      28.672  18.055   6.473  0.00  0.00     0.242 A 
HETATM   28  C   UNK N   1      31.267  17.049   5.443  0.00  0.00     0.667 A 
HETATM   29  C   UNK N   1      28.087  18.187   7.770  0.00  0.00     0.157 A 
HETATM   30  C   UNK N   1      29.890  17.698   4.698  0.00  0.00     0.270 A 
HETATM   31  C   UNK N   1      28.134  18.094   8.589  0.00  0.00     0.185 A 
HETATM   32  C   UNK N   1      30.571  17.380   5.038  0.00  0.00     0.118 A 
HETATM   33  C   UNK N   1      31.348  16.875   7.014  0.00  0.00     0.194 A 
HETATM   34  C   UNK N   1      28.815  17.776   8.929  0.00  0.00     0.242 A 
HETATM   35  C   UNK N   1      30.130  17.232   8.790  0.00  0.00     0.172 A 
HETATM   36  C   UNK N   1      32.029  16.557   7.354  0.00  0.00     0.157 A 
HETATM   37  C   UNK N   1      31.301  16.968   6.196  0.00  0.00     0.246 A 
HETATM   38  C   UNK N   1      34.658  15.471   7.077  0.00  0.00     0.082 A 
HETATM   39  C   UNK N   1      30.763  17.007   8.311  0.00  0.00     0.240 A 
HETATM   40  C   UNK N   1      34.707  15.378   7.895  0.00  0.00     0.026 A 
HETATM   41  C   UNK N   1      33.977  15.789   6.737  0.00  0.00     0.127 A 
HETATM   42  C   UNK N   1      31.205  17.154   4.559  0.00  0.00     0.128 A 
HETATM   43  C   UNK N   1      30.178  17.139   9.608  0.00  0.00     0.042 A 
HETATM   44  C   UNK N   1      35.388  15.060   8.234  0.00  0.00     0.021 A 
HETATM   45  C   UNK N   1      33.344  16.014   7.215  0.00  0.00     0.219 A 
HETATM   46  C   UNK N   1      35.435  14.967   9.053  0.00  0.00     0.111 A 
HETATM   47  C   UNK N   1      31.790  17.022   3.262  0.00  0.00     0.317 A 
HETATM   48  H   UNK N   1      30.148  17.607   4.494  0.00  0.00     0.178 HD
HETATM   49  H   UNK N   1      28.444  18.302   4.771  0.00  0.00     0.163 HD
HETATM   50  H   UNK N   1      29.532  17.582   7.697  0.00  0.00     0.162 HD
HETATM   51  H   UNK N   1      32.262  16.733   4.271  0.00  0.00     0.174 HD
HETATM   52  H   UNK N   1      32.632  16.431   5.908  0.00  0.00     0.174 HD
HETATM   53  H   UNK N   1      29.863  17.555   6.427  0.00  0.00     0.169 HD
HETATM   54  H   UNK N   1      29.391  17.662   7.473  0.00  0.00     0.163 HD
HETATM   55  H   UNK N   1      27.561  18.203  10.079  0.00  0.00     0.150 HD
HETATM   56  H   UNK N   1      26.659  18.712   8.647  0.00  0.00     0.150 HD
HETATM   57  H   UNK N   1      29.902  17.480   7.087  0.00  0.00     0.163 HD
HETATM   58  H   UNK N   1      32.605  16.443   5.899  0.00  0.00     0.162 HD
HETATM   59  H   UNK N   1      35.233  15.361   5.586  0.00  0.00     0.150 HD
HETATM   60  H   UNK N   1      36.134  14.852   7.018  0.00  0.00     0.150 HD
HETATM   61  H   UNK N   1      30.344  17.627   3.336  0.00  0.00     0.170 HD
HETATM   62  H   UNK N   1      36.899  14.370   8.801  0.00  0.00     0.149 HD
HETATM   63  H   UNK N   1      36.176  14.534  10.404  0.00  0.00     0.149 HD
HETATM   64  H   UNK N   1      30.929  17.495   2.039  0.00  0.00     0.160 HD
HETATM   65  H   UNK N   1      32.497  16.847   1.872  0.00  0.00     0.160 HD
ENDROOT
TORSDOF 8
ENDMDL
MODEL 6
REMARK VINA RESULT:     -14.3      5.658     10.116
REMARK  8 active torsions:
REMARK  status: ('A' for Active; 'I' for Inactive)
REMARK    1  A    between atoms: C_48  and  C_54 
REMARK    2  A    between atoms: C_49  and  C_55 
REMARK    3  A    between atoms: C_62  and  C_67 
REMARK    4  A    between atoms: C_63  and  C_69 
REMARK    5  A    between atoms: C_70  and  C_78 
REMARK    6  A    between atoms: C_71  and  C_79 
REMARK    7  A    between atoms: C_81  and  C_89 
REMARK    8  A    between atoms: C_83  and  C_91 
ROOT
HETATM    1  O   UNK N   1      33.327  15.453   7.394  0.00  0.00    -0.271 OA
HETATM    2  O   UNK N   1      31.341  16.301   9.441  0.00  0.00    -0.266 OA
HETATM    3  O   UNK N   1      32.945  16.226   3.712  0.00  0.00    -0.271 OA
HETATM    4  O   UNK N   1      29.551  17.709   6.988  0.00  0.00    -0.271 OA
HETATM    5  O   UNK N   1      30.422  17.570   4.533  0.00  0.00    -0.271 OA
HETATM    6  O   UNK N   1      28.543  18.602   4.943  0.00  0.00    -0.274 OA
HETATM    7  O   UNK N   1      28.871  17.738   9.443  0.00  0.00    -0.247 OA
HETATM    8  N   UNK N   1      30.899  16.792   7.880  0.00  0.00    -0.220 N 
HETATM    9  N   UNK N   1      32.038  16.080   8.213  0.00  0.00    -0.340 N 
HETATM   10  N   UNK N   1      30.011  17.445   6.971  0.00  0.00    -0.227 N 
ATOM     11  HN  UNK N   1      29.154  17.969   6.796  1.00  0.00     0.177 HD
HETATM   12  N   UNK N   1      32.788  15.950   6.167  0.00  0.00    -0.357 N 
HETATM   13  N   UNK N   1      29.494  17.609   7.882  0.00  0.00    -0.235 N 
HETATM   14  N   UNK N   1      30.855  16.890   7.396  0.00  0.00    -0.320 N 
HETATM   15  N   UNK N   1      32.249  16.447   4.940  0.00  0.00    -0.346 N 
HETATM   16  N   UNK N   1      34.128  15.416   4.529  0.00  0.00    -0.417 N 
HETATM   17  N   UNK N   1      30.961  17.074   5.759  0.00  0.00    -0.344 N 
HETATM   18  N   UNK N   1      29.081  18.105   6.170  0.00  0.00    -0.359 N 
HETATM   19  N   UNK N   1      26.611  19.542   6.173  0.00  0.00    -0.426 N 
HETATM   20  N   UNK N   1      30.107  17.019   9.442  0.00  0.00    -0.317 N 
HETATM   21  N   UNK N   1      26.178  20.222   3.309  0.00  0.00    -0.430 N 
HETATM   22  N   UNK N   1      29.410  17.241  10.670  0.00  0.00    -0.352 N 
HETATM   23  C   UNK N   1      31.398  16.596   7.254  0.00  0.00     0.133 A 
HETATM   24  C   UNK N   1      32.091  16.171   7.395  0.00  0.00     0.200 A 
HETATM   25  C   UNK N   1      31.204  16.824   6.485  0.00  0.00     0.048 A 
HETATM   26  C   UNK N   1      30.511  17.248   6.343  0.00  0.00     0.140 A 
HETATM   27  C   UNK N   1      32.735  15.859   6.985  0.00  0.00     0.242 A 
HETATM   28  C   UNK N   1      30.206  17.216   7.739  0.00  0.00     0.667 A 
HETATM   29  C   UNK N   1      33.431  15.637   5.757  0.00  0.00     0.157 A 
HETATM   30  C   UNK N   1      31.395  16.393   8.622  0.00  0.00     0.270 A 
HETATM   31  C   UNK N   1      33.484  15.728   4.939  0.00  0.00     0.185 A 
HETATM   32  C   UNK N   1      30.803  16.798   8.214  0.00  0.00     0.118 A 
HETATM   33  C   UNK N   1      30.317  17.386   6.169  0.00  0.00     0.194 A 
HETATM   34  C   UNK N   1      32.893  16.133   4.530  0.00  0.00     0.242 A 
HETATM   35  C   UNK N   1      31.657  16.852   4.532  0.00  0.00     0.172 A 
HETATM   36  C   UNK N   1      29.726  17.791   5.760  0.00  0.00     0.157 A 
HETATM   37  C   UNK N   1      30.264  17.295   6.987  0.00  0.00     0.246 A 
HETATM   38  C   UNK N   1      27.255  19.228   5.763  0.00  0.00     0.082 A 
HETATM   39  C   UNK N   1      31.014  17.165   4.941  0.00  0.00     0.240 A 
HETATM   40  C   UNK N   1      27.307  19.320   4.945  0.00  0.00     0.026 A 
HETATM   41  C   UNK N   1      27.847  18.823   6.171  0.00  0.00     0.127 A 
HETATM   42  C   UNK N   1      30.159  17.112   8.624  0.00  0.00     0.128 A 
HETATM   43  C   UNK N   1      31.710  16.944   3.713  0.00  0.00     0.042 A 
HETATM   44  C   UNK N   1      26.716  19.725   4.536  0.00  0.00     0.021 A 
HETATM   45  C   UNK N   1      28.490  18.510   5.762  0.00  0.00     0.219 A 
HETATM   46  C   UNK N   1      26.769  19.817   3.718  0.00  0.00     0.111 A 
HETATM   47  C   UNK N   1      29.462  17.333   9.852  0.00  0.00     0.317 A 
HETATM   48  H   UNK N   1      31.131  16.520   8.798  0.00  0.00     0.178 HD
HETATM   49  H   UNK N   1      32.744  15.596   8.701  0.00  0.00     0.163 HD
HETATM   50  H   UNK N   1      32.083  16.433   5.679  0.00  0.00     0.162 HD
HETATM   51  H   UNK N   1      29.144  17.675   8.800  0.00  0.00     0.174 HD
HETATM   52  H   UNK N   1      28.995  18.011   7.135  0.00  0.00     0.174 HD
HETATM   53  H   UNK N   1      31.624  16.516   6.907  0.00  0.00     0.169 HD
HETATM   54  H   UNK N   1      32.186  16.337   5.917  0.00  0.00     0.163 HD
HETATM   55  H   UNK N   1      34.193  15.529   3.518  0.00  0.00     0.150 HD
HETATM   56  H   UNK N   1      34.859  14.915   5.034  0.00  0.00     0.150 HD
HETATM   57  H   UNK N   1      31.667  16.590   6.247  0.00  0.00     0.163 HD
HETATM   58  H   UNK N   1      29.019  17.995   7.147  0.00  0.00     0.162 HD
HETATM   59  H   UNK N   1      26.546  19.428   7.184  0.00  0.00     0.150 HD
HETATM   60  H   UNK N   1      25.880  20.042   5.667  0.00  0.00     0.150 HD
HETATM   61  H   UNK N   1      30.812  16.536   9.929  0.00  0.00     0.170 HD
HETATM   62  H   UNK N   1      25.381  20.609   3.816  0.00  0.00     0.149 HD
HETATM   63  H   UNK N   1      26.243  20.335   2.298  0.00  0.00     0.149 HD
HETATM   64  H   UNK N   1      30.115  16.758  11.157  0.00  0.00     0.160 HD
HETATM   65  H   UNK N   1      28.642  17.615  11.159  0.00  0.00     0.160 HD
ENDROOT
TORSDOF 8
ENDMDL
MODEL 7
REMARK VINA RESULT:     -14.2      8.215     12.386
REMARK  8 active torsions:
REMARK  status: ('A' for Active; 'I' for Inactive)
REMARK    1  A    between atoms: C_48  and  C_54 
REMARK    2  A    between atoms: C_49  and  C_55 
REMARK    3  A    between atoms: C_62  and  C_67 
REMARK    4  A    between atoms: C_63  and  C_69 
REMARK    5  A    between atoms: C_70  and  C_78 
REMARK    6  A    between atoms: C_71  and  C_79 
REMARK    7  A    between atoms: C_81  and  C_89 
REMARK    8  A    between atoms: C_83  and  C_91 
ROOT
HETATM    1  O   UNK N   1      35.345  14.986   5.301  0.00  0.00    -0.271 OA
HETATM    2  O   UNK N   1      35.668  15.720   8.166  0.00  0.00    -0.266 OA
HETATM    3  O   UNK N   1      32.177  15.660   3.349  0.00  0.00    -0.271 OA
HETATM    4  O   UNK N   1      32.554  16.945   8.108  0.00  0.00    -0.271 OA
HETATM    5  O   UNK N   1      31.178  16.827   5.895  0.00  0.00    -0.271 OA
HETATM    6  O   UNK N   1      30.274  17.722   7.669  0.00  0.00    -0.274 OA
HETATM    7  O   UNK N   1      34.054  16.967  10.168  0.00  0.00    -0.247 OA
HETATM    8  N   UNK N   1      34.142  16.148   7.566  0.00  0.00    -0.220 N 
HETATM    9  N   UNK N   1      35.151  15.529   6.848  0.00  0.00    -0.340 N 
HETATM   10  N   UNK N   1      32.841  16.715   7.726  0.00  0.00    -0.227 N 
ATOM     11  HN  UNK N   1      32.142  17.171   8.312  1.00  0.00     0.177 HD
HETATM   12  N   UNK N   1      34.020  15.418   4.983  0.00  0.00    -0.357 N 
HETATM   13  N   UNK N   1      33.225  16.857   8.704  0.00  0.00    -0.235 N 
HETATM   14  N   UNK N   1      33.730  16.233   7.303  0.00  0.00    -0.320 N 
HETATM   15  N   UNK N   1      32.695  15.851   4.667  0.00  0.00    -0.346 N 
HETATM   16  N   UNK N   1      33.598  14.956   2.893  0.00  0.00    -0.417 N 
HETATM   17  N   UNK N   1      32.502  16.394   6.213  0.00  0.00    -0.344 N 
HETATM   18  N   UNK N   1      31.598  17.289   7.987  0.00  0.00    -0.359 N 
HETATM   19  N   UNK N   1      29.984  18.537   9.989  0.00  0.00    -0.426 N 
HETATM   20  N   UNK N   1      34.861  16.344   9.166  0.00  0.00    -0.317 N 
HETATM   21  N   UNK N   1      27.432  19.130   8.581  0.00  0.00    -0.430 N 
HETATM   22  N   UNK N   1      35.379  16.535  10.484  0.00  0.00    -0.352 N 
HETATM   23  C   UNK N   1      33.972  15.978   6.777  0.00  0.00     0.133 A 
HETATM   24  C   UNK N   1      34.537  15.610   6.302  0.00  0.00     0.200 A 
HETATM   25  C   UNK N   1      33.236  16.177   6.462  0.00  0.00     0.048 A 
HETATM   26  C   UNK N   1      32.670  16.545   6.936  0.00  0.00     0.140 A 
HETATM   27  C   UNK N   1      34.633  15.338   5.529  0.00  0.00     0.242 A 
HETATM   28  C   UNK N   1      33.577  16.516   8.040  0.00  0.00     0.667 A 
HETATM   29  C   UNK N   1      34.116  15.147   4.211  0.00  0.00     0.157 A 
HETATM   30  C   UNK N   1      35.054  15.801   7.620  0.00  0.00     0.270 A 
HETATM   31  C   UNK N   1      33.502  15.227   3.665  0.00  0.00     0.185 A 
HETATM   32  C   UNK N   1      34.344  16.153   7.848  0.00  0.00     0.118 A 
HETATM   33  C   UNK N   1      32.406  16.666   6.985  0.00  0.00     0.194 A 
HETATM   34  C   UNK N   1      32.792  15.579   3.893  0.00  0.00     0.242 A 
HETATM   35  C   UNK N   1      31.984  16.203   4.895  0.00  0.00     0.172 A 
HETATM   36  C   UNK N   1      31.695  17.018   7.213  0.00  0.00     0.157 A 
HETATM   37  C   UNK N   1      33.019  16.585   7.531  0.00  0.00     0.246 A 
HETATM   38  C   UNK N   1      30.081  18.265   9.215  0.00  0.00     0.082 A 
HETATM   39  C   UNK N   1      31.888  16.475   5.667  0.00  0.00     0.240 A 
HETATM   40  C   UNK N   1      29.467  18.346   8.671  0.00  0.00     0.026 A 
HETATM   41  C   UNK N   1      30.792  17.913   8.987  0.00  0.00     0.127 A 
HETATM   42  C   UNK N   1      34.247  16.424   8.622  0.00  0.00     0.128 A 
HETATM   43  C   UNK N   1      31.371  16.284   4.349  0.00  0.00     0.042 A 
HETATM   44  C   UNK N   1      28.757  18.698   8.898  0.00  0.00     0.021 A 
HETATM   45  C   UNK N   1      30.888  17.642   8.215  0.00  0.00     0.219 A 
HETATM   46  C   UNK N   1      28.143  18.778   8.353  0.00  0.00     0.111 A 
HETATM   47  C   UNK N   1      34.765  16.615   9.940  0.00  0.00     0.317 A 
HETATM   48  H   UNK N   1      35.022  15.911   7.941  0.00  0.00     0.178 HD
HETATM   49  H   UNK N   1      35.999  15.109   6.575  0.00  0.00     0.163 HD
HETATM   50  H   UNK N   1      33.172  15.838   5.255  0.00  0.00     0.162 HD
HETATM   51  H   UNK N   1      33.723  16.914   9.551  0.00  0.00     0.174 HD
HETATM   52  H   UNK N   1      32.306  17.207   8.649  0.00  0.00     0.174 HD
HETATM   53  H   UNK N   1      33.845  15.909   6.380  0.00  0.00     0.169 HD
HETATM   54  H   UNK N   1      33.428  15.755   5.317  0.00  0.00     0.163 HD
HETATM   55  H   UNK N   1      32.839  15.056   2.219  0.00  0.00     0.150 HD
HETATM   56  H   UNK N   1      34.477  14.521   2.611  0.00  0.00     0.150 HD
HETATM   57  H   UNK N   1      33.350  15.974   5.941  0.00  0.00     0.163 HD
HETATM   58  H   UNK N   1      32.331  17.193   8.637  0.00  0.00     0.162 HD
HETATM   59  H   UNK N   1      30.743  18.437  10.662  0.00  0.00     0.150 HD
HETATM   60  H   UNK N   1      29.106  18.972  10.271  0.00  0.00     0.150 HD
HETATM   61  H   UNK N   1      35.709  15.924   8.894  0.00  0.00     0.170 HD
HETATM   62  H   UNK N   1      27.313  19.466   9.537  0.00  0.00     0.149 HD
HETATM   63  H   UNK N   1      26.673  19.229   7.907  0.00  0.00     0.149 HD
HETATM   64  H   UNK N   1      36.226  16.115  10.213  0.00  0.00     0.160 HD
HETATM   65  H   UNK N   1      35.264  16.859  11.407  0.00  0.00     0.160 HD
ENDROOT
TORSDOF 8
ENDMDL
MODEL 8
REMARK VINA RESULT:     -14.2      1.477      5.286
REMARK  8 active torsions:
REMARK  status: ('A' for Active; 'I' for Inactive)
REMARK    1  A    between atoms: C_48  and  C_54 
REMARK    2  A    between atoms: C_49  and  C_55 
REMARK    3  A    between atoms: C_62  and  C_67 
REMARK    4  A    between atoms: C_63  and  C_69 
REMARK    5  A    between atoms: C_70  and  C_78 
REMARK    6  A    between atoms: C_71  and  C_79 
REMARK    7  A    between atoms: C_81  and  C_89 
REMARK    8  A    between atoms: C_83  and  C_91 
ROOT
HETATM    1  O   UNK N   1      23.613  21.170   2.533  0.00  0.00    -0.271 OA
HETATM    2  O   UNK N   1      25.916  19.963   3.979  0.00  0.00    -0.266 OA
HETATM    3  O   UNK N   1      20.109  19.756   2.699  0.00  0.00    -0.271 OA
HETATM    4  O   UNK N   1      23.830  17.629   5.164  0.00  0.00    -0.271 OA
HETATM    5  O   UNK N   1      21.312  17.707   4.487  0.00  0.00    -0.271 OA
HETATM    6  O   UNK N   1      22.013  16.122   5.814  0.00  0.00    -0.274 OA
HETATM    7  O   UNK N   1      26.317  17.723   5.708  0.00  0.00    -0.247 OA
HETATM    8  N   UNK N   1      24.476  19.109   4.246  0.00  0.00    -0.220 N 
HETATM    9  N   UNK N   1      24.614  20.239   3.458  0.00  0.00    -0.340 N 
HETATM   10  N   UNK N   1      23.739  18.041   4.842  0.00  0.00    -0.227 N 
ATOM     11  HN  UNK N   1      23.708  17.213   5.437  1.00  0.00     0.177 HD
HETATM   12  N   UNK N   1      22.511  20.325   2.876  0.00  0.00    -0.357 N 
HETATM   13  N   UNK N   1      24.705  17.836   5.229  0.00  0.00    -0.235 N 
HETATM   14  N   UNK N   1      24.014  18.929   4.263  0.00  0.00    -0.320 N 
HETATM   15  N   UNK N   1      21.411  19.481   3.220  0.00  0.00    -0.346 N 
HETATM   16  N   UNK N   1      20.709  21.066   1.893  0.00  0.00    -0.417 N 
HETATM   17  N   UNK N   1      22.413  18.550   4.144  0.00  0.00    -0.344 N 
HETATM   18  N   UNK N   1      23.114  16.966   5.471  0.00  0.00    -0.359 N 
HETATM   19  N   UNK N   1      23.516  14.726   7.200  0.00  0.00    -0.426 N 
HETATM   20  N   UNK N   1      26.116  18.844   4.843  0.00  0.00    -0.317 N 
HETATM   21  N   UNK N   1      20.813  13.504   7.424  0.00  0.00    -0.430 N 
HETATM   22  N   UNK N   1      27.418  18.568   5.365  0.00  0.00    -0.352 N 
HETATM   23  C   UNK N   1      23.789  19.380   3.879  0.00  0.00     0.133 A 
HETATM   24  C   UNK N   1      23.813  20.050   3.398  0.00  0.00     0.200 A 
HETATM   25  C   UNK N   1      23.076  18.981   3.994  0.00  0.00     0.048 A 
HETATM   26  C   UNK N   1      23.051  18.312   4.475  0.00  0.00     0.140 A 
HETATM   27  C   UNK N   1      23.313  20.514   2.936  0.00  0.00     0.242 A 
HETATM   28  C   UNK N   1      24.451  18.440   4.727  0.00  0.00     0.667 A 
HETATM   29  C   UNK N   1      22.011  20.790   2.415  0.00  0.00     0.157 A 
HETATM   30  C   UNK N   1      25.115  19.774   3.919  0.00  0.00     0.270 A 
HETATM   31  C   UNK N   1      21.210  20.601   2.355  0.00  0.00     0.185 A 
HETATM   32  C   UNK N   1      24.815  19.119   4.322  0.00  0.00     0.118 A 
HETATM   33  C   UNK N   1      22.913  18.086   4.606  0.00  0.00     0.194 A 
HETATM   34  C   UNK N   1      20.910  19.946   2.758  0.00  0.00     0.242 A 
HETATM   35  C   UNK N   1      21.111  18.826   3.623  0.00  0.00     0.172 A 
HETATM   36  C   UNK N   1      22.613  17.431   5.008  0.00  0.00     0.157 A 
HETATM   37  C   UNK N   1      23.714  18.275   4.666  0.00  0.00     0.246 A 
HETATM   38  C   UNK N   1      23.015  15.192   6.738  0.00  0.00     0.082 A 
HETATM   39  C   UNK N   1      21.612  18.361   4.084  0.00  0.00     0.240 A 
HETATM   40  C   UNK N   1      22.214  15.002   6.679  0.00  0.00     0.026 A 
HETATM   41  C   UNK N   1      23.315  15.846   6.335  0.00  0.00     0.127 A 
HETATM   42  C   UNK N   1      25.316  18.654   4.784  0.00  0.00     0.128 A 
HETATM   43  C   UNK N   1      20.310  18.637   3.563  0.00  0.00     0.042 A 
HETATM   44  C   UNK N   1      21.914  14.347   7.082  0.00  0.00     0.021 A 
HETATM   45  C   UNK N   1      22.814  16.311   5.874  0.00  0.00     0.219 A 
HETATM   46  C   UNK N   1      21.113  14.158   7.022  0.00  0.00     0.111 A 
HETATM   47  C   UNK N   1      26.617  18.378   5.306  0.00  0.00     0.317 A 
HETATM   48  H   UNK N   1      25.327  19.586   4.108  0.00  0.00     0.178 HD
HETATM   49  H   UNK N   1      24.972  21.020   2.977  0.00  0.00     0.163 HD
HETATM   50  H   UNK N   1      22.154  19.545   3.357  0.00  0.00     0.162 HD
HETATM   51  H   UNK N   1      25.650  17.785   5.499  0.00  0.00     0.174 HD
HETATM   52  H   UNK N   1      24.062  17.167   5.558  0.00  0.00     0.174 HD
HETATM   53  H   UNK N   1      23.416  19.485   3.711  0.00  0.00     0.169 HD
HETATM   54  H   UNK N   1      22.367  19.707   3.291  0.00  0.00     0.163 HD
HETATM   55  H   UNK N   1      19.720  20.831   1.820  0.00  0.00     0.150 HD
HETATM   56  H   UNK N   1      21.080  21.875   1.396  0.00  0.00     0.150 HD
HETATM   57  H   UNK N   1      22.771  19.332   3.663  0.00  0.00     0.163 HD
HETATM   58  H   UNK N   1      24.070  17.192   5.541  0.00  0.00     0.162 HD
HETATM   59  H   UNK N   1      24.506  14.960   7.274  0.00  0.00     0.150 HD
HETATM   60  H   UNK N   1      23.145  13.917   7.698  0.00  0.00     0.150 HD
HETATM   61  H   UNK N   1      26.474  19.624   4.363  0.00  0.00     0.170 HD
HETATM   62  H   UNK N   1      21.433  12.928   7.996  0.00  0.00     0.149 HD
HETATM   63  H   UNK N   1      19.824  13.269   7.351  0.00  0.00     0.149 HD
HETATM   64  H   UNK N   1      27.776  19.349   4.884  0.00  0.00     0.160 HD
HETATM   65  H   UNK N   1      28.016  18.013   5.916  0.00  0.00     0.160 HD
ENDROOT
TORSDOF 8
ENDMDL
MODEL 9
REMARK VINA RESULT:     -14.1      8.622     11.376
REMARK  8 active torsions:
REMARK  status: ('A' for Active; 'I' for Inactive)
REMARK    1  A    between atoms: C_48  and  C_54 
REMARK    2  A    between atoms: C_49  and  C_55 
REMARK    3  A    between atoms: C_62  and  C_67 
REMARK    4  A    between atoms: C_63  and  C_69 
REMARK    5  A    between atoms: C_70  and  C_78 
REMARK    6  A    between atoms: C_71  and  C_79 
REMARK    7  A    between atoms: C_81  and  C_89 
REMARK    8  A    between atoms: C_83  and  C_91 
ROOT
HETATM    1  O   UNK N   1      29.817  17.627   4.788  0.00  0.00    -0.271 OA
HETATM    2  O   UNK N   1      28.980  17.564   7.642  0.00  0.00    -0.266 OA
HETATM    3  O   UNK N   1      33.295  16.683   3.642  0.00  0.00    -0.271 OA
HETATM    4  O   UNK N   1      32.063  16.526   8.428  0.00  0.00    -0.271 OA
HETATM    5  O   UNK N   1      33.821  16.197   6.528  0.00  0.00    -0.271 OA
HETATM    6  O   UNK N   1      34.392  15.789   8.595  0.00  0.00    -0.274 OA
HETATM    7  O   UNK N   1      30.211  16.905  10.136  0.00  0.00    -0.247 OA
HETATM    8  N   UNK N   1      30.594  17.089   7.440  0.00  0.00    -0.220 N 
HETATM    9  N   UNK N   1      29.729  17.470   6.428  0.00  0.00    -0.340 N 
HETATM   10  N   UNK N   1      31.850  16.644   7.957  0.00  0.00    -0.227 N 
ATOM     11  HN  UNK N   1      32.433  16.376   8.749  1.00  0.00     0.177 HD
HETATM   12  N   UNK N   1      31.182  17.202   4.821  0.00  0.00    -0.357 N 
HETATM   13  N   UNK N   1      31.294  16.715   8.858  0.00  0.00    -0.235 N 
HETATM   14  N   UNK N   1      31.049  16.967   7.282  0.00  0.00    -0.320 N 
HETATM   15  N   UNK N   1      32.546  16.778   4.855  0.00  0.00    -0.346 N 
HETATM   16  N   UNK N   1      31.976  17.186   2.788  0.00  0.00    -0.417 N 
HETATM   17  N   UNK N   1      32.457  16.621   6.496  0.00  0.00    -0.344 N 
HETATM   18  N   UNK N   1      33.028  16.213   8.562  0.00  0.00    -0.359 N 
HETATM   19  N   UNK N   1      34.258  15.554  11.056  0.00  0.00    -0.426 N 
HETATM   20  N   UNK N   1      29.595  17.235   8.888  0.00  0.00    -0.317 N 
HETATM   21  N   UNK N   1      37.031  14.784  10.303  0.00  0.00    -0.430 N 
HETATM   22  N   UNK N   1      28.846  17.329  10.101  0.00  0.00    -0.352 N 
HETATM   23  C   UNK N   1      30.905  17.079   6.676  0.00  0.00     0.133 A 
HETATM   24  C   UNK N   1      30.433  17.297   6.034  0.00  0.00     0.200 A 
HETATM   25  C   UNK N   1      31.688  16.852   6.552  0.00  0.00     0.048 A 
HETATM   26  C   UNK N   1      32.160  16.634   7.192  0.00  0.00     0.140 A 
HETATM   27  C   UNK N   1      30.478  17.375   5.215  0.00  0.00     0.242 A 
HETATM   28  C   UNK N   1      31.066  16.872   8.080  0.00  0.00     0.667 A 
HETATM   29  C   UNK N   1      31.227  17.280   4.002  0.00  0.00     0.157 A 
HETATM   30  C   UNK N   1      29.684  17.391   7.248  0.00  0.00     0.270 A 
HETATM   31  C   UNK N   1      31.931  17.108   3.608  0.00  0.00     0.185 A 
HETATM   32  C   UNK N   1      30.344  17.140   7.675  0.00  0.00     0.118 A 
HETATM   33  C   UNK N   1      32.413  16.543   7.315  0.00  0.00     0.194 A 
HETATM   34  C   UNK N   1      32.591  16.856   4.035  0.00  0.00     0.242 A 
HETATM   35  C   UNK N   1      33.206  16.527   5.282  0.00  0.00     0.172 A 
HETATM   36  C   UNK N   1      33.072  16.292   7.742  0.00  0.00     0.157 A 
HETATM   37  C   UNK N   1      31.708  16.716   7.709  0.00  0.00     0.246 A 
HETATM   38  C   UNK N   1      34.303  15.633  10.236  0.00  0.00     0.082 A 
HETATM   39  C   UNK N   1      33.161  16.448   6.102  0.00  0.00     0.240 A 
HETATM   40  C   UNK N   1      35.007  15.459   9.843  0.00  0.00     0.026 A 
HETATM   41  C   UNK N   1      33.643  15.884   9.809  0.00  0.00     0.127 A 
HETATM   42  C   UNK N   1      30.300  17.062   8.495  0.00  0.00     0.128 A 
HETATM   43  C   UNK N   1      33.910  16.354   4.888  0.00  0.00     0.042 A 
HETATM   44  C   UNK N   1      35.667  15.208  10.270  0.00  0.00     0.021 A 
HETATM   45  C   UNK N   1      33.688  15.962   8.989  0.00  0.00     0.219 A 
HETATM   46  C   UNK N   1      36.371  15.035   9.876  0.00  0.00     0.111 A 
HETATM   47  C   UNK N   1      29.551  17.156   9.709  0.00  0.00     0.317 A 
HETATM   48  H   UNK N   1      29.659  17.361   7.587  0.00  0.00     0.178 HD
HETATM   49  H   UNK N   1      28.941  17.770   5.919  0.00  0.00     0.163 HD
HETATM   50  H   UNK N   1      31.969  16.902   5.330  0.00  0.00     0.162 HD
HETATM   51  H   UNK N   1      30.649  16.831   9.592  0.00  0.00     0.174 HD
HETATM   52  H   UNK N   1      32.210  16.411   9.050  0.00  0.00     0.174 HD
HETATM   53  H   UNK N   1      31.101  17.061   6.303  0.00  0.00     0.169 HD
HETATM   54  H   UNK N   1      31.705  16.984   5.325  0.00  0.00     0.163 HD
HETATM   55  H   UNK N   1      32.846  16.972   2.302  0.00  0.00     0.150 HD
HETATM   56  H   UNK N   1      31.160  17.496   2.261  0.00  0.00     0.150 HD
HETATM   57  H   UNK N   1      31.670  16.921   5.986  0.00  0.00     0.163 HD
HETATM   58  H   UNK N   1      32.187  16.420   9.031  0.00  0.00     0.162 HD
HETATM   59  H   UNK N   1      33.388  15.768  11.542  0.00  0.00     0.150 HD
HETATM   60  H   UNK N   1      35.074  15.243  11.584  0.00  0.00     0.150 HD
HETATM   61  H   UNK N   1      28.808  17.534   8.379  0.00  0.00     0.170 HD
HETATM   62  H   UNK N   1      36.976  14.687  11.317  0.00  0.00     0.149 HD
HETATM   63  H   UNK N   1      37.902  14.570   9.817  0.00  0.00     0.149 HD
HETATM   64  H   UNK N   1      28.059  17.629   9.592  0.00  0.00     0.160 HD
HETATM   65  H   UNK N   1      28.793  17.236  11.080  0.00  0.00     0.160 HD
ENDROOT
TORSDOF 8
ENDMDL
