MODEL 1
REMARK VINA RESULT:      -5.6      0.000      0.000
REMARK  6 active torsions:
REMARK  status: ('A' for Active; 'I' for Inactive)
REMARK    1  A    between atoms: O_1  and  C_5 
REMARK    2  A    between atoms: O_1  and  C_9 
REMARK    3  A    between atoms: N_2  and  C_10 
REMARK    4  A    between atoms: C_5  and  C_6 
REMARK    5  A    between atoms: C_5  and  C_7 
REMARK    6  A    between atoms: C_9  and  C_10 
ROOT
HETATM    1  C   UNK N   1      35.969  12.409  14.816  0.00  0.00     0.126 C 
HETATM    2  C   UNK N   1      37.504  12.345  14.658  0.00  0.00     0.058 C 
ENDROOT
BRANCH   1   3
HETATM    3  O   UNK N   1      35.349  13.597  14.332  0.00  0.00    -0.368 OA
BRANCH   3   4
HETATM    4  C   UNK N   1      36.064  14.263  13.317  0.00  0.00     0.200 C 
BRANCH   4   5
HETATM    5  C   UNK N   1      35.179  14.463  12.087  0.00  0.00     0.297 C 
BRANCH   5   6
HETATM    6  N   UNK N   1      35.792  13.903  10.887  0.00  0.00     0.082 N 
HETATM    7  C   UNK N   1      37.131  13.439  11.212  0.00  0.00     0.309 C 
HETATM    8  C   UNK N   1      35.013  12.739  10.511  0.00  0.00     0.309 C 
ENDBRANCH   5   6
ENDBRANCH   4   5
ENDBRANCH   3   4
ENDBRANCH   1   3
BRANCH   1   9
HETATM    9  C   UNK N   1      35.684  12.370  16.318  0.00  0.00    -0.018 A 
HETATM   10  C   UNK N   1      35.341  13.503  17.073  0.00  0.00     0.010 A 
HETATM   11  C   UNK N   1      35.119  13.405  18.451  0.00  0.00     0.001 A 
HETATM   12  C   UNK N   1      35.237  12.170  19.093  0.00  0.00     0.000 A 
HETATM   13  C   UNK N   1      35.578  11.033  18.358  0.00  0.00     0.001 A 
HETATM   14  C   UNK N   1      35.802  11.133  16.984  0.00  0.00     0.010 A 
ENDBRANCH   1   9
BRANCH   1  15
HETATM   15  C   UNK N   1      35.436  11.293  13.918  0.00  0.00     0.048 A 
HETATM   16  N   UNK N   1      36.345  10.499  13.276  0.00  0.00    -0.366 N 
HETATM   17  C   UNK N   1      35.973   9.493  12.441  0.00  0.00     0.088 A 
ATOM     18  HN  UNK N   1      37.340  10.668  13.430  1.00  0.00     0.165 HD
HETATM   19  C   UNK N   1      34.622   9.244  12.208  0.00  0.00     0.017 A 
HETATM   20  C   UNK N   1      33.666  10.035  12.843  0.00  0.00     0.003 A 
HETATM   21  C   UNK N   1      34.070  11.060  13.700  0.00  0.00     0.028 A 
ENDBRANCH   1  15
TORSDOF 6
ENDMDL
MODEL 2
REMARK VINA RESULT:      -5.5      6.302     10.268
REMARK  6 active torsions:
REMARK  status: ('A' for Active; 'I' for Inactive)
REMARK    1  A    between atoms: O_1  and  C_5 
REMARK    2  A    between atoms: O_1  and  C_9 
REMARK    3  A    between atoms: N_2  and  C_10 
REMARK    4  A    between atoms: C_5  and  C_6 
REMARK    5  A    between atoms: C_5  and  C_7 
REMARK    6  A    between atoms: C_9  and  C_10 
ROOT
HETATM    1  C   UNK N   1      32.316  17.008   7.596  0.00  0.00     0.126 C 
HETATM    2  C   UNK N   1      33.220  18.227   7.883  0.00  0.00     0.058 C 
ENDROOT
BRANCH   1   3
HETATM    3  O   UNK N   1      32.605  15.836   8.353  0.00  0.00    -0.368 OA
BRANCH   3   4
HETATM    4  C   UNK N   1      33.767  15.917   9.144  0.00  0.00     0.200 C 
BRANCH   4   5
HETATM    5  C   UNK N   1      33.906  14.670  10.016  0.00  0.00     0.297 C 
BRANCH   5   6
HETATM    6  N   UNK N   1      34.410  14.996  11.346  0.00  0.00     0.082 N 
HETATM    7  C   UNK N   1      35.096  13.835  11.889  0.00  0.00     0.309 C 
HETATM    8  C   UNK N   1      35.402  16.043  11.183  0.00  0.00     0.309 C 
ENDBRANCH   5   6
ENDBRANCH   4   5
ENDBRANCH   3   4
ENDBRANCH   1   3
BRANCH   1   9
HETATM    9  C   UNK N   1      32.547  16.630   6.133  0.00  0.00    -0.018 A 
HETATM   10  C   UNK N   1      32.729  17.572   5.107  0.00  0.00     0.010 A 
HETATM   11  C   UNK N   1      32.909  17.161   3.782  0.00  0.00     0.001 A 
HETATM   12  C   UNK N   1      32.909  15.801   3.464  0.00  0.00     0.000 A 
HETATM   13  C   UNK N   1      32.730  14.852   4.471  0.00  0.00     0.001 A 
HETATM   14  C   UNK N   1      32.547  15.263   5.792  0.00  0.00     0.010 A 
ENDBRANCH   1   9
BRANCH   1  15
HETATM   15  C   UNK N   1      30.923  17.438   8.054  0.00  0.00     0.048 A 
HETATM   16  N   UNK N   1      30.817  18.100   9.244  0.00  0.00    -0.366 N 
HETATM   17  C   UNK N   1      29.621  18.508   9.749  0.00  0.00     0.088 A 
ATOM     18  HN  UNK N   1      31.666  18.297   9.776  1.00  0.00     0.165 HD
HETATM   19  C   UNK N   1      28.445  18.248   9.049  0.00  0.00     0.017 A 
HETATM   20  C   UNK N   1      28.514  17.572   7.832  0.00  0.00     0.003 A 
HETATM   21  C   UNK N   1      29.752  17.167   7.330  0.00  0.00     0.028 A 
ENDBRANCH   1  15
TORSDOF 6
ENDMDL
MODEL 3
REMARK VINA RESULT:      -5.4      6.660      9.998
REMARK  6 active torsions:
REMARK  status: ('A' for Active; 'I' for Inactive)
REMARK    1  A    between atoms: O_1  and  C_5 
REMARK    2  A    between atoms: O_1  and  C_9 
REMARK    3  A    between atoms: N_2  and  C_10 
REMARK    4  A    between atoms: C_5  and  C_6 
REMARK    5  A    between atoms: C_5  and  C_7 
REMARK    6  A    between atoms: C_9  and  C_10 
ROOT
HETATM    1  C   UNK N   1      32.069  16.628   7.191  0.00  0.00     0.126 C 
HETATM    2  C   UNK N   1      32.125  15.195   7.762  0.00  0.00     0.058 C 
ENDROOT
BRANCH   1   3
HETATM    3  O   UNK N   1      33.119  17.498   7.607  0.00  0.00    -0.368 OA
BRANCH   3   4
HETATM    4  C   UNK N   1      34.337  16.855   7.898  0.00  0.00     0.200 C 
BRANCH   4   5
HETATM    5  C   UNK N   1      34.725  17.085   9.358  0.00  0.00     0.297 C 
BRANCH   5   6
HETATM    6  N   UNK N   1      34.910  15.825  10.071  0.00  0.00     0.082 N 
HETATM    7  C   UNK N   1      35.594  14.885   9.198  0.00  0.00     0.309 C 
HETATM    8  C   UNK N   1      35.793  16.092  11.191  0.00  0.00     0.309 C 
ENDBRANCH   5   6
ENDBRANCH   4   5
ENDBRANCH   3   4
ENDBRANCH   1   3
BRANCH   1   9
HETATM    9  C   UNK N   1      30.775  17.254   7.710  0.00  0.00    -0.018 A 
HETATM   10  C   UNK N   1      29.525  17.077   7.093  0.00  0.00     0.010 A 
HETATM   11  C   UNK N   1      28.381  17.700   7.604  0.00  0.00     0.001 A 
HETATM   12  C   UNK N   1      28.471  18.508   8.739  0.00  0.00     0.000 A 
HETATM   13  C   UNK N   1      29.704  18.695   9.365  0.00  0.00     0.001 A 
HETATM   14  C   UNK N   1      30.846  18.075   8.853  0.00  0.00     0.010 A 
ENDBRANCH   1   9
BRANCH   1  15
HETATM   15  C   UNK N   1      32.275  16.457   5.686  0.00  0.00     0.048 A 
HETATM   16  N   UNK N   1      32.387  15.187   5.196  0.00  0.00    -0.366 N 
HETATM   17  C   UNK N   1      32.590  14.929   3.876  0.00  0.00     0.088 A 
ATOM     18  HN  UNK N   1      32.315  14.401   5.844  1.00  0.00     0.165 HD
HETATM   19  C   UNK N   1      32.698  15.982   2.970  0.00  0.00     0.017 A 
HETATM   20  C   UNK N   1      32.591  17.292   3.433  0.00  0.00     0.003 A 
HETATM   21  C   UNK N   1      32.378  17.533   4.792  0.00  0.00     0.028 A 
ENDBRANCH   1  15
TORSDOF 6
ENDMDL
MODEL 4
REMARK VINA RESULT:      -5.4      9.968     12.808
REMARK  6 active torsions:
REMARK  status: ('A' for Active; 'I' for Inactive)
REMARK    1  A    between atoms: O_1  and  C_5 
REMARK    2  A    between atoms: O_1  and  C_9 
REMARK    3  A    between atoms: N_2  and  C_10 
REMARK    4  A    between atoms: C_5  and  C_6 
REMARK    5  A    between atoms: C_5  and  C_7 
REMARK    6  A    between atoms: C_9  and  C_10 
ROOT
HETATM    1  C   UNK N   1      28.601  17.647   7.250  0.00  0.00     0.126 C 
HETATM    2  C   UNK N   1      28.094  17.630   8.708  0.00  0.00     0.058 C 
ENDROOT
BRANCH   1   3
HETATM    3  O   UNK N   1      28.149  16.572   6.429  0.00  0.00    -0.368 OA
BRANCH   3   4
HETATM    4  C   UNK N   1      26.900  16.036   6.795  0.00  0.00     0.200 C 
BRANCH   4   5
HETATM    5  C   UNK N   1      25.978  15.957   5.579  0.00  0.00     0.297 C 
BRANCH   5   6
HETATM    6  N   UNK N   1      26.734  15.945   4.330  0.00  0.00     0.082 N 
HETATM    7  C   UNK N   1      26.739  14.593   3.794  0.00  0.00     0.309 C 
HETATM    8  C   UNK N   1      26.014  16.778   3.386  0.00  0.00     0.309 C 
ENDBRANCH   5   6
ENDBRANCH   4   5
ENDBRANCH   3   4
ENDBRANCH   1   3
BRANCH   1   9
HETATM    9  C   UNK N   1      30.123  17.513   7.316  0.00  0.00    -0.018 A 
HETATM   10  C   UNK N   1      30.888  17.892   8.432  0.00  0.00     0.010 A 
HETATM   11  C   UNK N   1      32.281  17.769   8.419  0.00  0.00     0.001 A 
HETATM   12  C   UNK N   1      32.929  17.264   7.290  0.00  0.00     0.000 A 
HETATM   13  C   UNK N   1      32.185  16.882   6.173  0.00  0.00     0.001 A 
HETATM   14  C   UNK N   1      30.795  17.009   6.185  0.00  0.00     0.010 A 
ENDBRANCH   1   9
BRANCH   1  15
HETATM   15  C   UNK N   1      27.980  18.900   6.634  0.00  0.00     0.048 A 
HETATM   16  N   UNK N   1      27.271  19.731   7.454  0.00  0.00    -0.366 N 
HETATM   17  C   UNK N   1      26.663  20.860   7.000  0.00  0.00     0.088 A 
ATOM     18  HN  UNK N   1      27.193  19.497   8.445  1.00  0.00     0.165 HD
HETATM   19  C   UNK N   1      26.747  21.202   5.652  0.00  0.00     0.017 A 
HETATM   20  C   UNK N   1      27.460  20.376   4.784  0.00  0.00     0.003 A 
HETATM   21  C   UNK N   1      28.079  19.224   5.273  0.00  0.00     0.028 A 
ENDBRANCH   1  15
TORSDOF 6
ENDMDL
MODEL 5
REMARK VINA RESULT:      -5.3     16.027     17.640
REMARK  6 active torsions:
REMARK  status: ('A' for Active; 'I' for Inactive)
REMARK    1  A    between atoms: O_1  and  C_5 
REMARK    2  A    between atoms: O_1  and  C_9 
REMARK    3  A    between atoms: N_2  and  C_10 
REMARK    4  A    between atoms: C_5  and  C_6 
REMARK    5  A    between atoms: C_5  and  C_7 
REMARK    6  A    between atoms: C_9  and  C_10 
ROOT
HETATM    1  C   UNK N   1      19.893  16.512   7.774  0.00  0.00     0.126 C 
HETATM    2  C   UNK N   1      20.820  17.436   6.954  0.00  0.00     0.058 C 
ENDROOT
BRANCH   1   3
HETATM    3  O   UNK N   1      18.854  15.871   7.038  0.00  0.00    -0.368 OA
BRANCH   3   4
HETATM    4  C   UNK N   1      18.898  16.087   5.647  0.00  0.00     0.200 C 
BRANCH   4   5
HETATM    5  C   UNK N   1      19.016  14.756   4.905  0.00  0.00     0.297 C 
BRANCH   5   6
HETATM    6  N   UNK N   1      19.821  14.885   3.695  0.00  0.00     0.082 N 
HETATM    7  C   UNK N   1      20.018  16.295   3.406  0.00  0.00     0.309 C 
HETATM    8  C   UNK N   1      21.126  14.320   3.987  0.00  0.00     0.309 C 
ENDBRANCH   5   6
ENDBRANCH   4   5
ENDBRANCH   3   4
ENDBRANCH   1   3
BRANCH   1   9
HETATM    9  C   UNK N   1      19.192  17.400   8.802  0.00  0.00    -0.018 A 
HETATM   10  C   UNK N   1      19.788  18.530   9.387  0.00  0.00     0.010 A 
HETATM   11  C   UNK N   1      19.102  19.287  10.343  0.00  0.00     0.001 A 
HETATM   12  C   UNK N   1      17.810  18.923  10.728  0.00  0.00     0.000 A 
HETATM   13  C   UNK N   1      17.203  17.804  10.157  0.00  0.00     0.001 A 
HETATM   14  C   UNK N   1      17.889  17.047   9.206  0.00  0.00     0.010 A 
ENDBRANCH   1   9
BRANCH   1  15
HETATM   15  C   UNK N   1      20.797  15.375   8.250  0.00  0.00     0.048 A 
HETATM   16  N   UNK N   1      21.875  15.048   7.478  0.00  0.00    -0.366 N 
HETATM   17  C   UNK N   1      22.728  14.040   7.803  0.00  0.00     0.088 A 
ATOM     18  HN  UNK N   1      22.048  15.581   6.624  1.00  0.00     0.165 HD
HETATM   19  C   UNK N   1      22.513  13.293   8.960  0.00  0.00     0.017 A 
HETATM   20  C   UNK N   1      21.422  13.595   9.771  0.00  0.00     0.003 A 
HETATM   21  C   UNK N   1      20.561  14.637   9.420  0.00  0.00     0.028 A 
ENDBRANCH   1  15
TORSDOF 6
ENDMDL
MODEL 6
REMARK VINA RESULT:      -5.3     10.257     13.410
REMARK  6 active torsions:
REMARK  status: ('A' for Active; 'I' for Inactive)
REMARK    1  A    between atoms: O_1  and  C_5 
REMARK    2  A    between atoms: O_1  and  C_9 
REMARK    3  A    between atoms: N_2  and  C_10 
REMARK    4  A    between atoms: C_5  and  C_6 
REMARK    5  A    between atoms: C_5  and  C_7 
REMARK    6  A    between atoms: C_9  and  C_10 
ROOT
HETATM    1  C   UNK N   1      28.971  17.391   5.242  0.00  0.00     0.126 C 
HETATM    2  C   UNK N   1      28.685  16.944   3.792  0.00  0.00     0.058 C 
ENDROOT
BRANCH   1   3
HETATM    3  O   UNK N   1      28.518  16.504   6.261  0.00  0.00    -0.368 OA
BRANCH   3   4
HETATM    4  C   UNK N   1      27.640  15.497   5.818  0.00  0.00     0.200 C 
BRANCH   4   5
HETATM    5  C   UNK N   1      26.334  15.542   6.610  0.00  0.00     0.297 C 
BRANCH   5   6
HETATM    6  N   UNK N   1      25.170  15.497   5.732  0.00  0.00     0.082 N 
HETATM    7  C   UNK N   1      23.977  15.296   6.538  0.00  0.00     0.309 C 
HETATM    8  C   UNK N   1      25.052  16.803   5.109  0.00  0.00     0.309 C 
ENDBRANCH   5   6
ENDBRANCH   4   5
ENDBRANCH   3   4
ENDBRANCH   1   3
BRANCH   1   9
HETATM    9  C   UNK N   1      28.207  18.698   5.453  0.00  0.00    -0.018 A 
HETATM   10  C   UNK N   1      27.970  19.264   6.716  0.00  0.00     0.010 A 
HETATM   11  C   UNK N   1      27.239  20.450   6.844  0.00  0.00     0.001 A 
HETATM   12  C   UNK N   1      26.735  21.087   5.708  0.00  0.00     0.000 A 
HETATM   13  C   UNK N   1      26.961  20.539   4.444  0.00  0.00     0.001 A 
HETATM   14  C   UNK N   1      27.688  19.354   4.319  0.00  0.00     0.010 A 
ENDBRANCH   1   9
BRANCH   1  15
HETATM   15  C   UNK N   1      30.495  17.380   5.361  0.00  0.00     0.048 A 
HETATM   16  N   UNK N   1      31.039  17.200   6.600  0.00  0.00    -0.366 N 
HETATM   17  C   UNK N   1      32.382  17.193   6.815  0.00  0.00     0.088 A 
ATOM     18  HN  UNK N   1      30.415  17.064   7.397  1.00  0.00     0.165 HD
HETATM   19  C   UNK N   1      33.258  17.381   5.748  0.00  0.00     0.017 A 
HETATM   20  C   UNK N   1      32.740  17.571   4.468  0.00  0.00     0.003 A 
HETATM   21  C   UNK N   1      31.358  17.570   4.270  0.00  0.00     0.028 A 
ENDBRANCH   1  15
TORSDOF 6
ENDMDL
MODEL 7
REMARK VINA RESULT:      -5.2      1.606      3.579
REMARK  6 active torsions:
REMARK  status: ('A' for Active; 'I' for Inactive)
REMARK    1  A    between atoms: O_1  and  C_5 
REMARK    2  A    between atoms: O_1  and  C_9 
REMARK    3  A    between atoms: N_2  and  C_10 
REMARK    4  A    between atoms: C_5  and  C_6 
REMARK    5  A    between atoms: C_5  and  C_7 
REMARK    6  A    between atoms: C_9  and  C_10 
ROOT
HETATM    1  C   UNK N   1      35.083  11.124  14.958  0.00  0.00     0.126 C 
HETATM    2  C   UNK N   1      33.603  10.780  14.683  0.00  0.00     0.058 C 
ENDROOT
BRANCH   1   3
HETATM    3  O   UNK N   1      35.972  10.011  15.026  0.00  0.00    -0.368 OA
BRANCH   3   4
HETATM    4  C   UNK N   1      35.555   8.879  14.301  0.00  0.00     0.200 C 
BRANCH   4   5
HETATM    5  C   UNK N   1      36.656   8.424  13.344  0.00  0.00     0.297 C 
BRANCH   5   6
HETATM    6  N   UNK N   1      36.164   8.310  11.974  0.00  0.00     0.082 N 
HETATM    7  C   UNK N   1      34.728   8.535  11.967  0.00  0.00     0.309 C 
HETATM    8  C   UNK N   1      36.771   9.384  11.211  0.00  0.00     0.309 C 
ENDBRANCH   5   6
ENDBRANCH   4   5
ENDBRANCH   3   4
ENDBRANCH   1   3
BRANCH   1   9
HETATM    9  C   UNK N   1      35.128  11.782  16.337  0.00  0.00    -0.018 A 
HETATM   10  C   UNK N   1      35.014  13.168  16.540  0.00  0.00     0.010 A 
HETATM   11  C   UNK N   1      35.090  13.711  17.827  0.00  0.00     0.001 A 
HETATM   12  C   UNK N   1      35.281  12.875  18.930  0.00  0.00     0.000 A 
HETATM   13  C   UNK N   1      35.396  11.496  18.746  0.00  0.00     0.001 A 
HETATM   14  C   UNK N   1      35.324  10.956  17.461  0.00  0.00     0.010 A 
ENDBRANCH   1   9
BRANCH   1  15
HETATM   15  C   UNK N   1      35.536  11.913  13.729  0.00  0.00     0.048 A 
HETATM   16  N   UNK N   1      34.590  12.258  12.806  0.00  0.00    -0.366 N 
HETATM   17  C   UNK N   1      34.893  12.942  11.671  0.00  0.00     0.088 A 
ATOM     18  HN  UNK N   1      33.619  11.992  12.974  1.00  0.00     0.165 HD
HETATM   19  C   UNK N   1      36.211  13.313  11.413  0.00  0.00     0.017 A 
HETATM   20  C   UNK N   1      37.204  12.976  12.331  0.00  0.00     0.003 A 
HETATM   21  C   UNK N   1      36.870  12.277  13.492  0.00  0.00     0.028 A 
ENDBRANCH   1  15
TORSDOF 6
ENDMDL
MODEL 8
REMARK VINA RESULT:      -5.1     10.572     13.238
REMARK  6 active torsions:
REMARK  status: ('A' for Active; 'I' for Inactive)
REMARK    1  A    between atoms: O_1  and  C_5 
REMARK    2  A    between atoms: O_1  and  C_9 
REMARK    3  A    between atoms: N_2  and  C_10 
REMARK    4  A    between atoms: C_5  and  C_6 
REMARK    5  A    between atoms: C_5  and  C_7 
REMARK    6  A    between atoms: C_9  and  C_10 
ROOT
HETATM    1  C   UNK N   1      29.228  17.345   4.977  0.00  0.00     0.126 C 
HETATM    2  C   UNK N   1      28.678  16.273   5.943  0.00  0.00     0.058 C 
ENDROOT
BRANCH   1   3
HETATM    3  O   UNK N   1      29.021  17.089   3.590  0.00  0.00    -0.368 OA
BRANCH   3   4
HETATM    4  C   UNK N   1      28.257  15.940   3.311  0.00  0.00     0.200 C 
BRANCH   4   5
HETATM    5  C   UNK N   1      29.004  15.026   2.340  0.00  0.00     0.297 C 
BRANCH   5   6
HETATM    6  N   UNK N   1      29.542  13.849   3.016  0.00  0.00     0.082 N 
HETATM    7  C   UNK N   1      29.417  12.700   2.134  0.00  0.00     0.309 C 
HETATM    8  C   UNK N   1      30.959  14.083   3.218  0.00  0.00     0.309 C 
ENDBRANCH   5   6
ENDBRANCH   4   5
ENDBRANCH   3   4
ENDBRANCH   1   3
BRANCH   1   9
HETATM    9  C   UNK N   1      30.744  17.374   5.177  0.00  0.00    -0.018 A 
HETATM   10  C   UNK N   1      31.660  17.600   4.137  0.00  0.00     0.010 A 
HETATM   11  C   UNK N   1      33.037  17.587   4.381  0.00  0.00     0.001 A 
HETATM   12  C   UNK N   1      33.518  17.348   5.671  0.00  0.00     0.000 A 
HETATM   13  C   UNK N   1      32.621  17.122   6.716  0.00  0.00     0.001 A 
HETATM   14  C   UNK N   1      31.247  17.131   6.470  0.00  0.00     0.010 A 
ENDBRANCH   1   9
BRANCH   1  15
HETATM   15  C   UNK N   1      28.404  18.597   5.272  0.00  0.00     0.048 A 
HETATM   16  N   UNK N   1      27.977  19.347   4.213  0.00  0.00    -0.366 N 
HETATM   17  C   UNK N   1      27.255  20.489   4.370  0.00  0.00     0.088 A 
ATOM     18  HN  UNK N   1      28.209  19.040   3.267  1.00  0.00     0.165 HD
HETATM   19  C   UNK N   1      26.928  20.935   5.649  0.00  0.00     0.017 A 
HETATM   20  C   UNK N   1      27.348  20.198   6.754  0.00  0.00     0.003 A 
HETATM   21  C   UNK N   1      28.085  19.026   6.570  0.00  0.00     0.028 A 
ENDBRANCH   1  15
TORSDOF 6
ENDMDL
MODEL 9
REMARK VINA RESULT:      -5.1     20.958     24.389
REMARK  6 active torsions:
REMARK  status: ('A' for Active; 'I' for Inactive)
REMARK    1  A    between atoms: O_1  and  C_5 
REMARK    2  A    between atoms: O_1  and  C_9 
REMARK    3  A    between atoms: N_2  and  C_10 
REMARK    4  A    between atoms: C_5  and  C_6 
REMARK    5  A    between atoms: C_5  and  C_7 
REMARK    6  A    between atoms: C_9  and  C_10 
ROOT
HETATM    1  C   UNK N   1      27.742  24.737  -4.510  0.00  0.00     0.126 C 
HETATM    2  C   UNK N   1      27.318  24.071  -3.183  0.00  0.00     0.058 C 
ENDROOT
BRANCH   1   3
HETATM    3  O   UNK N   1      29.147  24.870  -4.711  0.00  0.00    -0.368 OA
BRANCH   3   4
HETATM    4  C   UNK N   1      29.933  24.593  -3.576  0.00  0.00     0.200 C 
BRANCH   4   5
HETATM    5  C   UNK N   1      31.029  23.585  -3.921  0.00  0.00     0.297 C 
BRANCH   5   6
HETATM    6  N   UNK N   1      30.825  22.312  -3.236  0.00  0.00     0.082 N 
HETATM    7  C   UNK N   1      30.226  21.367  -4.164  0.00  0.00     0.309 C 
HETATM    8  C   UNK N   1      32.136  21.799  -2.887  0.00  0.00     0.309 C 
ENDBRANCH   5   6
ENDBRANCH   4   5
ENDBRANCH   3   4
ENDBRANCH   1   3
BRANCH   1   9
HETATM    9  C   UNK N   1      27.186  26.161  -4.479  0.00  0.00    -0.018 A 
HETATM   10  C   UNK N   1      26.347  26.645  -3.462  0.00  0.00     0.010 A 
HETATM   11  C   UNK N   1      25.849  27.952  -3.506  0.00  0.00     0.001 A 
HETATM   12  C   UNK N   1      26.185  28.793  -4.569  0.00  0.00     0.000 A 
HETATM   13  C   UNK N   1      27.019  28.329  -5.588  0.00  0.00     0.001 A 
HETATM   14  C   UNK N   1      27.512  27.024  -5.544  0.00  0.00     0.010 A 
ENDBRANCH   1   9
BRANCH   1  15
HETATM   15  C   UNK N   1      27.279  23.769  -5.598  0.00  0.00     0.048 A 
HETATM   16  N   UNK N   1      28.233  23.178  -6.377  0.00  0.00    -0.366 N 
HETATM   17  C   UNK N   1      27.924  22.317  -7.383  0.00  0.00     0.088 A 
ATOM     18  HN  UNK N   1      29.216  23.389  -6.197  1.00  0.00     0.165 HD
HETATM   19  C   UNK N   1      26.591  22.015  -7.655  0.00  0.00     0.017 A 
HETATM   20  C   UNK N   1      25.590  22.601  -6.884  0.00  0.00     0.003 A 
HETATM   21  C   UNK N   1      25.930  23.478  -5.852  0.00  0.00     0.028 A 
ENDBRANCH   1  15
TORSDOF 6
ENDMDL
