REMARK  6 active torsions:
REMARK  status: ('A' for Active; 'I' for Inactive)
REMARK    1  A    between atoms: O_1  and  C_5 
REMARK    2  A    between atoms: O_1  and  C_9 
REMARK    3  A    between atoms: N_2  and  C_10 
REMARK    4  A    between atoms: C_5  and  C_6 
REMARK    5  A    between atoms: C_5  and  C_7 
REMARK    6  A    between atoms: C_9  and  C_10 
ROOT
HETATM    1  C   UNK N   1       2.954  -0.031   0.553  0.00  0.00     0.126 C 
HETATM    2  C   UNK N   1       2.630  -0.080   2.062  0.00  0.00     0.058 C 
ENDROOT
BRANCH   1   3
HETATM    3  O   UNK N   1       4.333  -0.158   0.215  0.00  0.00    -0.368 OA
BRANCH   3   4
HETATM    4  C   UNK N   1       5.218  -0.066   1.306  0.00  0.00     0.200 C 
BRANCH   4   5
HETATM    5  C   UNK N   1       5.726  -1.453   1.698  0.00  0.00     0.297 C 
BRANCH   5   6
HETATM    6  N   UNK N   1       5.818  -2.339   0.542  0.00  0.00     0.082 N 
HETATM    7  C   UNK N   1       7.017  -2.010  -0.211  0.00  0.00     0.309 C 
HETATM    8  C   UNK N   1       5.986  -3.688   1.049  0.00  0.00     0.309 C 
ENDBRANCH   5   6
ENDBRANCH   4   5
ENDBRANCH   3   4
ENDBRANCH   1   3
BRANCH   1   9
HETATM    9  C   UNK N   1       2.527   1.352   0.061  0.00  0.00    -0.018 A 
HETATM   10  C   UNK N   1       1.561   1.557  -0.938  0.00  0.00     0.010 A 
HETATM   11  C   UNK N   1       1.234   2.849  -1.363  0.00  0.00     0.001 A 
HETATM   12  C   UNK N   1       1.869   3.955  -0.794  0.00  0.00     0.000 A 
HETATM   13  C   UNK N   1       2.831   3.770   0.200  0.00  0.00     0.001 A 
HETATM   14  C   UNK N   1       3.159   2.480   0.621  0.00  0.00     0.010 A 
ENDBRANCH   1   9
BRANCH   1  15
HETATM   15  C   UNK N   1       2.290  -1.278  -0.030  0.00  0.00     0.048 A 
HETATM   16  N   UNK N   1       2.691  -2.496   0.441  0.00  0.00    -0.366 N 
HETATM   17  C   UNK N   1       2.176  -3.665  -0.026  0.00  0.00     0.088 A 
ATOM     18  HN  UNK N   1       3.404  -2.531   1.171  1.00  0.00     0.165 HD
HETATM   19  C   UNK N   1       1.206  -3.648  -1.026  0.00  0.00     0.017 A 
HETATM   20  C   UNK N   1       0.774  -2.424  -1.533  0.00  0.00     0.003 A 
HETATM   21  C   UNK N   1       1.313  -1.236  -1.036  0.00  0.00     0.028 A 
ENDBRANCH   1  15
TORSDOF 6
