MODEL 1
REMARK VINA RESULT:      -6.7      0.000      0.000
REMARK  6 active torsions:
REMARK  status: ('A' for Active; 'I' for Inactive)
REMARK    1  A    between atoms: C_13  and  O_2 
REMARK    2  A    between atoms: C_15  and  O_3 
REMARK    3  A    between atoms: O_4  and  C_17 
REMARK    4  A    between atoms: C_14  and  N_5 
REMARK    5  A    between atoms: N_12  and  C_21 
REMARK    6  A    between atoms: C_16  and  C_17 
ROOT
HETATM    1  N   UNK N   1      31.599  16.927   7.355  0.00  0.00    -0.297 N 
HETATM    2  N   UNK N   1      29.894  17.465   5.987  0.00  0.00    -0.346 N 
ATOM      3  HN  UNK N   1      29.323  17.590   5.151  1.00  0.00     0.167 HD
HETATM    4  N   UNK N   1      30.560  17.687   9.409  0.00  0.00    -0.336 N 
ATOM      5  HN  UNK N   1      31.347  17.438  10.008  1.00  0.00     0.168 HD
HETATM    6  N   UNK N   1      28.379  18.596   9.114  0.00  0.00    -0.337 N 
ATOM      7  HN  UNK N   1      27.545  19.023   9.519  1.00  0.00     0.168 HD
HETATM    8  C   UNK N   1      30.603  17.468   8.073  0.00  0.00     0.142 A 
HETATM    9  C   UNK N   1      31.145  16.930   6.073  0.00  0.00     0.188 A 
HETATM   10  C   UNK N   1      29.584  17.791   7.254  0.00  0.00     0.122 A 
HETATM   11  C   UNK N   1      28.437  18.378   7.767  0.00  0.00     0.131 A 
HETATM   12  C   UNK N   1      29.428  18.251   9.933  0.00  0.00     0.183 A 
ENDROOT
BRANCH   1  13
HETATM   13  C   UNK N   1      32.920  16.480   7.814  0.00  0.00     0.262 C 
HETATM   14  O   UNK N   1      32.803  15.552   8.878  0.00  0.00    -0.353 OA
HETATM   15  C   UNK N   1      33.778  15.936   9.825  0.00  0.00     0.179 C 
HETATM   16  C   UNK N   1      34.755  16.829   9.112  0.00  0.00     0.182 C 
HETATM   17  C   UNK N   1      33.801  17.616   8.292  0.00  0.00     0.198 C 
BRANCH  15  18
HETATM   18  C   UNK N   1      34.494  14.725  10.394  0.00  0.00     0.198 C 
BRANCH  18  19
HETATM   19  O   UNK N   1      33.969  14.414  11.649  0.00  0.00    -0.398 OA
HETATM   20  H   UNK N   1      33.023  14.243  11.778  0.00  0.00     0.209 HD
ENDBRANCH  18  19
ENDBRANCH  15  18
BRANCH  16  21
HETATM   21  O   UNK N   1      35.462  17.640   9.998  0.00  0.00    -0.390 OA
HETATM   22  H   UNK N   1      35.609  18.591  10.125  0.00  0.00     0.210 HD
ENDBRANCH  16  21
BRANCH  17  23
HETATM   23  O   UNK N   1      34.470  18.221   7.229  0.00  0.00    -0.388 OA
HETATM   24  H   UNK N   1      34.230  18.139   6.292  0.00  0.00     0.210 HD
ENDBRANCH  17  23
ENDBRANCH   1  13
BRANCH  11  25
HETATM   25  N   UNK N   1      27.364  18.747   6.931  0.00  0.00    -0.383 N 
HETATM   26  H   UNK N   1      27.108  19.689   6.807  0.00  0.00     0.157 HD
HETATM   27  H   UNK N   1      26.858  18.044   6.462  0.00  0.00     0.157 HD
ENDBRANCH  11  25
TORSDOF 6
ENDMDL
MODEL 2
REMARK VINA RESULT:      -6.2      8.728     11.453
REMARK  6 active torsions:
REMARK  status: ('A' for Active; 'I' for Inactive)
REMARK    1  A    between atoms: C_13  and  O_2 
REMARK    2  A    between atoms: C_15  and  O_3 
REMARK    3  A    between atoms: O_4  and  C_17 
REMARK    4  A    between atoms: C_14  and  N_5 
REMARK    5  A    between atoms: N_12  and  C_21 
REMARK    6  A    between atoms: C_16  and  C_17 
ROOT
HETATM    1  N   UNK N   1      24.007  19.584   3.540  0.00  0.00    -0.297 N 
HETATM    2  N   UNK N   1      26.171  20.021   3.093  0.00  0.00    -0.346 N 
ATOM      3  HN  UNK N   1      27.018  20.471   2.747  1.00  0.00     0.167 HD
HETATM    4  N   UNK N   1      24.385  17.523   4.760  0.00  0.00    -0.336 N 
ATOM      5  HN  UNK N   1      23.399  17.344   4.946  1.00  0.00     0.168 HD
HETATM    6  N   UNK N   1      26.679  16.907   4.938  0.00  0.00    -0.337 N 
ATOM      7  HN  UNK N   1      27.388  16.254   5.272  1.00  0.00     0.168 HD
HETATM    8  C   UNK N   1      24.776  18.617   4.063  0.00  0.00     0.142 A 
HETATM    9  C   UNK N   1      24.881  20.442   2.949  0.00  0.00     0.188 A 
HETATM   10  C   UNK N   1      26.071  18.878   3.794  0.00  0.00     0.122 A 
HETATM   11  C   UNK N   1      27.061  18.010   4.227  0.00  0.00     0.131 A 
HETATM   12  C   UNK N   1      25.353  16.664   5.208  0.00  0.00     0.183 A 
ENDROOT
BRANCH   1  13
HETATM   13  C   UNK N   1      22.543  19.686   3.537  0.00  0.00     0.262 C 
HETATM   14  O   UNK N   1      21.943  18.412   3.389  0.00  0.00    -0.353 OA
HETATM   15  C   UNK N   1      20.899  18.591   2.455  0.00  0.00     0.179 C 
HETATM   16  C   UNK N   1      20.617  20.066   2.389  0.00  0.00     0.182 C 
HETATM   17  C   UNK N   1      22.009  20.575   2.433  0.00  0.00     0.198 C 
BRANCH  15  18
HETATM   18  C   UNK N   1      19.651  17.837   2.879  0.00  0.00     0.198 C 
BRANCH  18  19
HETATM   19  O   UNK N   1      18.516  18.550   2.493  0.00  0.00    -0.398 OA
HETATM   20  H   UNK N   1      18.526  19.517   2.407  0.00  0.00     0.209 HD
ENDBRANCH  18  19
ENDBRANCH  15  18
BRANCH  16  21
HETATM   21  O   UNK N   1      19.975  20.422   1.203  0.00  0.00    -0.390 OA
HETATM   22  H   UNK N   1      19.134  20.219   0.765  0.00  0.00     0.210 HD
ENDBRANCH  16  21
BRANCH  17  23
HETATM   23  O   UNK N   1      22.017  21.916   2.813  0.00  0.00    -0.388 OA
HETATM   24  H   UNK N   1      21.329  22.566   2.601  0.00  0.00     0.210 HD
ENDBRANCH  17  23
ENDBRANCH   1  13
BRANCH  11  25
HETATM   25  N   UNK N   1      28.421  18.246   3.941  0.00  0.00    -0.383 N 
HETATM   26  H   UNK N   1      28.741  18.362   3.018  0.00  0.00     0.157 HD
HETATM   27  H   UNK N   1      29.065  18.295   4.684  0.00  0.00     0.157 HD
ENDBRANCH  11  25
TORSDOF 6
ENDMDL
MODEL 3
REMARK VINA RESULT:      -6.1      8.453     11.201
REMARK  6 active torsions:
REMARK  status: ('A' for Active; 'I' for Inactive)
REMARK    1  A    between atoms: C_13  and  O_2 
REMARK    2  A    between atoms: C_15  and  O_3 
REMARK    3  A    between atoms: O_4  and  C_17 
REMARK    4  A    between atoms: C_14  and  N_5 
REMARK    5  A    between atoms: N_12  and  C_21 
REMARK    6  A    between atoms: C_16  and  C_17 
ROOT
HETATM    1  N   UNK N   1      35.296  13.051  17.136  0.00  0.00    -0.297 N 
HETATM    2  N   UNK N   1      35.235  13.203  19.381  0.00  0.00    -0.346 N 
ATOM      3  HN  UNK N   1      35.222  13.583  20.328  1.00  0.00     0.167 HD
HETATM    4  N   UNK N   1      35.205  10.631  17.017  0.00  0.00    -0.336 N 
ATOM      5  HN  UNK N   1      35.238  10.587  15.999  1.00  0.00     0.168 HD
HETATM    6  N   UNK N   1      35.102   9.559  19.142  0.00  0.00    -0.337 N 
ATOM      7  HN  UNK N   1      35.053   8.699  19.688  1.00  0.00     0.168 HD
HETATM    8  C   UNK N   1      35.232  11.820  17.666  0.00  0.00     0.142 A 
HETATM    9  C   UNK N   1      35.295  13.891  18.205  0.00  0.00     0.188 A 
HETATM   10  C   UNK N   1      35.196  11.912  19.010  0.00  0.00     0.122 A 
HETATM   11  C   UNK N   1      35.138  10.764  19.785  0.00  0.00     0.131 A 
HETATM   12  C   UNK N   1      35.131   9.489  17.769  0.00  0.00     0.183 A 
ENDROOT
BRANCH   1  13
HETATM   13  C   UNK N   1      35.409  13.433  15.723  0.00  0.00     0.262 C 
HETATM   14  O   UNK N   1      34.595  12.611  14.906  0.00  0.00    -0.353 OA
HETATM   15  C   UNK N   1      35.389  12.287  13.784  0.00  0.00     0.179 C 
HETATM   16  C   UNK N   1      36.517  13.281  13.743  0.00  0.00     0.182 C 
HETATM   17  C   UNK N   1      36.825  13.348  15.192  0.00  0.00     0.198 C 
BRANCH  15  18
HETATM   18  C   UNK N   1      34.580  12.360  12.501  0.00  0.00     0.198 C 
BRANCH  18  19
HETATM   19  O   UNK N   1      34.482  13.686  12.081  0.00  0.00    -0.398 OA
HETATM   20  H   UNK N   1      34.432  13.921  11.141  0.00  0.00     0.209 HD
ENDBRANCH  18  19
ENDBRANCH  15  18
BRANCH  16  21
HETATM   21  O   UNK N   1      37.603  12.807  13.008  0.00  0.00    -0.390 OA
HETATM   22  H   UNK N   1      38.554  12.991  12.951  0.00  0.00     0.210 HD
ENDBRANCH  16  21
BRANCH  17  23
HETATM   23  O   UNK N   1      37.543  14.509  15.475  0.00  0.00    -0.388 OA
HETATM   24  H   UNK N   1      37.726  14.857  16.362  0.00  0.00     0.210 HD
ENDBRANCH  17  23
ENDBRANCH   1  13
BRANCH  11  25
HETATM   25  N   UNK N   1      35.121  10.828  21.192  0.00  0.00    -0.383 N 
HETATM   26  H   UNK N   1      34.944  10.031  21.742  0.00  0.00     0.157 HD
HETATM   27  H   UNK N   1      35.291  11.691  21.635  0.00  0.00     0.157 HD
ENDBRANCH  11  25
TORSDOF 6
ENDMDL
MODEL 4
REMARK VINA RESULT:      -6.0      3.776      6.645
REMARK  6 active torsions:
REMARK  status: ('A' for Active; 'I' for Inactive)
REMARK    1  A    between atoms: C_13  and  O_2 
REMARK    2  A    between atoms: C_15  and  O_3 
REMARK    3  A    between atoms: O_4  and  C_17 
REMARK    4  A    between atoms: C_14  and  N_5 
REMARK    5  A    between atoms: N_12  and  C_21 
REMARK    6  A    between atoms: C_16  and  C_17 
ROOT
HETATM    1  N   UNK N   1      34.941  16.129   9.746  0.00  0.00    -0.297 N 
HETATM    2  N   UNK N   1      36.501  15.723  11.318  0.00  0.00    -0.346 N 
ATOM      3  HN  UNK N   1      37.110  15.827  12.129  1.00  0.00     0.167 HD
HETATM    4  N   UNK N   1      35.239  14.061   8.517  0.00  0.00    -0.336 N 
ATOM      5  HN  UNK N   1      34.530  14.269   7.814  1.00  0.00     0.168 HD
HETATM    6  N   UNK N   1      36.909  12.626   9.423  0.00  0.00    -0.337 N 
ATOM      7  HN  UNK N   1      37.432  11.751   9.377  1.00  0.00     0.168 HD
HETATM    8  C   UNK N   1      35.509  14.935   9.515  0.00  0.00     0.142 A 
HETATM    9  C   UNK N   1      35.561  16.600  10.861  0.00  0.00     0.188 A 
HETATM   10  C   UNK N   1      36.444  14.694  10.455  0.00  0.00     0.122 A 
HETATM   11  C   UNK N   1      37.179  13.519  10.420  0.00  0.00     0.131 A 
HETATM   12  C   UNK N   1      35.945  12.889   8.479  0.00  0.00     0.183 A 
ENDROOT
BRANCH   1  13
HETATM   13  C   UNK N   1      33.919  16.824   8.954  0.00  0.00     0.262 C 
HETATM   14  O   UNK N   1      32.982  15.910   8.413  0.00  0.00    -0.353 OA
HETATM   15  C   UNK N   1      32.780  16.320   7.077  0.00  0.00     0.179 C 
HETATM   16  C   UNK N   1      33.274  17.736   6.973  0.00  0.00     0.182 C 
HETATM   17  C   UNK N   1      34.497  17.622   7.803  0.00  0.00     0.198 C 
BRANCH  15  18
HETATM   18  C   UNK N   1      31.312  16.247   6.699  0.00  0.00     0.198 C 
BRANCH  18  19
HETATM   19  O   UNK N   1      30.707  17.485   6.918  0.00  0.00    -0.398 OA
HETATM   20  H   UNK N   1      30.775  18.207   6.273  0.00  0.00     0.209 HD
ENDBRANCH  18  19
ENDBRANCH  15  18
BRANCH  16  21
HETATM   21  O   UNK N   1      33.575  18.088   5.657  0.00  0.00    -0.390 OA
HETATM   22  H   UNK N   1      33.600  18.902   5.131  0.00  0.00     0.210 HD
ENDBRANCH  16  21
BRANCH  17  23
HETATM   23  O   UNK N   1      34.913  18.886   8.220  0.00  0.00    -0.388 OA
HETATM   24  H   UNK N   1      35.574  19.438   7.773  0.00  0.00     0.210 HD
ENDBRANCH  17  23
ENDBRANCH   1  13
BRANCH  11  25
HETATM   25  N   UNK N   1      38.178  13.250  11.377  0.00  0.00    -0.383 N 
HETATM   26  H   UNK N   1      38.784  13.954  11.701  0.00  0.00     0.157 HD
HETATM   27  H   UNK N   1      38.271  12.335  11.729  0.00  0.00     0.157 HD
ENDBRANCH  11  25
TORSDOF 6
ENDMDL
MODEL 5
REMARK VINA RESULT:      -5.8      3.796      5.665
REMARK  6 active torsions:
REMARK  status: ('A' for Active; 'I' for Inactive)
REMARK    1  A    between atoms: C_13  and  O_2 
REMARK    2  A    between atoms: C_15  and  O_3 
REMARK    3  A    between atoms: O_4  and  C_17 
REMARK    4  A    between atoms: C_14  and  N_5 
REMARK    5  A    between atoms: N_12  and  C_21 
REMARK    6  A    between atoms: C_16  and  C_17 
ROOT
HETATM    1  N   UNK N   1      34.968  14.989  11.127  0.00  0.00    -0.297 N 
HETATM    2  N   UNK N   1      35.045  17.103  10.356  0.00  0.00    -0.346 N 
ATOM      3  HN  UNK N   1      35.305  18.081  10.232  1.00  0.00     0.167 HD
HETATM    4  N   UNK N   1      33.218  14.212   9.639  0.00  0.00    -0.336 N 
ATOM      5  HN  UNK N   1      33.199  13.262  10.008  1.00  0.00     0.168 HD
HETATM    6  N   UNK N   1      32.408  15.878   8.142  0.00  0.00    -0.337 N 
ATOM      7  HN  UNK N   1      31.776  16.146   7.387  1.00  0.00     0.168 HD
HETATM    8  C   UNK N   1      34.069  15.138  10.142  0.00  0.00     0.142 A 
HETATM    9  C   UNK N   1      35.562  16.206  11.245  0.00  0.00     0.188 A 
HETATM   10  C   UNK N   1      34.115  16.404   9.682  0.00  0.00     0.122 A 
HETATM   11  C   UNK N   1      33.266  16.806   8.663  0.00  0.00     0.131 A 
HETATM   12  C   UNK N   1      32.384  14.590   8.621  0.00  0.00     0.183 A 
ENDROOT
BRANCH   1  13
HETATM   13  C   UNK N   1      35.229  13.804  11.954  0.00  0.00     0.262 C 
HETATM   14  O   UNK N   1      34.966  14.068  13.320  0.00  0.00    -0.353 OA
HETATM   15  C   UNK N   1      36.041  13.493  14.032  0.00  0.00     0.179 C 
HETATM   16  C   UNK N   1      36.709  12.516  13.104  0.00  0.00     0.182 C 
HETATM   17  C   UNK N   1      36.657  13.307  11.850  0.00  0.00     0.198 C 
BRANCH  15  18
HETATM   18  C   UNK N   1      35.553  12.780  15.280  0.00  0.00     0.198 C 
BRANCH  18  19
HETATM   19  O   UNK N   1      34.187  13.007  15.447  0.00  0.00    -0.398 OA
HETATM   20  H   UNK N   1      33.538  12.289  15.375  0.00  0.00     0.209 HD
ENDBRANCH  18  19
ENDBRANCH  15  18
BRANCH  16  21
HETATM   21  O   UNK N   1      38.023  12.247  13.488  0.00  0.00    -0.390 OA
HETATM   22  H   UNK N   1      38.469  11.666  14.124  0.00  0.00     0.210 HD
ENDBRANCH  16  21
BRANCH  17  23
HETATM   23  O   UNK N   1      36.823  12.469  10.748  0.00  0.00    -0.388 OA
HETATM   24  H   UNK N   1      37.582  12.477  10.144  0.00  0.00     0.210 HD
ENDBRANCH  17  23
ENDBRANCH   1  13
BRANCH  11  25
HETATM   25  N   UNK N   1      33.276  18.128   8.176  0.00  0.00    -0.383 N 
HETATM   26  H   UNK N   1      32.536  18.483   7.632  0.00  0.00     0.157 HD
HETATM   27  H   UNK N   1      34.041  18.711   8.386  0.00  0.00     0.157 HD
ENDBRANCH  11  25
TORSDOF 6
ENDMDL
MODEL 6
REMARK VINA RESULT:      -5.7      4.684      7.281
REMARK  6 active torsions:
REMARK  status: ('A' for Active; 'I' for Inactive)
REMARK    1  A    between atoms: C_13  and  O_2 
REMARK    2  A    between atoms: C_15  and  O_3 
REMARK    3  A    between atoms: O_4  and  C_17 
REMARK    4  A    between atoms: C_14  and  N_5 
REMARK    5  A    between atoms: N_12  and  C_21 
REMARK    6  A    between atoms: C_16  and  C_17 
ROOT
HETATM    1  N   UNK N   1      35.515  14.085  10.196  0.00  0.00    -0.297 N 
HETATM    2  N   UNK N   1      36.766  12.212  10.211  0.00  0.00    -0.346 N 
ATOM      3  HN  UNK N   1      37.300  11.401   9.902  1.00  0.00     0.167 HD
HETATM    4  N   UNK N   1      35.386  14.353  12.602  0.00  0.00    -0.336 N 
ATOM      5  HN  UNK N   1      34.816  15.198  12.570  1.00  0.00     0.168 HD
HETATM    6  N   UNK N   1      36.534  12.666  13.830  0.00  0.00    -0.337 N 
ATOM      7  HN  UNK N   1      36.813  12.273  14.729  1.00  0.00     0.168 HD
HETATM    8  C   UNK N   1      35.777  13.732  11.464  0.00  0.00     0.142 A 
HETATM    9  C   UNK N   1      36.133  13.141   9.437  0.00  0.00     0.188 A 
HETATM   10  C   UNK N   1      36.524  12.611  11.472  0.00  0.00     0.122 A 
HETATM   11  C   UNK N   1      36.916  12.044  12.675  0.00  0.00     0.131 A 
HETATM   12  C   UNK N   1      35.778  13.814  13.798  0.00  0.00     0.183 A 
ENDROOT
BRANCH   1  13
HETATM   13  C   UNK N   1      34.695  15.200   9.708  0.00  0.00     0.262 C 
HETATM   14  O   UNK N   1      34.505  15.118   8.307  0.00  0.00    -0.353 OA
HETATM   15  C   UNK N   1      34.688  16.432   7.822  0.00  0.00     0.179 C 
HETATM   16  C   UNK N   1      34.556  17.357   9.000  0.00  0.00     0.182 C 
HETATM   17  C   UNK N   1      35.292  16.558  10.011  0.00  0.00     0.198 C 
BRANCH  15  18
HETATM   18  C   UNK N   1      33.652  16.775   6.767  0.00  0.00     0.198 C 
BRANCH  18  19
HETATM   19  O   UNK N   1      34.066  17.896   6.048  0.00  0.00    -0.398 OA
HETATM   20  H   UNK N   1      34.738  18.505   6.393  0.00  0.00     0.209 HD
ENDBRANCH  18  19
ENDBRANCH  15  18
BRANCH  16  21
HETATM   21  O   UNK N   1      35.172  18.587   8.769  0.00  0.00    -0.390 OA
HETATM   22  H   UNK N   1      35.039  19.344   8.177  0.00  0.00     0.210 HD
ENDBRANCH  16  21
BRANCH  17  23
HETATM   23  O   UNK N   1      34.956  16.985  11.295  0.00  0.00    -0.388 OA
HETATM   24  H   UNK N   1      35.525  16.917  12.078  0.00  0.00     0.210 HD
ENDBRANCH  17  23
ENDBRANCH   1  13
BRANCH  11  25
HETATM   25  N   UNK N   1      37.679  10.860  12.715  0.00  0.00    -0.383 N 
HETATM   26  H   UNK N   1      37.813  10.306  11.912  0.00  0.00     0.157 HD
HETATM   27  H   UNK N   1      38.087  10.580  13.566  0.00  0.00     0.157 HD
ENDBRANCH  11  25
TORSDOF 6
ENDMDL
MODEL 7
REMARK VINA RESULT:      -5.7      1.534      2.293
REMARK  6 active torsions:
REMARK  status: ('A' for Active; 'I' for Inactive)
REMARK    1  A    between atoms: C_13  and  O_2 
REMARK    2  A    between atoms: C_15  and  O_3 
REMARK    3  A    between atoms: O_4  and  C_17 
REMARK    4  A    between atoms: C_14  and  N_5 
REMARK    5  A    between atoms: N_12  and  C_21 
REMARK    6  A    between atoms: C_16  and  C_17 
ROOT
HETATM    1  N   UNK N   1      31.319  16.552   7.717  0.00  0.00    -0.297 N 
HETATM    2  N   UNK N   1      29.868  17.060   6.072  0.00  0.00    -0.346 N 
ATOM      3  HN  UNK N   1      29.435  17.144   5.153  1.00  0.00     0.167 HD
HETATM    4  N   UNK N   1      30.038  17.527   9.530  0.00  0.00    -0.336 N 
ATOM      5  HN  UNK N   1      30.712  17.290  10.257  1.00  0.00     0.168 HD
HETATM    6  N   UNK N   1      27.983  18.515   8.844  0.00  0.00    -0.337 N 
ATOM      7  HN  UNK N   1      27.126  19.013   9.086  1.00  0.00     0.168 HD
HETATM    8  C   UNK N   1      30.263  17.198   8.236  0.00  0.00     0.142 A 
HETATM    9  C   UNK N   1      31.059  16.473   6.385  0.00  0.00     0.188 A 
HETATM   10  C   UNK N   1      29.396  17.503   7.250  0.00  0.00     0.122 A 
HETATM   11  C   UNK N   1      28.225  18.185   7.540  0.00  0.00     0.131 A 
HETATM   12  C   UNK N   1      28.878  18.187   9.834  0.00  0.00     0.183 A 
ENDROOT
BRANCH   1  13
HETATM   13  C   UNK N   1      32.529  16.080   8.402  0.00  0.00     0.262 C 
HETATM   14  O   UNK N   1      33.547  15.755   7.472  0.00  0.00    -0.353 OA
HETATM   15  C   UNK N   1      34.097  14.535   7.924  0.00  0.00     0.179 C 
HETATM   16  C   UNK N   1      33.687  14.375   9.362  0.00  0.00     0.182 C 
HETATM   17  C   UNK N   1      32.289  14.859   9.264  0.00  0.00     0.198 C 
BRANCH  15  18
HETATM   18  C   UNK N   1      35.611  14.542   7.808  0.00  0.00     0.198 C 
BRANCH  18  19
HETATM   19  O   UNK N   1      36.181  14.462   9.078  0.00  0.00    -0.398 OA
HETATM   20  H   UNK N   1      36.932  13.877   9.264  0.00  0.00     0.209 HD
ENDBRANCH  18  19
ENDBRANCH  15  18
BRANCH  16  21
HETATM   21  O   UNK N   1      33.745  13.044   9.775  0.00  0.00    -0.390 OA
HETATM   22  H   UNK N   1      33.184  12.436  10.282  0.00  0.00     0.210 HD
ENDBRANCH  16  21
BRANCH  17  23
HETATM   23  O   UNK N   1      31.816  15.214  10.527  0.00  0.00    -0.388 OA
HETATM   24  H   UNK N   1      32.104  15.986  11.040  0.00  0.00     0.210 HD
ENDBRANCH  17  23
ENDBRANCH   1  13
BRANCH  11  25
HETATM   25  N   UNK N   1      27.310  18.537   6.528  0.00  0.00    -0.383 N 
HETATM   26  H   UNK N   1      27.139  19.477   6.291  0.00  0.00     0.157 HD
HETATM   27  H   UNK N   1      26.830  17.824   6.046  0.00  0.00     0.157 HD
ENDBRANCH  11  25
TORSDOF 6
ENDMDL
MODEL 8
REMARK VINA RESULT:      -5.6     10.807     11.939
REMARK  6 active torsions:
REMARK  status: ('A' for Active; 'I' for Inactive)
REMARK    1  A    between atoms: C_13  and  O_2 
REMARK    2  A    between atoms: C_15  and  O_3 
REMARK    3  A    between atoms: O_4  and  C_17 
REMARK    4  A    between atoms: C_14  and  N_5 
REMARK    5  A    between atoms: N_12  and  C_21 
REMARK    6  A    between atoms: C_16  and  C_17 
ROOT
HETATM    1  N   UNK N   1      21.235  17.151   5.974  0.00  0.00    -0.297 N 
HETATM    2  N   UNK N   1      21.175  18.880   4.533  0.00  0.00    -0.346 N 
ATOM      3  HN  UNK N   1      21.278  19.811   4.131  1.00  0.00     0.167 HD
HETATM    4  N   UNK N   1      20.242  15.513   4.488  0.00  0.00    -0.336 N 
ATOM      5  HN  UNK N   1      20.276  14.747   5.160  1.00  0.00     0.168 HD
HETATM    6  N   UNK N   1      19.679  16.370   2.338  0.00  0.00    -0.337 N 
ATOM      7  HN  UNK N   1      19.291  16.215   1.407  1.00  0.00     0.168 HD
HETATM    8  C   UNK N   1      20.698  16.747   4.814  0.00  0.00     0.142 A 
HETATM    9  C   UNK N   1      21.526  18.466   5.785  0.00  0.00     0.188 A 
HETATM   10  C   UNK N   1      20.660  17.782   3.952  0.00  0.00     0.122 A 
HETATM   11  C   UNK N   1      20.134  17.612   2.681  0.00  0.00     0.131 A 
HETATM   12  C   UNK N   1      19.734  15.326   3.231  0.00  0.00     0.183 A 
ENDROOT
BRANCH   1  13
HETATM   13  C   UNK N   1      21.422  16.384   7.212  0.00  0.00     0.262 C 
HETATM   14  O   UNK N   1      21.799  15.047   6.931  0.00  0.00    -0.353 OA
HETATM   15  C   UNK N   1      21.030  14.246   7.804  0.00  0.00     0.179 C 
HETATM   16  C   UNK N   1      20.523  15.147   8.895  0.00  0.00     0.182 C 
HETATM   17  C   UNK N   1      20.181  16.338   8.079  0.00  0.00     0.198 C 
BRANCH  15  18
HETATM   18  C   UNK N   1      21.865  13.125   8.396  0.00  0.00     0.198 C 
BRANCH  18  19
HETATM   19  O   UNK N   1      21.085  12.366   9.268  0.00  0.00    -0.398 OA
HETATM   20  H   UNK N   1      21.220  11.411   9.374  0.00  0.00     0.209 HD
ENDBRANCH  18  19
ENDBRANCH  15  18
BRANCH  16  21
HETATM   21  O   UNK N   1      19.399  14.618   9.529  0.00  0.00    -0.390 OA
HETATM   22  H   UNK N   1      18.686  14.948  10.098  0.00  0.00     0.210 HD
ENDBRANCH  16  21
BRANCH  17  23
HETATM   23  O   UNK N   1      20.089  17.466   8.893  0.00  0.00    -0.388 OA
HETATM   24  H   UNK N   1      20.503  17.568   9.765  0.00  0.00     0.210 HD
ENDBRANCH  17  23
ENDBRANCH   1  13
BRANCH  11  25
HETATM   25  N   UNK N   1      20.062  18.681   1.766  0.00  0.00    -0.383 N 
HETATM   26  H   UNK N   1      20.846  18.963   1.241  0.00  0.00     0.157 HD
HETATM   27  H   UNK N   1      19.209  19.157   1.651  0.00  0.00     0.157 HD
ENDBRANCH  11  25
TORSDOF 6
ENDMDL
MODEL 9
REMARK VINA RESULT:      -5.6      3.727      5.745
REMARK  6 active torsions:
REMARK  status: ('A' for Active; 'I' for Inactive)
REMARK    1  A    between atoms: C_13  and  O_2 
REMARK    2  A    between atoms: C_15  and  O_3 
REMARK    3  A    between atoms: O_4  and  C_17 
REMARK    4  A    between atoms: C_14  and  N_5 
REMARK    5  A    between atoms: N_12  and  C_21 
REMARK    6  A    between atoms: C_16  and  C_17 
ROOT
HETATM    1  N   UNK N   1      33.297  16.769   4.682  0.00  0.00    -0.297 N 
HETATM    2  N   UNK N   1      32.974  16.239   2.518  0.00  0.00    -0.346 N 
ATOM      3  HN  UNK N   1      32.658  16.269   1.549  1.00  0.00     0.167 HD
HETATM    4  N   UNK N   1      34.676  14.854   5.236  0.00  0.00    -0.336 N 
ATOM      5  HN  UNK N   1      34.805  15.112   6.213  1.00  0.00     0.168 HD
HETATM    6  N   UNK N   1      35.054  13.370   3.411  0.00  0.00    -0.337 N 
ATOM      7  HN  UNK N   1      35.480  12.517   3.049  1.00  0.00     0.168 HD
HETATM    8  C   UNK N   1      33.936  15.623   4.402  0.00  0.00     0.142 A 
HETATM    9  C   UNK N   1      32.712  17.137   3.511  0.00  0.00     0.188 A 
HETATM   10  C   UNK N   1      33.741  15.306   3.107  0.00  0.00     0.122 A 
HETATM   11  C   UNK N   1      34.299  14.151   2.582  0.00  0.00     0.131 A 
HETATM   12  C   UNK N   1      35.247  13.718   4.727  0.00  0.00     0.183 A 
ENDROOT
BRANCH   1  13
HETATM   13  C   UNK N   1      33.185  17.462   5.971  0.00  0.00     0.262 C 
HETATM   14  O   UNK N   1      34.418  17.445   6.669  0.00  0.00    -0.353 OA
HETATM   15  C   UNK N   1      34.091  17.138   8.008  0.00  0.00     0.179 C 
HETATM   16  C   UNK N   1      32.621  17.405   8.174  0.00  0.00     0.182 C 
HETATM   17  C   UNK N   1      32.135  16.861   6.883  0.00  0.00     0.198 C 
BRANCH  15  18
HETATM   18  C   UNK N   1      34.892  17.992   8.975  0.00  0.00     0.198 C 
BRANCH  18  19
HETATM   19  O   UNK N   1      35.242  19.195   8.363  0.00  0.00    -0.398 OA
HETATM   20  H   UNK N   1      34.973  20.052   8.730  0.00  0.00     0.209 HD
ENDBRANCH  18  19
ENDBRANCH  15  18
BRANCH  16  21
HETATM   21  O   UNK N   1      32.084  16.713   9.259  0.00  0.00    -0.390 OA
HETATM   22  H   UNK N   1      31.584  15.894   9.398  0.00  0.00     0.210 HD
ENDBRANCH  16  21
BRANCH  17  23
HETATM   23  O   UNK N   1      30.867  17.366   6.598  0.00  0.00    -0.388 OA
HETATM   24  H   UNK N   1      30.294  17.838   7.222  0.00  0.00     0.210 HD
ENDBRANCH  17  23
ENDBRANCH   1  13
BRANCH  11  25
HETATM   25  N   UNK N   1      34.094  13.782   1.237  0.00  0.00    -0.383 N 
HETATM   26  H   UNK N   1      34.824  13.421   0.685  0.00  0.00     0.157 HD
HETATM   27  H   UNK N   1      33.199  13.889   0.841  0.00  0.00     0.157 HD
ENDBRANCH  11  25
TORSDOF 6
ENDMDL
