MODEL 1
REMARK VINA RESULT:      -6.0      0.000      0.000
REMARK  5 active torsions:
REMARK  status: ('A' for Active; 'I' for Inactive)
REMARK    1  A    between atoms: N_2  and  C_4 
REMARK    2  A    between atoms: N_2  and  C_7 
REMARK    3  A    between atoms: N_2  and  C_8 
REMARK    4  A    between atoms: N_3  and  C_5 
REMARK    5  A    between atoms: C_4  and  C_5 
ROOT
HETATM    1  S   UNK N   1      28.947  17.065   5.378  0.00  0.00    -0.086 SA
HETATM    2  N   UNK N   1      31.722  17.475   6.948  0.00  0.00    -0.343 N 
HETATM    3  C   UNK N   1      30.495  17.627   7.681  0.00  0.00     0.052 A 
HETATM    4  C   UNK N   1      31.773  17.211   5.538  0.00  0.00     0.052 A 
HETATM    5  C   UNK N   1      29.220  17.464   7.092  0.00  0.00     0.032 A 
HETATM    6  C   UNK N   1      30.613  17.029   4.747  0.00  0.00     0.032 A 
HETATM    7  C   UNK N   1      33.028  17.143   4.898  0.00  0.00     0.031 A 
HETATM    8  C   UNK N   1      30.551  17.959   9.052  0.00  0.00     0.031 A 
HETATM    9  C   UNK N   1      28.067  17.618   7.874  0.00  0.00     0.021 A 
HETATM   10  C   UNK N   1      30.738  16.795   3.371  0.00  0.00     0.021 A 
HETATM   11  C   UNK N   1      33.137  16.906   3.528  0.00  0.00     0.002 A 
HETATM   12  C   UNK N   1      29.398  18.104   9.818  0.00  0.00     0.002 A 
HETATM   13  C   UNK N   1      31.989  16.734   2.763  0.00  0.00     0.002 A 
HETATM   14  C   UNK N   1      28.152  17.930   9.228  0.00  0.00     0.002 A 
ENDROOT
BRANCH   2  15
HETATM   15  C   UNK N   1      32.983  17.740   7.641  0.00  0.00     0.165 C 
BRANCH  15  16
HETATM   16  C   UNK N   1      33.401  16.621   8.605  0.00  0.00     0.237 C 
HETATM   17  C   UNK N   1      34.641  17.052   9.390  0.00  0.00     0.044 C 
BRANCH  16  18
HETATM   18  N   UNK N   1      33.606  15.388   7.819  0.00  0.00     0.093 N 
BRANCH  18  19
HETATM   19  C   UNK N   1      35.002  14.946   7.792  0.00  0.00     0.268 C 
HETATM   20  C   UNK N   1      35.501  14.957   6.358  0.00  0.00     0.037 C 
ENDBRANCH  18  19
BRANCH  18  21
HETATM   21  C   UNK N   1      32.830  14.340   8.474  0.00  0.00     0.268 C 
HETATM   22  C   UNK N   1      33.735  13.370   9.217  0.00  0.00     0.037 C 
ENDBRANCH  18  21
ENDBRANCH  16  18
ENDBRANCH  15  16
ENDBRANCH   2  15
TORSDOF 5
ENDMDL
MODEL 2
REMARK VINA RESULT:      -5.7      3.033      6.020
REMARK  5 active torsions:
REMARK  status: ('A' for Active; 'I' for Inactive)
REMARK    1  A    between atoms: N_2  and  C_4 
REMARK    2  A    between atoms: N_2  and  C_7 
REMARK    3  A    between atoms: N_2  and  C_8 
REMARK    4  A    between atoms: N_3  and  C_5 
REMARK    5  A    between atoms: C_4  and  C_5 
ROOT
HETATM    1  S   UNK N   1      32.225  17.471   7.256  0.00  0.00    -0.086 SA
HETATM    2  N   UNK N   1      29.434  17.382   5.662  0.00  0.00    -0.343 N 
HETATM    3  C   UNK N   1      29.399  17.556   7.088  0.00  0.00     0.052 A 
HETATM    4  C   UNK N   1      30.647  17.182   4.919  0.00  0.00     0.052 A 
HETATM    5  C   UNK N   1      30.565  17.616   7.886  0.00  0.00     0.032 A 
HETATM    6  C   UNK N   1      31.928  17.187   5.522  0.00  0.00     0.032 A 
HETATM    7  C   UNK N   1      30.569  16.955   3.530  0.00  0.00     0.031 A 
HETATM    8  C   UNK N   1      28.151  17.672   7.736  0.00  0.00     0.031 A 
HETATM    9  C   UNK N   1      30.453  17.799   9.271  0.00  0.00     0.021 A 
HETATM   10  C   UNK N   1      33.067  16.966   4.737  0.00  0.00     0.021 A 
HETATM   11  C   UNK N   1      31.713  16.739   2.760  0.00  0.00     0.002 A 
HETATM   12  C   UNK N   1      28.054  17.858   9.112  0.00  0.00     0.002 A 
HETATM   13  C   UNK N   1      32.964  16.742   3.367  0.00  0.00     0.002 A 
HETATM   14  C   UNK N   1      29.208  17.925   9.882  0.00  0.00     0.002 A 
ENDROOT
BRANCH   2  15
HETATM   15  C   UNK N   1      28.164  17.260   4.946  0.00  0.00     0.165 C 
BRANCH  15  16
HETATM   16  C   UNK N   1      27.807  18.499   4.115  0.00  0.00     0.237 C 
HETATM   17  C   UNK N   1      28.178  19.765   4.889  0.00  0.00     0.044 C 
BRANCH  16  18
HETATM   18  N   UNK N   1      26.374  18.426   3.768  0.00  0.00     0.093 N 
BRANCH  18  19
HETATM   19  C   UNK N   1      25.620  17.505   4.622  0.00  0.00     0.268 C 
HETATM   20  C   UNK N   1      24.527  16.845   3.801  0.00  0.00     0.037 C 
ENDBRANCH  18  19
BRANCH  18  21
HETATM   21  C   UNK N   1      25.824  19.762   3.974  0.00  0.00     0.268 C 
HETATM   22  C   UNK N   1      25.296  20.343   2.672  0.00  0.00     0.037 C 
ENDBRANCH  18  21
ENDBRANCH  16  18
ENDBRANCH  15  16
ENDBRANCH   2  15
TORSDOF 5
ENDMDL
MODEL 3
REMARK VINA RESULT:      -5.7      2.881      7.121
REMARK  5 active torsions:
REMARK  status: ('A' for Active; 'I' for Inactive)
REMARK    1  A    between atoms: N_2  and  C_4 
REMARK    2  A    between atoms: N_2  and  C_7 
REMARK    3  A    between atoms: N_2  and  C_8 
REMARK    4  A    between atoms: N_3  and  C_5 
REMARK    5  A    between atoms: C_4  and  C_5 
ROOT
HETATM    1  S   UNK N   1      31.981  16.129   7.545  0.00  0.00    -0.086 SA
HETATM    2  N   UNK N   1      29.838  17.709   5.742  0.00  0.00    -0.343 N 
HETATM    3  C   UNK N   1      31.004  17.167   5.098  0.00  0.00     0.052 A 
HETATM    4  C   UNK N   1      29.612  17.636   7.158  0.00  0.00     0.052 A 
HETATM    5  C   UNK N   1      32.005  16.451   5.793  0.00  0.00     0.032 A 
HETATM    6  C   UNK N   1      30.497  16.978   8.046  0.00  0.00     0.032 A 
HETATM    7  C   UNK N   1      28.468  18.256   7.701  0.00  0.00     0.031 A 
HETATM    8  C   UNK N   1      31.170  17.355   3.710  0.00  0.00     0.031 A 
HETATM    9  C   UNK N   1      33.109  15.943   5.095  0.00  0.00     0.021 A 
HETATM   10  C   UNK N   1      30.221  16.964   9.420  0.00  0.00     0.021 A 
HETATM   11  C   UNK N   1      28.205  18.231   9.071  0.00  0.00     0.002 A 
HETATM   12  C   UNK N   1      32.269  16.840   3.027  0.00  0.00     0.002 A 
HETATM   13  C   UNK N   1      29.086  17.586   9.932  0.00  0.00     0.002 A 
HETATM   14  C   UNK N   1      33.241  16.129   3.722  0.00  0.00     0.002 A 
ENDROOT
BRANCH   2  15
HETATM   15  C   UNK N   1      28.904  18.497   4.938  0.00  0.00     0.165 C 
BRANCH  15  16
HETATM   16  C   UNK N   1      27.505  17.873   4.835  0.00  0.00     0.237 C 
HETATM   17  C   UNK N   1      27.440  16.952   3.615  0.00  0.00     0.044 C 
BRANCH  16  18
HETATM   18  N   UNK N   1      26.514  18.965   4.796  0.00  0.00     0.093 N 
BRANCH  18  19
HETATM   19  C   UNK N   1      27.121  20.298   4.811  0.00  0.00     0.268 C 
HETATM   20  C   UNK N   1      26.686  21.031   6.067  0.00  0.00     0.037 C 
ENDBRANCH  18  19
BRANCH  18  21
HETATM   21  C   UNK N   1      25.790  18.830   3.536  0.00  0.00     0.268 C 
HETATM   22  C   UNK N   1      25.485  20.191   2.930  0.00  0.00     0.037 C 
ENDBRANCH  18  21
ENDBRANCH  16  18
ENDBRANCH  15  16
ENDBRANCH   2  15
TORSDOF 5
ENDMDL
MODEL 4
REMARK VINA RESULT:      -5.7      1.711      4.581
REMARK  5 active torsions:
REMARK  status: ('A' for Active; 'I' for Inactive)
REMARK    1  A    between atoms: N_2  and  C_4 
REMARK    2  A    between atoms: N_2  and  C_7 
REMARK    3  A    between atoms: N_2  and  C_8 
REMARK    4  A    between atoms: N_3  and  C_5 
REMARK    5  A    between atoms: C_4  and  C_5 
ROOT
HETATM    1  S   UNK N   1      27.277  17.264   5.975  0.00  0.00    -0.086 SA
HETATM    2  N   UNK N   1      30.410  16.555   5.852  0.00  0.00    -0.343 N 
HETATM    3  C   UNK N   1      29.569  16.118   4.771  0.00  0.00     0.052 A 
HETATM    4  C   UNK N   1      29.914  17.237   7.014  0.00  0.00     0.052 A 
HETATM    5  C   UNK N   1      28.181  16.379   4.721  0.00  0.00     0.032 A 
HETATM    6  C   UNK N   1      28.551  17.585   7.179  0.00  0.00     0.032 A 
HETATM    7  C   UNK N   1      30.811  17.567   8.050  0.00  0.00     0.031 A 
HETATM    8  C   UNK N   1      30.142  15.389   3.707  0.00  0.00     0.031 A 
HETATM    9  C   UNK N   1      27.427  15.930   3.628  0.00  0.00     0.021 A 
HETATM   10  C   UNK N   1      28.135  18.233   8.349  0.00  0.00     0.021 A 
HETATM   11  C   UNK N   1      30.383  18.215   9.209  0.00  0.00     0.002 A 
HETATM   12  C   UNK N   1      29.382  14.953   2.625  0.00  0.00     0.002 A 
HETATM   13  C   UNK N   1      29.041  18.546   9.359  0.00  0.00     0.002 A 
HETATM   14  C   UNK N   1      28.021  15.226   2.584  0.00  0.00     0.002 A 
ENDROOT
BRANCH   2  15
HETATM   15  C   UNK N   1      31.820  16.164   5.837  0.00  0.00     0.165 C 
BRANCH  15  16
HETATM   16  C   UNK N   1      32.777  17.326   5.540  0.00  0.00     0.237 C 
HETATM   17  C   UNK N   1      32.694  17.697   4.057  0.00  0.00     0.044 C 
BRANCH  16  18
HETATM   18  N   UNK N   1      34.133  16.930   5.968  0.00  0.00     0.093 N 
BRANCH  18  19
HETATM   19  C   UNK N   1      34.270  16.821   7.422  0.00  0.00     0.268 C 
HETATM   20  C   UNK N   1      34.448  18.208   8.011  0.00  0.00     0.037 C 
ENDBRANCH  18  19
BRANCH  18  21
HETATM   21  C   UNK N   1      34.379  15.606   5.406  0.00  0.00     0.268 C 
HETATM   22  C   UNK N   1      35.566  14.937   6.080  0.00  0.00     0.037 C 
ENDBRANCH  18  21
ENDBRANCH  16  18
ENDBRANCH  15  16
ENDBRANCH   2  15
TORSDOF 5
ENDMDL
MODEL 5
REMARK VINA RESULT:      -5.6      1.729      2.955
REMARK  5 active torsions:
REMARK  status: ('A' for Active; 'I' for Inactive)
REMARK    1  A    between atoms: N_2  and  C_4 
REMARK    2  A    between atoms: N_2  and  C_7 
REMARK    3  A    between atoms: N_2  and  C_8 
REMARK    4  A    between atoms: N_3  and  C_5 
REMARK    5  A    between atoms: C_4  and  C_5 
ROOT
HETATM    1  S   UNK N   1      27.289  17.142   5.943  0.00  0.00    -0.086 SA
HETATM    2  N   UNK N   1      30.405  16.352   5.890  0.00  0.00    -0.343 N 
HETATM    3  C   UNK N   1      29.917  17.126   6.998  0.00  0.00     0.052 A 
HETATM    4  C   UNK N   1      29.588  15.966   4.774  0.00  0.00     0.052 A 
HETATM    5  C   UNK N   1      28.566  17.524   7.125  0.00  0.00     0.032 A 
HETATM    6  C   UNK N   1      28.209  16.275   4.687  0.00  0.00     0.032 A 
HETATM    7  C   UNK N   1      30.178  15.261   3.705  0.00  0.00     0.031 A 
HETATM    8  C   UNK N   1      30.817  17.519   8.012  0.00  0.00     0.031 A 
HETATM    9  C   UNK N   1      28.162  18.270   8.240  0.00  0.00     0.021 A 
HETATM   10  C   UNK N   1      27.478  15.882   3.558  0.00  0.00     0.021 A 
HETATM   11  C   UNK N   1      29.436  14.875   2.588  0.00  0.00     0.002 A 
HETATM   12  C   UNK N   1      30.401  18.255   9.117  0.00  0.00     0.002 A 
HETATM   13  C   UNK N   1      28.084  15.189   2.514  0.00  0.00     0.002 A 
HETATM   14  C   UNK N   1      29.068  18.630   9.233  0.00  0.00     0.002 A 
ENDROOT
BRANCH   2  15
HETATM   15  C   UNK N   1      31.837  16.061   5.824  0.00  0.00     0.165 C 
BRANCH  15  16
HETATM   16  C   UNK N   1      32.704  17.299   5.557  0.00  0.00     0.237 C 
HETATM   17  C   UNK N   1      32.582  17.707   4.087  0.00  0.00     0.044 C 
BRANCH  16  18
HETATM   18  N   UNK N   1      34.089  16.991   5.965  0.00  0.00     0.093 N 
BRANCH  18  19
HETATM   19  C   UNK N   1      34.251  16.872   7.415  0.00  0.00     0.268 C 
HETATM   20  C   UNK N   1      34.409  18.258   8.014  0.00  0.00     0.037 C 
ENDBRANCH  18  19
BRANCH  18  21
HETATM   21  C   UNK N   1      34.419  15.695   5.381  0.00  0.00     0.268 C 
HETATM   22  C   UNK N   1      35.468  14.972   6.211  0.00  0.00     0.037 C 
ENDBRANCH  18  21
ENDBRANCH  16  18
ENDBRANCH  15  16
ENDBRANCH   2  15
TORSDOF 5
ENDMDL
MODEL 6
REMARK VINA RESULT:      -5.6     12.887     15.375
REMARK  5 active torsions:
REMARK  status: ('A' for Active; 'I' for Inactive)
REMARK    1  A    between atoms: N_2  and  C_4 
REMARK    2  A    between atoms: N_2  and  C_7 
REMARK    3  A    between atoms: N_2  and  C_8 
REMARK    4  A    between atoms: N_3  and  C_5 
REMARK    5  A    between atoms: C_4  and  C_5 
ROOT
HETATM    1  S   UNK N   1      27.047  29.185  -3.059  0.00  0.00    -0.086 SA
HETATM    2  N   UNK N   1      28.983  27.003  -4.410  0.00  0.00    -0.343 N 
HETATM    3  C   UNK N   1      29.553  27.934  -3.475  0.00  0.00     0.052 A 
HETATM    4  C   UNK N   1      27.607  27.036  -4.820  0.00  0.00     0.052 A 
HETATM    5  C   UNK N   1      28.794  28.930  -2.818  0.00  0.00     0.032 A 
HETATM    6  C   UNK N   1      26.672  27.964  -4.301  0.00  0.00     0.032 A 
HETATM    7  C   UNK N   1      27.161  26.119  -5.793  0.00  0.00     0.031 A 
HETATM    8  C   UNK N   1      30.934  27.865  -3.192  0.00  0.00     0.031 A 
HETATM    9  C   UNK N   1      29.417  29.795  -1.910  0.00  0.00     0.021 A 
HETATM   10  C   UNK N   1      25.349  27.951  -4.763  0.00  0.00     0.021 A 
HETATM   11  C   UNK N   1      25.839  26.116  -6.241  0.00  0.00     0.002 A 
HETATM   12  C   UNK N   1      31.540  28.728  -2.283  0.00  0.00     0.002 A 
HETATM   13  C   UNK N   1      24.933  27.036  -5.726  0.00  0.00     0.002 A 
HETATM   14  C   UNK N   1      30.779  29.695  -1.638  0.00  0.00     0.002 A 
ENDROOT
BRANCH   2  15
HETATM   15  C   UNK N   1      29.877  26.063  -5.086  0.00  0.00     0.165 C 
BRANCH  15  16
HETATM   16  C   UNK N   1      30.337  24.903  -4.192  0.00  0.00     0.237 C 
HETATM   17  C   UNK N   1      31.787  24.541  -4.521  0.00  0.00     0.044 C 
BRANCH  16  18
HETATM   18  N   UNK N   1      29.399  23.778  -4.376  0.00  0.00     0.093 N 
BRANCH  18  19
HETATM   19  C   UNK N   1      30.070  22.487  -4.539  0.00  0.00     0.268 C 
HETATM   20  C   UNK N   1      29.592  21.835  -5.824  0.00  0.00     0.037 C 
ENDBRANCH  18  19
BRANCH  18  21
HETATM   21  C   UNK N   1      28.595  23.701  -3.160  0.00  0.00     0.268 C 
HETATM   22  C   UNK N   1      29.340  22.968  -2.056  0.00  0.00     0.037 C 
ENDBRANCH  18  21
ENDBRANCH  16  18
ENDBRANCH  15  16
ENDBRANCH   2  15
TORSDOF 5
ENDMDL
MODEL 7
REMARK VINA RESULT:      -5.6     12.926     15.486
REMARK  5 active torsions:
REMARK  status: ('A' for Active; 'I' for Inactive)
REMARK    1  A    between atoms: N_2  and  C_4 
REMARK    2  A    between atoms: N_2  and  C_7 
REMARK    3  A    between atoms: N_2  and  C_8 
REMARK    4  A    between atoms: N_3  and  C_5 
REMARK    5  A    between atoms: C_4  and  C_5 
ROOT
HETATM    1  S   UNK N   1      27.031  29.201  -3.074  0.00  0.00    -0.086 SA
HETATM    2  N   UNK N   1      28.999  27.130  -4.547  0.00  0.00    -0.343 N 
HETATM    3  C   UNK N   1      27.605  27.110  -4.895  0.00  0.00     0.052 A 
HETATM    4  C   UNK N   1      29.549  27.984  -3.532  0.00  0.00     0.052 A 
HETATM    5  C   UNK N   1      26.653  27.979  -4.314  0.00  0.00     0.032 A 
HETATM    6  C   UNK N   1      28.770  28.921  -2.810  0.00  0.00     0.032 A 
HETATM    7  C   UNK N   1      30.920  27.882  -3.220  0.00  0.00     0.031 A 
HETATM    8  C   UNK N   1      27.150  26.182  -5.855  0.00  0.00     0.031 A 
HETATM    9  C   UNK N   1      25.311  27.908  -4.711  0.00  0.00     0.021 A 
HETATM   10  C   UNK N   1      29.371  29.708  -1.819  0.00  0.00     0.021 A 
HETATM   11  C   UNK N   1      31.505  28.674  -2.232  0.00  0.00     0.002 A 
HETATM   12  C   UNK N   1      25.814  26.125  -6.245  0.00  0.00     0.002 A 
HETATM   13  C   UNK N   1      30.727  29.587  -1.528  0.00  0.00     0.002 A 
HETATM   14  C   UNK N   1      24.892  26.992  -5.672  0.00  0.00     0.002 A 
ENDROOT
BRANCH   2  15
HETATM   15  C   UNK N   1      29.881  26.135  -5.157  0.00  0.00     0.165 C 
BRANCH  15  16
HETATM   16  C   UNK N   1      30.254  24.984  -4.212  0.00  0.00     0.237 C 
HETATM   17  C   UNK N   1      31.701  24.557  -4.464  0.00  0.00     0.044 C 
BRANCH  16  18
HETATM   18  N   UNK N   1      29.280  23.892  -4.408  0.00  0.00     0.093 N 
BRANCH  18  19
HETATM   19  C   UNK N   1      29.910  22.598  -4.676  0.00  0.00     0.268 C 
HETATM   20  C   UNK N   1      29.361  22.035  -5.974  0.00  0.00     0.037 C 
ENDBRANCH  18  19
BRANCH  18  21
HETATM   21  C   UNK N   1      28.536  23.765  -3.159  0.00  0.00     0.268 C 
HETATM   22  C   UNK N   1      29.320  22.961  -2.133  0.00  0.00     0.037 C 
ENDBRANCH  18  21
ENDBRANCH  16  18
ENDBRANCH  15  16
ENDBRANCH   2  15
TORSDOF 5
ENDMDL
MODEL 8
REMARK VINA RESULT:      -5.5      7.643     11.631
REMARK  5 active torsions:
REMARK  status: ('A' for Active; 'I' for Inactive)
REMARK    1  A    between atoms: N_2  and  C_4 
REMARK    2  A    between atoms: N_2  and  C_7 
REMARK    3  A    between atoms: N_2  and  C_8 
REMARK    4  A    between atoms: N_3  and  C_5 
REMARK    5  A    between atoms: C_4  and  C_5 
ROOT
HETATM    1  S   UNK N   1      35.674   9.119  17.368  0.00  0.00    -0.086 SA
HETATM    2  N   UNK N   1      35.100  11.300  15.077  0.00  0.00    -0.343 N 
HETATM    3  C   UNK N   1      35.345   9.941  14.678  0.00  0.00     0.052 A 
HETATM    4  C   UNK N   1      35.161  11.747  16.440  0.00  0.00     0.052 A 
HETATM    5  C   UNK N   1      35.602   8.901  15.601  0.00  0.00     0.032 A 
HETATM    6  C   UNK N   1      35.421  10.876  17.525  0.00  0.00     0.032 A 
HETATM    7  C   UNK N   1      34.969  13.116  16.721  0.00  0.00     0.031 A 
HETATM    8  C   UNK N   1      35.335   9.616  13.305  0.00  0.00     0.031 A 
HETATM    9  C   UNK N   1      35.821   7.597  15.138  0.00  0.00     0.021 A 
HETATM   10  C   UNK N   1      35.485  11.387  18.828  0.00  0.00     0.021 A 
HETATM   11  C   UNK N   1      35.033  13.609  18.024  0.00  0.00     0.002 A 
HETATM   12  C   UNK N   1      35.549   8.315  12.858  0.00  0.00     0.002 A 
HETATM   13  C   UNK N   1      35.294  12.742  19.079  0.00  0.00     0.002 A 
HETATM   14  C   UNK N   1      35.790   7.301  13.778  0.00  0.00     0.002 A 
ENDROOT
BRANCH   2  15
HETATM   15  C   UNK N   1      34.920  12.308  14.032  0.00  0.00     0.165 C 
BRANCH  15  16
HETATM   16  C   UNK N   1      36.240  12.863  13.479  0.00  0.00     0.237 C 
HETATM   17  C   UNK N   1      36.338  14.360  13.781  0.00  0.00     0.044 C 
BRANCH  16  18
HETATM   18  N   UNK N   1      36.304  12.552  12.037  0.00  0.00     0.093 N 
BRANCH  18  19
HETATM   19  C   UNK N   1      36.055  13.716  11.184  0.00  0.00     0.268 C 
HETATM   20  C   UNK N   1      34.732  13.534  10.463  0.00  0.00     0.037 C 
ENDBRANCH  18  19
BRANCH  18  21
HETATM   21  C   UNK N   1      37.663  12.095  11.767  0.00  0.00     0.268 C 
HETATM   22  C   UNK N   1      38.333  12.961  10.712  0.00  0.00     0.037 C 
ENDBRANCH  18  21
ENDBRANCH  16  18
ENDBRANCH  15  16
ENDBRANCH   2  15
TORSDOF 5
ENDMDL
MODEL 9
REMARK VINA RESULT:      -5.5      4.890      7.084
REMARK  5 active torsions:
REMARK  status: ('A' for Active; 'I' for Inactive)
REMARK    1  A    between atoms: N_2  and  C_4 
REMARK    2  A    between atoms: N_2  and  C_7 
REMARK    3  A    between atoms: N_2  and  C_8 
REMARK    4  A    between atoms: N_3  and  C_5 
REMARK    5  A    between atoms: C_4  and  C_5 
ROOT
HETATM    1  S   UNK N   1      22.247  17.167   4.961  0.00  0.00    -0.086 SA
HETATM    2  N   UNK N   1      25.430  17.584   4.780  0.00  0.00    -0.343 N 
HETATM    3  C   UNK N   1      24.929  16.489   5.565  0.00  0.00     0.052 A 
HETATM    4  C   UNK N   1      24.581  18.539   4.125  0.00  0.00     0.052 A 
HETATM    5  C   UNK N   1      23.550  16.210   5.708  0.00  0.00     0.032 A 
HETATM    6  C   UNK N   1      23.168  18.460   4.152  0.00  0.00     0.032 A 
HETATM    7  C   UNK N   1      25.171  19.617   3.432  0.00  0.00     0.031 A 
HETATM    8  C   UNK N   1      25.845  15.647   6.231  0.00  0.00     0.031 A 
HETATM    9  C   UNK N   1      23.138  15.116   6.481  0.00  0.00     0.021 A 
HETATM   10  C   UNK N   1      22.404  19.440   3.505  0.00  0.00     0.021 A 
HETATM   11  C   UNK N   1      24.397  20.584   2.790  0.00  0.00     0.002 A 
HETATM   12  C   UNK N   1      25.421  14.561   6.993  0.00  0.00     0.002 A 
HETATM   13  C   UNK N   1      23.009  20.496   2.830  0.00  0.00     0.002 A 
HETATM   14  C   UNK N   1      24.064  14.293   7.116  0.00  0.00     0.002 A 
ENDROOT
BRANCH   2  15
HETATM   15  C   UNK N   1      26.873  17.824   4.763  0.00  0.00     0.165 C 
BRANCH  15  16
HETATM   16  C   UNK N   1      27.368  18.677   5.939  0.00  0.00     0.237 C 
HETATM   17  C   UNK N   1      27.978  19.977   5.412  0.00  0.00     0.044 C 
BRANCH  16  18
HETATM   18  N   UNK N   1      28.314  17.867   6.732  0.00  0.00     0.093 N 
BRANCH  18  19
HETATM   19  C   UNK N   1      29.566  17.586   6.026  0.00  0.00     0.268 C 
HETATM   20  C   UNK N   1      29.899  16.112   6.167  0.00  0.00     0.037 C 
ENDBRANCH  18  19
BRANCH  18  21
HETATM   21  C   UNK N   1      28.647  18.651   7.916  0.00  0.00     0.268 C 
HETATM   22  C   UNK N   1      28.162  17.964   9.183  0.00  0.00     0.037 C 
ENDBRANCH  18  21
ENDBRANCH  16  18
ENDBRANCH  15  16
ENDBRANCH   2  15
TORSDOF 5
ENDMDL
