MODEL 1
REMARK VINA RESULT:      -6.7      0.000      0.000
REMARK  4 active torsions:
REMARK  status: ('A' for Active; 'I' for Inactive)
REMARK    1  A    between atoms: N_1  and  C_14 
REMARK    2  A    between atoms: N_2  and  C_15 
REMARK    3  A    between atoms: C_4  and  C_5 
REMARK    4  A    between atoms: C_4  and  C_6 
ROOT
HETATM    1  N   UNK N   1      40.344  12.304   7.836  0.00  0.00    -0.390 N 
HETATM    2  C   UNK N   1      35.875  14.041  10.720  0.00  0.00    -0.005 C 
HETATM    3  C   UNK N   1      36.993  13.614  10.006  0.00  0.00    -0.024 A 
HETATM    4  C   UNK N   1      38.113  12.868  10.650  0.00  0.00     0.014 A 
HETATM    5  C   UNK N   1      37.144  13.870   8.545  0.00  0.00     0.014 A 
HETATM    6  C   UNK N   1      39.308  12.712   8.508  0.00  0.00     0.029 A 
HETATM    7  C   UNK N   1      39.189  12.456   9.967  0.00  0.00     0.030 A 
HETATM    8  C   UNK N   1      38.205  13.449   7.846  0.00  0.00     0.030 A 
HETATM    9  C   UNK N   1      40.451  12.541   6.415  0.00  0.00     0.149 C 
HETATM   10  C   UNK N   1      41.425  11.599   8.482  0.00  0.00     0.149 C 
ENDROOT
BRANCH   2  11
HETATM   11  C   UNK N   1      35.704  13.676  12.204  0.00  0.00    -0.024 A 
HETATM   12  C   UNK N   1      34.978  12.536  12.595  0.00  0.00     0.014 A 
HETATM   13  C   UNK N   1      34.857  12.166  13.936  0.00  0.00     0.030 A 
HETATM   14  C   UNK N   1      35.461  12.932  14.942  0.00  0.00     0.029 A 
HETATM   15  C   UNK N   1      36.172  14.080  14.575  0.00  0.00     0.030 A 
HETATM   16  C   UNK N   1      36.289  14.439  13.231  0.00  0.00     0.014 A 
BRANCH  14  17
HETATM   17  N   UNK N   1      35.370  12.542  16.312  0.00  0.00    -0.390 N 
HETATM   18  C   UNK N   1      35.104  13.516  17.342  0.00  0.00     0.149 C 
HETATM   19  C   UNK N   1      35.497  11.158  16.697  0.00  0.00     0.149 C 
ENDBRANCH  14  17
ENDBRANCH   2  11
BRANCH   2  20
HETATM   20  C   UNK N   1      34.787  14.883  10.037  0.00  0.00    -0.024 A 
HETATM   21  C   UNK N   1      33.599  14.305   9.549  0.00  0.00     0.014 A 
HETATM   22  C   UNK N   1      32.626  15.061   8.896  0.00  0.00     0.030 A 
HETATM   23  C   UNK N   1      32.808  16.434   8.701  0.00  0.00     0.029 A 
HETATM   24  C   UNK N   1      33.977  17.034   9.189  0.00  0.00     0.030 A 
HETATM   25  C   UNK N   1      34.944  16.268   9.845  0.00  0.00     0.014 A 
BRANCH  23  26
HETATM   26  N   UNK N   1      31.827  17.202   8.005  0.00  0.00    -0.390 N 
HETATM   27  C   UNK N   1      30.944  18.092   8.717  0.00  0.00     0.149 C 
HETATM   28  C   UNK N   1      31.719  17.136   6.569  0.00  0.00     0.149 C 
ENDBRANCH  23  26
ENDBRANCH   2  20
TORSDOF 4
ENDMDL
MODEL 2
REMARK VINA RESULT:      -6.7      0.120      6.501
REMARK  4 active torsions:
REMARK  status: ('A' for Active; 'I' for Inactive)
REMARK    1  A    between atoms: N_1  and  C_14 
REMARK    2  A    between atoms: N_2  and  C_15 
REMARK    3  A    between atoms: C_4  and  C_5 
REMARK    4  A    between atoms: C_4  and  C_6 
ROOT
HETATM    1  N   UNK N   1      40.340  12.325   7.724  0.00  0.00    -0.390 N 
HETATM    2  C   UNK N   1      35.889  14.027  10.657  0.00  0.00    -0.005 C 
HETATM    3  C   UNK N   1      36.992  13.598   9.922  0.00  0.00    -0.024 A 
HETATM    4  C   UNK N   1      37.129  13.861   8.460  0.00  0.00     0.014 A 
HETATM    5  C   UNK N   1      38.118  12.847  10.550  0.00  0.00     0.014 A 
HETATM    6  C   UNK N   1      39.303  12.716   8.404  0.00  0.00     0.029 A 
HETATM    7  C   UNK N   1      38.188  13.450   7.751  0.00  0.00     0.030 A 
HETATM    8  C   UNK N   1      39.191  12.445   9.857  0.00  0.00     0.030 A 
HETATM    9  C   UNK N   1      41.430  11.624   8.364  0.00  0.00     0.149 C 
HETATM   10  C   UNK N   1      40.443  12.575   6.307  0.00  0.00     0.149 C 
ENDROOT
BRANCH   2  11
HETATM   11  C   UNK N   1      34.793  14.882  10.000  0.00  0.00    -0.024 A 
HETATM   12  C   UNK N   1      34.973  16.262   9.794  0.00  0.00     0.014 A 
HETATM   13  C   UNK N   1      34.005  17.042   9.154  0.00  0.00     0.030 A 
HETATM   14  C   UNK N   1      32.814  16.462   8.698  0.00  0.00     0.029 A 
HETATM   15  C   UNK N   1      32.609  15.094   8.911  0.00  0.00     0.030 A 
HETATM   16  C   UNK N   1      33.584  14.324   9.548  0.00  0.00     0.014 A 
BRANCH  14  17
HETATM   17  N   UNK N   1      31.836  17.244   8.014  0.00  0.00    -0.390 N 
HETATM   18  C   UNK N   1      31.717  17.188   6.577  0.00  0.00     0.149 C 
HETATM   19  C   UNK N   1      30.911  18.076   8.743  0.00  0.00     0.149 C 
ENDBRANCH  14  17
ENDBRANCH   2  11
BRANCH   2  20
HETATM   20  C   UNK N   1      35.747  13.658  12.141  0.00  0.00    -0.024 A 
HETATM   21  C   UNK N   1      36.359  14.417  13.157  0.00  0.00     0.014 A 
HETATM   22  C   UNK N   1      36.263  14.063  14.502  0.00  0.00     0.030 A 
HETATM   23  C   UNK N   1      35.548  12.923  14.885  0.00  0.00     0.029 A 
HETATM   24  C   UNK N   1      34.920  12.158  13.893  0.00  0.00     0.030 A 
HETATM   25  C   UNK N   1      35.020  12.524  12.548  0.00  0.00     0.014 A 
BRANCH  23  26
HETATM   26  N   UNK N   1      35.474  12.543  16.259  0.00  0.00    -0.390 N 
HETATM   27  C   UNK N   1      34.928  13.440  17.246  0.00  0.00     0.149 C 
HETATM   28  C   UNK N   1      35.909  11.237  16.688  0.00  0.00     0.149 C 
ENDBRANCH  23  26
ENDBRANCH   2  20
TORSDOF 4
ENDMDL
MODEL 3
REMARK VINA RESULT:      -6.7      8.460     13.563
REMARK  4 active torsions:
REMARK  status: ('A' for Active; 'I' for Inactive)
REMARK    1  A    between atoms: N_1  and  C_14 
REMARK    2  A    between atoms: N_2  and  C_15 
REMARK    3  A    between atoms: C_4  and  C_5 
REMARK    4  A    between atoms: C_4  and  C_6 
ROOT
HETATM    1  N   UNK N   1      22.768  12.438  10.752  0.00  0.00    -0.390 N 
HETATM    2  C   UNK N   1      24.667  14.961   6.133  0.00  0.00    -0.005 C 
HETATM    3  C   UNK N   1      24.197  14.325   7.280  0.00  0.00    -0.024 A 
HETATM    4  C   UNK N   1      25.115  13.759   8.312  0.00  0.00     0.014 A 
HETATM    5  C   UNK N   1      22.740  14.169   7.559  0.00  0.00     0.014 A 
HETATM    6  C   UNK N   1      23.209  13.019   9.676  0.00  0.00     0.029 A 
HETATM    7  C   UNK N   1      24.667  13.148   9.416  0.00  0.00     0.030 A 
HETATM    8  C   UNK N   1      22.278  13.576   8.666  0.00  0.00     0.030 A 
HETATM    9  C   UNK N   1      21.350  12.326  11.010  0.00  0.00     0.149 C 
HETATM   10  C   UNK N   1      23.673  11.883  11.728  0.00  0.00     0.149 C 
ENDROOT
BRANCH   2  11
HETATM   11  C   UNK N   1      26.173  15.190   5.924  0.00  0.00    -0.024 A 
HETATM   12  C   UNK N   1      26.813  16.335   6.435  0.00  0.00     0.014 A 
HETATM   13  C   UNK N   1      28.189  16.532   6.294  0.00  0.00     0.030 A 
HETATM   14  C   UNK N   1      28.978  15.584   5.629  0.00  0.00     0.029 A 
HETATM   15  C   UNK N   1      28.356  14.448   5.097  0.00  0.00     0.030 A 
HETATM   16  C   UNK N   1      26.982  14.260   5.246  0.00  0.00     0.014 A 
BRANCH  14  17
HETATM   17  N   UNK N   1      30.389  15.761   5.511  0.00  0.00    -0.390 N 
HETATM   18  C   UNK N   1      30.937  16.944   4.893  0.00  0.00     0.149 C 
HETATM   19  C   UNK N   1      31.304  14.784   6.046  0.00  0.00     0.149 C 
ENDBRANCH  14  17
ENDBRANCH   2  11
BRANCH   2  20
HETATM   20  C   UNK N   1      23.689  15.449   5.054  0.00  0.00    -0.024 A 
HETATM   21  C   UNK N   1      23.157  16.753   5.071  0.00  0.00     0.014 A 
HETATM   22  C   UNK N   1      22.240  17.187   4.114  0.00  0.00     0.030 A 
HETATM   23  C   UNK N   1      21.814  16.325   3.099  0.00  0.00     0.029 A 
HETATM   24  C   UNK N   1      22.339  15.026   3.054  0.00  0.00     0.030 A 
HETATM   25  C   UNK N   1      23.260  14.602   4.016  0.00  0.00     0.014 A 
BRANCH  23  26
HETATM   26  N   UNK N   1      20.853  16.759   2.137  0.00  0.00    -0.390 N 
HETATM   27  C   UNK N   1      20.433  15.889   1.067  0.00  0.00     0.149 C 
HETATM   28  C   UNK N   1      20.249  18.065   2.234  0.00  0.00     0.149 C 
ENDBRANCH  23  26
ENDBRANCH   2  20
TORSDOF 4
ENDMDL
MODEL 4
REMARK VINA RESULT:      -6.6      8.437     14.423
REMARK  4 active torsions:
REMARK  status: ('A' for Active; 'I' for Inactive)
REMARK    1  A    between atoms: N_1  and  C_14 
REMARK    2  A    between atoms: N_2  and  C_15 
REMARK    3  A    between atoms: C_4  and  C_5 
REMARK    4  A    between atoms: C_4  and  C_6 
ROOT
HETATM    1  N   UNK N   1      22.835  12.469  10.754  0.00  0.00    -0.390 N 
HETATM    2  C   UNK N   1      24.676  15.030   6.133  0.00  0.00    -0.005 C 
HETATM    3  C   UNK N   1      24.215  14.399   7.286  0.00  0.00    -0.024 A 
HETATM    4  C   UNK N   1      22.761  14.211   7.565  0.00  0.00     0.014 A 
HETATM    5  C   UNK N   1      25.144  13.864   8.322  0.00  0.00     0.014 A 
HETATM    6  C   UNK N   1      23.262  13.068   9.683  0.00  0.00     0.029 A 
HETATM    7  C   UNK N   1      22.314  13.606   8.672  0.00  0.00     0.030 A 
HETATM    8  C   UNK N   1      24.712  13.241   9.425  0.00  0.00     0.030 A 
HETATM    9  C   UNK N   1      23.759  11.934  11.728  0.00  0.00     0.149 C 
HETATM   10  C   UNK N   1      21.424  12.313  11.012  0.00  0.00     0.149 C 
ENDROOT
BRANCH   2  11
HETATM   11  C   UNK N   1      23.695  15.483   5.039  0.00  0.00    -0.024 A 
HETATM   12  C   UNK N   1      23.286  14.605   4.019  0.00  0.00     0.014 A 
HETATM   13  C   UNK N   1      22.357  14.988   3.048  0.00  0.00     0.030 A 
HETATM   14  C   UNK N   1      21.805  16.276   3.063  0.00  0.00     0.029 A 
HETATM   15  C   UNK N   1      22.214  17.170   4.059  0.00  0.00     0.030 A 
HETATM   16  C   UNK N   1      23.140  16.775   5.026  0.00  0.00     0.014 A 
BRANCH  14  17
HETATM   17  N   UNK N   1      20.830  16.664   2.095  0.00  0.00    -0.390 N 
HETATM   18  C   UNK N   1      20.310  18.009   2.068  0.00  0.00     0.149 C 
HETATM   19  C   UNK N   1      20.375  15.736   1.090  0.00  0.00     0.149 C 
ENDBRANCH  14  17
ENDBRANCH   2  11
BRANCH   2  20
HETATM   20  C   UNK N   1      26.178  15.281   5.927  0.00  0.00    -0.024 A 
HETATM   21  C   UNK N   1      26.999  14.360   5.250  0.00  0.00     0.014 A 
HETATM   22  C   UNK N   1      28.369  14.568   5.095  0.00  0.00     0.030 A 
HETATM   23  C   UNK N   1      28.975  15.714   5.620  0.00  0.00     0.029 A 
HETATM   24  C   UNK N   1      28.176  16.652   6.288  0.00  0.00     0.030 A 
HETATM   25  C   UNK N   1      26.803  16.435   6.435  0.00  0.00     0.014 A 
BRANCH  23  26
HETATM   26  N   UNK N   1      30.382  15.913   5.488  0.00  0.00    -0.390 N 
HETATM   27  C   UNK N   1      31.315  14.890   5.889  0.00  0.00     0.149 C 
HETATM   28  C   UNK N   1      30.905  17.128   4.914  0.00  0.00     0.149 C 
ENDBRANCH  23  26
ENDBRANCH   2  20
TORSDOF 4
ENDMDL
MODEL 5
REMARK VINA RESULT:      -6.4      1.636      2.685
REMARK  4 active torsions:
REMARK  status: ('A' for Active; 'I' for Inactive)
REMARK    1  A    between atoms: N_1  and  C_14 
REMARK    2  A    between atoms: N_2  and  C_15 
REMARK    3  A    between atoms: C_4  and  C_5 
REMARK    4  A    between atoms: C_4  and  C_6 
ROOT
HETATM    1  N   UNK N   1      38.904  13.231   5.177  0.00  0.00    -0.390 N 
HETATM    2  C   UNK N   1      35.151  14.761   9.035  0.00  0.00    -0.005 C 
HETATM    3  C   UNK N   1      36.091  14.386   8.077  0.00  0.00    -0.024 A 
HETATM    4  C   UNK N   1      37.378  13.723   8.439  0.00  0.00     0.014 A 
HETATM    5  C   UNK N   1      35.873  14.618   6.620  0.00  0.00     0.014 A 
HETATM    6  C   UNK N   1      38.035  13.591   6.074  0.00  0.00     0.029 A 
HETATM    7  C   UNK N   1      38.283  13.361   7.521  0.00  0.00     0.030 A 
HETATM    8  C   UNK N   1      36.761  14.246   5.691  0.00  0.00     0.030 A 
HETATM    9  C   UNK N   1      38.654  13.443   3.770  0.00  0.00     0.149 C 
HETATM   10  C   UNK N   1      40.150  12.606   5.551  0.00  0.00     0.149 C 
ENDROOT
BRANCH   2  11
HETATM   11  C   UNK N   1      35.362  14.420  10.519  0.00  0.00    -0.024 A 
HETATM   12  C   UNK N   1      35.937  15.350  11.405  0.00  0.00     0.014 A 
HETATM   13  C   UNK N   1      36.090  15.071  12.765  0.00  0.00     0.030 A 
HETATM   14  C   UNK N   1      35.672  13.841  13.289  0.00  0.00     0.029 A 
HETATM   15  C   UNK N   1      35.115  12.896  12.420  0.00  0.00     0.030 A 
HETATM   16  C   UNK N   1      34.965  13.185  11.064  0.00  0.00     0.014 A 
BRANCH  14  17
HETATM   17  N   UNK N   1      35.793  13.561  14.684  0.00  0.00    -0.390 N 
HETATM   18  C   UNK N   1      34.887  12.649  15.337  0.00  0.00     0.149 C 
HETATM   19  C   UNK N   1      36.852  14.149  15.466  0.00  0.00     0.149 C 
ENDBRANCH  14  17
ENDBRANCH   2  11
BRANCH   2  20
HETATM   20  C   UNK N   1      33.880  15.521   8.626  0.00  0.00    -0.024 A 
HETATM   21  C   UNK N   1      33.799  16.925   8.700  0.00  0.00     0.014 A 
HETATM   22  C   UNK N   1      32.634  17.615   8.366  0.00  0.00     0.030 A 
HETATM   23  C   UNK N   1      31.495  16.920   7.945  0.00  0.00     0.029 A 
HETATM   24  C   UNK N   1      31.556  15.523   7.852  0.00  0.00     0.030 A 
HETATM   25  C   UNK N   1      32.729  14.841   8.186  0.00  0.00     0.014 A 
BRANCH  23  26
HETATM   26  N   UNK N   1      30.294  17.623   7.632  0.00  0.00    -0.390 N 
HETATM   27  C   UNK N   1      29.692  17.515   6.326  0.00  0.00     0.149 C 
HETATM   28  C   UNK N   1      29.629  18.430   8.626  0.00  0.00     0.149 C 
ENDBRANCH  23  26
ENDBRANCH   2  20
TORSDOF 4
ENDMDL
MODEL 6
REMARK VINA RESULT:      -6.4      1.744      6.748
REMARK  4 active torsions:
REMARK  status: ('A' for Active; 'I' for Inactive)
REMARK    1  A    between atoms: N_1  and  C_14 
REMARK    2  A    between atoms: N_2  and  C_15 
REMARK    3  A    between atoms: C_4  and  C_5 
REMARK    4  A    between atoms: C_4  and  C_6 
ROOT
HETATM    1  N   UNK N   1      39.251   9.459   9.152  0.00  0.00    -0.390 N 
HETATM    2  C   UNK N   1      36.024  13.204  11.774  0.00  0.00    -0.005 C 
HETATM    3  C   UNK N   1      36.820  12.268  11.117  0.00  0.00    -0.024 A 
HETATM    4  C   UNK N   1      37.005  12.276   9.637  0.00  0.00     0.014 A 
HETATM    5  C   UNK N   1      37.548  11.193  11.852  0.00  0.00     0.014 A 
HETATM    6  C   UNK N   1      38.496  10.326   9.760  0.00  0.00     0.029 A 
HETATM    7  C   UNK N   1      37.770  11.378   9.003  0.00  0.00     0.030 A 
HETATM    8  C   UNK N   1      38.330  10.300  11.233  0.00  0.00     0.030 A 
HETATM    9  C   UNK N   1      39.967   8.446   9.892  0.00  0.00     0.149 C 
HETATM   10  C   UNK N   1      39.402   9.475   7.717  0.00  0.00     0.149 C 
ENDROOT
BRANCH   2  11
HETATM   11  C   UNK N   1      35.365  14.357  10.998  0.00  0.00    -0.024 A 
HETATM   12  C   UNK N   1      35.968  15.626  10.930  0.00  0.00     0.014 A 
HETATM   13  C   UNK N   1      35.406  16.668  10.188  0.00  0.00     0.030 A 
HETATM   14  C   UNK N   1      34.209  16.474   9.487  0.00  0.00     0.029 A 
HETATM   15  C   UNK N   1      33.584  15.224   9.557  0.00  0.00     0.030 A 
HETATM   16  C   UNK N   1      34.156  14.189  10.299  0.00  0.00     0.014 A 
BRANCH  14  17
HETATM   17  N   UNK N   1      33.645  17.523   8.699  0.00  0.00    -0.390 N 
HETATM   18  C   UNK N   1      32.228  17.573   8.439  0.00  0.00     0.149 C 
HETATM   19  C   UNK N   1      34.472  18.585   8.181  0.00  0.00     0.149 C 
ENDBRANCH  14  17
ENDBRANCH   2  11
BRANCH   2  20
HETATM   20  C   UNK N   1      35.789  13.105  13.289  0.00  0.00    -0.024 A 
HETATM   21  C   UNK N   1      36.556  13.847  14.208  0.00  0.00     0.014 A 
HETATM   22  C   UNK N   1      36.371  13.731  15.585  0.00  0.00     0.030 A 
HETATM   23  C   UNK N   1      35.407  12.858  16.099  0.00  0.00     0.029 A 
HETATM   24  C   UNK N   1      34.623  12.118  15.204  0.00  0.00     0.030 A 
HETATM   25  C   UNK N   1      34.814  12.244  13.825  0.00  0.00     0.014 A 
BRANCH  23  26
HETATM   26  N   UNK N   1      35.237  12.717  17.510  0.00  0.00    -0.390 N 
HETATM   27  C   UNK N   1      35.216  11.414  18.125  0.00  0.00     0.149 C 
HETATM   28  C   UNK N   1      35.122  13.877  18.359  0.00  0.00     0.149 C 
ENDBRANCH  23  26
ENDBRANCH   2  20
TORSDOF 4
ENDMDL
MODEL 7
REMARK VINA RESULT:      -6.3      1.906      2.322
REMARK  4 active torsions:
REMARK  status: ('A' for Active; 'I' for Inactive)
REMARK    1  A    between atoms: N_1  and  C_14 
REMARK    2  A    between atoms: N_2  and  C_15 
REMARK    3  A    between atoms: C_4  and  C_5 
REMARK    4  A    between atoms: C_4  and  C_6 
ROOT
HETATM    1  N   UNK N   1      38.915   9.017   9.078  0.00  0.00    -0.390 N 
HETATM    2  C   UNK N   1      35.974  13.031  11.638  0.00  0.00    -0.005 C 
HETATM    3  C   UNK N   1      36.714  12.035  11.004  0.00  0.00    -0.024 A 
HETATM    4  C   UNK N   1      37.414  10.957  11.761  0.00  0.00     0.014 A 
HETATM    5  C   UNK N   1      36.853  11.975   9.520  0.00  0.00     0.014 A 
HETATM    6  C   UNK N   1      38.236   9.953   9.673  0.00  0.00     0.029 A 
HETATM    7  C   UNK N   1      38.125   9.998  11.155  0.00  0.00     0.030 A 
HETATM    8  C   UNK N   1      37.546  11.013   8.900  0.00  0.00     0.030 A 
HETATM    9  C   UNK N   1      39.009   8.967   7.637  0.00  0.00     0.149 C 
HETATM   10  C   UNK N   1      39.598   7.994   9.831  0.00  0.00     0.149 C 
ENDROOT
BRANCH   2  11
HETATM   11  C   UNK N   1      35.770  13.008  13.161  0.00  0.00    -0.024 A 
HETATM   12  C   UNK N   1      34.745  12.243  13.747  0.00  0.00     0.014 A 
HETATM   13  C   UNK N   1      34.580  12.174  15.133  0.00  0.00     0.030 A 
HETATM   14  C   UNK N   1      35.439  12.878  15.986  0.00  0.00     0.029 A 
HETATM   15  C   UNK N   1      36.453  13.660  15.422  0.00  0.00     0.030 A 
HETATM   16  C   UNK N   1      36.612  13.719  14.036  0.00  0.00     0.014 A 
BRANCH  14  17
HETATM   17  N   UNK N   1      35.298  12.786  17.404  0.00  0.00    -0.390 N 
HETATM   18  C   UNK N   1      35.147  13.972  18.210  0.00  0.00     0.149 C 
HETATM   19  C   UNK N   1      35.258  11.504  18.061  0.00  0.00     0.149 C 
ENDBRANCH  14  17
ENDBRANCH   2  11
BRANCH   2  20
HETATM   20  C   UNK N   1      35.344  14.173  10.826  0.00  0.00    -0.024 A 
HETATM   21  C   UNK N   1      35.876  15.476  10.841  0.00  0.00     0.014 A 
HETATM   22  C   UNK N   1      35.284  16.523  10.135  0.00  0.00     0.030 A 
HETATM   23  C   UNK N   1      34.124  16.304   9.384  0.00  0.00     0.029 A 
HETATM   24  C   UNK N   1      33.583  15.012   9.343  0.00  0.00     0.030 A 
HETATM   25  C   UNK N   1      34.186  13.969  10.052  0.00  0.00     0.014 A 
BRANCH  23  26
HETATM   26  N   UNK N   1      33.501  17.381   8.685  0.00  0.00    -0.390 N 
HETATM   27  C   UNK N   1      32.067  17.446   8.554  0.00  0.00     0.149 C 
HETATM   28  C   UNK N   1      34.288  18.452   8.126  0.00  0.00     0.149 C 
ENDBRANCH  23  26
ENDBRANCH   2  20
TORSDOF 4
ENDMDL
MODEL 8
REMARK VINA RESULT:      -6.2      4.304      9.461
REMARK  4 active torsions:
REMARK  status: ('A' for Active; 'I' for Inactive)
REMARK    1  A    between atoms: N_1  and  C_14 
REMARK    2  A    between atoms: N_2  and  C_15 
REMARK    3  A    between atoms: C_4  and  C_5 
REMARK    4  A    between atoms: C_4  and  C_6 
ROOT
HETATM    1  N   UNK N   1      26.760  20.083   6.016  0.00  0.00    -0.390 N 
HETATM    2  C   UNK N   1      30.893  16.311   6.086  0.00  0.00    -0.005 C 
HETATM    3  C   UNK N   1      29.859  17.245   6.074  0.00  0.00    -0.024 A 
HETATM    4  C   UNK N   1      29.555  18.113   7.250  0.00  0.00     0.014 A 
HETATM    5  C   UNK N   1      28.987  17.447   4.881  0.00  0.00     0.014 A 
HETATM    6  C   UNK N   1      27.717  19.203   6.034  0.00  0.00     0.029 A 
HETATM    7  C   UNK N   1      28.563  19.013   7.241  0.00  0.00     0.030 A 
HETATM    8  C   UNK N   1      28.003  18.354   4.853  0.00  0.00     0.030 A 
HETATM    9  C   UNK N   1      25.949  20.276   4.836  0.00  0.00     0.149 C 
HETATM   10  C   UNK N   1      26.473  20.900   7.170  0.00  0.00     0.149 C 
ENDROOT
BRANCH   2  11
HETATM   11  C   UNK N   1      31.835  16.197   7.296  0.00  0.00    -0.024 A 
HETATM   12  C   UNK N   1      31.714  15.138   8.215  0.00  0.00     0.014 A 
HETATM   13  C   UNK N   1      32.594  14.995   9.290  0.00  0.00     0.030 A 
HETATM   14  C   UNK N   1      33.631  15.916   9.487  0.00  0.00     0.029 A 
HETATM   15  C   UNK N   1      33.756  16.986   8.594  0.00  0.00     0.030 A 
HETATM   16  C   UNK N   1      32.873  17.118   7.521  0.00  0.00     0.014 A 
BRANCH  14  17
HETATM   17  N   UNK N   1      34.555  15.758  10.563  0.00  0.00    -0.390 N 
HETATM   18  C   UNK N   1      35.478  16.812  10.907  0.00  0.00     0.149 C 
HETATM   19  C   UNK N   1      34.560  14.559  11.364  0.00  0.00     0.149 C 
ENDBRANCH  14  17
ENDBRANCH   2  11
BRANCH   2  20
HETATM   20  C   UNK N   1      31.115  15.376   4.887  0.00  0.00    -0.024 A 
HETATM   21  C   UNK N   1      30.214  14.339   4.578  0.00  0.00     0.014 A 
HETATM   22  C   UNK N   1      30.432  13.466   3.513  0.00  0.00     0.030 A 
HETATM   23  C   UNK N   1      31.572  13.596   2.713  0.00  0.00     0.029 A 
HETATM   24  C   UNK N   1      32.477  14.628   2.993  0.00  0.00     0.030 A 
HETATM   25  C   UNK N   1      32.247  15.500   4.061  0.00  0.00     0.014 A 
BRANCH  23  26
HETATM   26  N   UNK N   1      31.811  12.684   1.641  0.00  0.00    -0.390 N 
HETATM   27  C   UNK N   1      30.739  11.896   1.087  0.00  0.00     0.149 C 
HETATM   28  C   UNK N   1      33.125  12.556   1.060  0.00  0.00     0.149 C 
ENDBRANCH  23  26
ENDBRANCH   2  20
TORSDOF 4
ENDMDL
MODEL 9
REMARK VINA RESULT:      -6.1      4.427      9.548
REMARK  4 active torsions:
REMARK  status: ('A' for Active; 'I' for Inactive)
REMARK    1  A    between atoms: N_1  and  C_14 
REMARK    2  A    between atoms: N_2  and  C_15 
REMARK    3  A    between atoms: C_4  and  C_5 
REMARK    4  A    between atoms: C_4  and  C_6 
ROOT
HETATM    1  N   UNK N   1      35.068  15.731   9.582  0.00  0.00    -0.390 N 
HETATM    2  C   UNK N   1      30.855  15.838   5.900  0.00  0.00    -0.005 C 
HETATM    3  C   UNK N   1      31.908  15.818   6.813  0.00  0.00    -0.024 A 
HETATM    4  C   UNK N   1      32.149  16.931   7.777  0.00  0.00     0.014 A 
HETATM    5  C   UNK N   1      32.866  14.677   6.892  0.00  0.00     0.014 A 
HETATM    6  C   UNK N   1      34.092  15.758   8.723  0.00  0.00     0.029 A 
HETATM    7  C   UNK N   1      33.160  16.914   8.655  0.00  0.00     0.030 A 
HETATM    8  C   UNK N   1      33.870  14.640   7.776  0.00  0.00     0.030 A 
HETATM    9  C   UNK N   1      35.964  14.600   9.655  0.00  0.00     0.149 C 
HETATM   10  C   UNK N   1      35.293  16.826  10.494  0.00  0.00     0.149 C 
ENDROOT
BRANCH   2  11
HETATM   11  C   UNK N   1      29.829  16.982   5.911  0.00  0.00    -0.024 A 
HETATM   12  C   UNK N   1      29.635  17.796   4.780  0.00  0.00     0.014 A 
HETATM   13  C   UNK N   1      28.671  18.808   4.758  0.00  0.00     0.030 A 
HETATM   14  C   UNK N   1      27.864  19.043   5.879  0.00  0.00     0.029 A 
HETATM   15  C   UNK N   1      28.055  18.256   7.021  0.00  0.00     0.030 A 
HETATM   16  C   UNK N   1      29.018  17.247   7.030  0.00  0.00     0.014 A 
BRANCH  14  17
HETATM   17  N   UNK N   1      26.855  20.052   5.854  0.00  0.00    -0.390 N 
HETATM   18  C   UNK N   1      27.075  21.334   6.477  0.00  0.00     0.149 C 
HETATM   19  C   UNK N   1      25.607  19.832   5.167  0.00  0.00     0.149 C 
ENDBRANCH  14  17
ENDBRANCH   2  11
BRANCH   2  20
HETATM   20  C   UNK N   1      30.696  14.713   4.866  0.00  0.00    -0.024 A 
HETATM   21  C   UNK N   1      31.505  14.643   3.716  0.00  0.00     0.014 A 
HETATM   22  C   UNK N   1      31.338  13.645   2.757  0.00  0.00     0.030 A 
HETATM   23  C   UNK N   1      30.344  12.674   2.911  0.00  0.00     0.029 A 
HETATM   24  C   UNK N   1      29.534  12.715   4.054  0.00  0.00     0.030 A 
HETATM   25  C   UNK N   1      29.712  13.718   5.011  0.00  0.00     0.014 A 
BRANCH  23  26
HETATM   26  N   UNK N   1      30.152  11.670   1.915  0.00  0.00    -0.390 N 
HETATM   27  C   UNK N   1      30.247  11.991   0.513  0.00  0.00     0.149 C 
HETATM   28  C   UNK N   1      29.897  10.300   2.286  0.00  0.00     0.149 C 
ENDBRANCH  23  26
ENDBRANCH   2  20
TORSDOF 4
ENDMDL
