MODEL 1
REMARK VINA RESULT:      -5.8      0.000      0.000
REMARK  2 active torsions:
REMARK  status: ('A' for Active; 'I' for Inactive)
REMARK    1  A    between atoms: N_3  and  C_15 
REMARK       I    between atoms: N_5  and  C_16 
REMARK       I    between atoms: N_6  and  C_16 
REMARK    2  A    between atoms: C_13  and  C_15 
ROOT
HETATM    1  O   UNK N   1      36.211  12.043  13.415  0.00  0.00    -0.346 OA
HETATM    2  O   UNK N   1      35.861  13.699  15.015  0.00  0.00    -0.352 OA
HETATM    3  C   UNK N   1      35.736  12.331  14.709  0.00  0.00     0.164 A 
HETATM    4  C   UNK N   1      36.585  11.522  15.709  0.00  0.00     0.068 C 
HETATM    5  C   UNK N   1      34.244  11.963  14.776  0.00  0.00     0.068 C 
HETATM    6  C   UNK N   1      34.070  10.459  14.959  0.00  0.00     0.005 C 
HETATM    7  C   UNK N   1      35.746  10.948  16.848  0.00  0.00     0.005 C 
HETATM    8  C   UNK N   1      34.680   9.992  16.292  0.00  0.00     0.000 C 
HETATM    9  C   UNK N   1      36.559  13.259  12.837  0.00  0.00     0.167 A 
HETATM   10  C   UNK N   1      36.402  14.312  13.889  0.00  0.00     0.205 A 
ENDROOT
BRANCH   9  11
HETATM   11  C   UNK N   1      35.670  13.549  11.637  0.00  0.00     0.172 C 
BRANCH  11  12
HETATM   12  N   UNK N   1      35.771  14.951  11.307  0.00  0.00    -0.224 N 
HETATM   13  C   UNK N   1      34.762  15.656  10.932  0.00  0.00     0.665 C 
HETATM   14  N   UNK N   1      34.951  17.020  10.621  0.00  0.00    -0.235 N 
HETATM   15  N   UNK N   1      33.476  15.081  10.800  0.00  0.00    -0.235 N 
HETATM   16  H   UNK N   1      35.828  17.444  10.758  0.00  0.00     0.174 HD
HETATM   17  H   UNK N   1      34.202  17.550  10.264  0.00  0.00     0.174 HD
HETATM   18  H   UNK N   1      32.740  15.604  10.410  0.00  0.00     0.174 HD
HETATM   19  H   UNK N   1      33.318  14.156  11.099  0.00  0.00     0.174 HD
ATOM     20  HN  UNK N   1      36.683  15.404  11.376  1.00  0.00     0.177 HD
ENDBRANCH  11  12
ENDBRANCH   9  11
TORSDOF 2
ENDMDL
MODEL 2
REMARK VINA RESULT:      -5.7      1.990      3.029
REMARK  2 active torsions:
REMARK  status: ('A' for Active; 'I' for Inactive)
REMARK    1  A    between atoms: N_3  and  C_15 
REMARK       I    between atoms: N_5  and  C_16 
REMARK       I    between atoms: N_6  and  C_16 
REMARK    2  A    between atoms: C_13  and  C_15 
ROOT
HETATM    1  O   UNK N   1      34.812  13.405  14.521  0.00  0.00    -0.346 OA
HETATM    2  O   UNK N   1      35.820  11.606  15.603  0.00  0.00    -0.352 OA
HETATM    3  C   UNK N   1      35.580  12.992  15.626  0.00  0.00     0.164 A 
HETATM    4  C   UNK N   1      34.784  13.334  16.902  0.00  0.00     0.068 C 
HETATM    5  C   UNK N   1      36.939  13.712  15.575  0.00  0.00     0.068 C 
HETATM    6  C   UNK N   1      36.810  15.139  16.095  0.00  0.00     0.005 C 
HETATM    7  C   UNK N   1      35.680  13.860  18.019  0.00  0.00     0.005 C 
HETATM    8  C   UNK N   1      36.383  15.151  17.573  0.00  0.00     0.000 C 
HETATM    9  C   UNK N   1      34.635  12.284  13.717  0.00  0.00     0.167 A 
HETATM   10  C   UNK N   1      35.220  11.117  14.447  0.00  0.00     0.205 A 
ENDROOT
BRANCH   9  11
HETATM   11  C   UNK N   1      35.317  12.484  12.372  0.00  0.00     0.172 C 
BRANCH  11  12
HETATM   12  N   UNK N   1      34.626  13.525  11.647  0.00  0.00    -0.224 N 
HETATM   13  C   UNK N   1      35.054  14.737  11.587  0.00  0.00     0.665 C 
HETATM   14  N   UNK N   1      34.313  15.695  10.862  0.00  0.00    -0.235 N 
HETATM   15  N   UNK N   1      36.236  15.130  12.257  0.00  0.00    -0.235 N 
HETATM   16  H   UNK N   1      33.518  15.423  10.348  0.00  0.00     0.174 HD
HETATM   17  H   UNK N   1      34.591  16.639  10.869  0.00  0.00     0.174 HD
HETATM   18  H   UNK N   1      36.491  16.080  12.291  0.00  0.00     0.174 HD
HETATM   19  H   UNK N   1      36.804  14.452  12.690  0.00  0.00     0.174 HD
ATOM     20  HN  UNK N   1      33.762  13.288  11.159  1.00  0.00     0.177 HD
ENDBRANCH  11  12
ENDBRANCH   9  11
TORSDOF 2
ENDMDL
MODEL 3
REMARK VINA RESULT:      -5.7      1.307      2.022
REMARK  2 active torsions:
REMARK  status: ('A' for Active; 'I' for Inactive)
REMARK    1  A    between atoms: N_3  and  C_15 
REMARK       I    between atoms: N_5  and  C_16 
REMARK       I    between atoms: N_6  and  C_16 
REMARK    2  A    between atoms: C_13  and  C_15 
ROOT
HETATM    1  O   UNK N   1      34.746  12.802  14.045  0.00  0.00    -0.346 OA
HETATM    2  O   UNK N   1      36.933  12.004  14.096  0.00  0.00    -0.352 OA
HETATM    3  C   UNK N   1      35.793  12.325  14.856  0.00  0.00     0.164 A 
HETATM    4  C   UNK N   1      35.294  11.047  15.560  0.00  0.00     0.068 C 
HETATM    5  C   UNK N   1      36.181  13.429  15.855  0.00  0.00     0.068 C 
HETATM    6  C   UNK N   1      35.194  13.473  17.016  0.00  0.00     0.005 C 
HETATM    7  C   UNK N   1      35.762  10.965  17.010  0.00  0.00     0.005 C 
HETATM    8  C   UNK N   1      35.219  12.157  17.812  0.00  0.00     0.000 C 
HETATM    9  C   UNK N   1      35.248  12.884  12.751  0.00  0.00     0.167 A 
HETATM   10  C   UNK N   1      36.628  12.305  12.773  0.00  0.00     0.205 A 
ENDROOT
BRANCH   9  11
HETATM   11  C   UNK N   1      35.271  14.331  12.283  0.00  0.00     0.172 C 
BRANCH  11  12
HETATM   12  N   UNK N   1      34.246  14.517  11.283  0.00  0.00    -0.224 N 
HETATM   13  C   UNK N   1      34.120  15.603  10.605  0.00  0.00     0.665 C 
HETATM   14  N   UNK N   1      33.084  15.704   9.652  0.00  0.00    -0.235 N 
HETATM   15  N   UNK N   1      34.981  16.705  10.819  0.00  0.00    -0.235 N 
HETATM   16  H   UNK N   1      32.511  14.927   9.457  0.00  0.00     0.174 HD
HETATM   17  H   UNK N   1      32.932  16.554   9.179  0.00  0.00     0.174 HD
HETATM   18  H   UNK N   1      34.805  17.563  10.371  0.00  0.00     0.174 HD
HETATM   19  H   UNK N   1      35.758  16.612  11.417  0.00  0.00     0.174 HD
ATOM     20  HN  UNK N   1      33.594  13.752  11.106  1.00  0.00     0.177 HD
ENDBRANCH  11  12
ENDBRANCH   9  11
TORSDOF 2
ENDMDL
MODEL 4
REMARK VINA RESULT:      -5.6      5.964      9.325
REMARK  2 active torsions:
REMARK  status: ('A' for Active; 'I' for Inactive)
REMARK    1  A    between atoms: N_3  and  C_15 
REMARK       I    between atoms: N_5  and  C_16 
REMARK       I    between atoms: N_6  and  C_16 
REMARK    2  A    between atoms: C_13  and  C_15 
ROOT
HETATM    1  O   UNK N   1      32.123  16.921   6.678  0.00  0.00    -0.346 OA
HETATM    2  O   UNK N   1      34.249  17.656   6.077  0.00  0.00    -0.352 OA
HETATM    3  C   UNK N   1      33.111  16.934   5.674  0.00  0.00     0.164 A 
HETATM    4  C   UNK N   1      32.506  17.619   4.432  0.00  0.00     0.068 C 
HETATM    5  C   UNK N   1      33.541  15.485   5.391  0.00  0.00     0.068 C 
HETATM    6  C   UNK N   1      32.524  14.789   4.494  0.00  0.00     0.005 C 
HETATM    7  C   UNK N   1      32.924  16.935   3.134  0.00  0.00     0.005 C 
HETATM    8  C   UNK N   1      32.437  15.478   3.121  0.00  0.00     0.000 C 
HETATM    9  C   UNK N   1      32.669  17.562   7.785  0.00  0.00     0.167 A 
HETATM   10  C   UNK N   1      34.005  18.095   7.374  0.00  0.00     0.205 A 
ENDROOT
BRANCH   9  11
HETATM   11  C   UNK N   1      32.803  16.588   8.946  0.00  0.00     0.172 C 
BRANCH  11  12
HETATM   12  N   UNK N   1      34.106  16.752   9.546  0.00  0.00    -0.224 N 
HETATM   13  C   UNK N   1      34.548  15.982  10.478  0.00  0.00     0.665 C 
HETATM   14  N   UNK N   1      35.832  16.217  11.014  0.00  0.00    -0.235 N 
HETATM   15  N   UNK N   1      33.759  14.926  10.991  0.00  0.00    -0.235 N 
HETATM   16  H   UNK N   1      36.411  16.915  10.631  0.00  0.00     0.174 HD
HETATM   17  H   UNK N   1      36.151  15.680  11.776  0.00  0.00     0.174 HD
HETATM   18  H   UNK N   1      34.067  14.416  11.774  0.00  0.00     0.174 HD
HETATM   19  H   UNK N   1      32.901  14.701  10.563  0.00  0.00     0.174 HD
ATOM     20  HN  UNK N   1      34.704  17.510   9.215  1.00  0.00     0.177 HD
ENDBRANCH  11  12
ENDBRANCH   9  11
TORSDOF 2
ENDMDL
MODEL 5
REMARK VINA RESULT:      -5.5      6.112      8.818
REMARK  2 active torsions:
REMARK  status: ('A' for Active; 'I' for Inactive)
REMARK    1  A    between atoms: N_3  and  C_15 
REMARK       I    between atoms: N_5  and  C_16 
REMARK       I    between atoms: N_6  and  C_16 
REMARK    2  A    between atoms: C_13  and  C_15 
ROOT
HETATM    1  O   UNK N   1      32.298  17.470   6.976  0.00  0.00    -0.346 OA
HETATM    2  O   UNK N   1      31.141  15.451   7.081  0.00  0.00    -0.352 OA
HETATM    3  C   UNK N   1      31.080  16.841   7.297  0.00  0.00     0.164 A 
HETATM    4  C   UNK N   1      29.991  17.435   6.381  0.00  0.00     0.068 C 
HETATM    5  C   UNK N   1      30.784  17.078   8.787  0.00  0.00     0.068 C 
HETATM    6  C   UNK N   1      30.213  18.475   9.005  0.00  0.00     0.005 C 
HETATM    7  C   UNK N   1      28.672  17.652   7.117  0.00  0.00     0.005 C 
HETATM    8  C   UNK N   1      28.868  18.640   8.277  0.00  0.00     0.000 C 
HETATM    9  C   UNK N   1      33.193  16.460   6.639  0.00  0.00     0.167 A 
HETATM   10  C   UNK N   1      32.430  15.173   6.638  0.00  0.00     0.205 A 
ENDROOT
BRANCH   9  11
HETATM   11  C   UNK N   1      34.339  16.414   7.638  0.00  0.00     0.172 C 
BRANCH  11  12
HETATM   12  N   UNK N   1      33.977  15.538   8.727  0.00  0.00    -0.224 N 
HETATM   13  C   UNK N   1      34.171  15.841   9.963  0.00  0.00     0.665 C 
HETATM   14  N   UNK N   1      33.793  14.922  10.965  0.00  0.00    -0.235 N 
HETATM   15  N   UNK N   1      34.781  17.063  10.329  0.00  0.00    -0.235 N 
HETATM   16  H   UNK N   1      33.321  14.092  10.726  0.00  0.00     0.174 HD
HETATM   17  H   UNK N   1      34.002  15.111  11.908  0.00  0.00     0.174 HD
HETATM   18  H   UNK N   1      35.020  17.233  11.269  0.00  0.00     0.174 HD
HETATM   19  H   UNK N   1      34.966  17.745   9.644  0.00  0.00     0.174 HD
ATOM     20  HN  UNK N   1      33.546  14.639   8.507  1.00  0.00     0.177 HD
ENDBRANCH  11  12
ENDBRANCH   9  11
TORSDOF 2
ENDMDL
MODEL 6
REMARK VINA RESULT:      -5.4      7.884      9.942
REMARK  2 active torsions:
REMARK  status: ('A' for Active; 'I' for Inactive)
REMARK    1  A    between atoms: N_3  and  C_15 
REMARK       I    between atoms: N_5  and  C_16 
REMARK       I    between atoms: N_6  and  C_16 
REMARK    2  A    between atoms: C_13  and  C_15 
ROOT
HETATM    1  O   UNK N   1      32.205  17.924   7.271  0.00  0.00    -0.346 OA
HETATM    2  O   UNK N   1      31.946  15.609   7.296  0.00  0.00    -0.352 OA
HETATM    3  C   UNK N   1      32.238  16.739   6.510  0.00  0.00     0.164 A 
HETATM    4  C   UNK N   1      33.663  16.589   5.941  0.00  0.00     0.068 C 
HETATM    5  C   UNK N   1      31.175  16.838   5.403  0.00  0.00     0.068 C 
HETATM    6  C   UNK N   1      31.682  17.692   4.246  0.00  0.00     0.005 C 
HETATM    7  C   UNK N   1      33.662  16.071   4.506  0.00  0.00     0.005 C 
HETATM    8  C   UNK N   1      32.916  17.051   3.589  0.00  0.00     0.000 C 
HETATM    9  C   UNK N   1      31.788  17.566   8.549  0.00  0.00     0.167 A 
HETATM   10  C   UNK N   1      31.691  16.073   8.582  0.00  0.00     0.205 A 
ENDROOT
BRANCH   9  11
HETATM   11  C   UNK N   1      30.446  18.207   8.867  0.00  0.00     0.172 C 
BRANCH  11  12
HETATM   12  N   UNK N   1      29.391  17.288   8.509  0.00  0.00    -0.224 N 
HETATM   13  C   UNK N   1      28.152  17.631   8.462  0.00  0.00     0.665 C 
HETATM   14  N   UNK N   1      27.183  16.667   8.109  0.00  0.00    -0.235 N 
HETATM   15  N   UNK N   1      27.743  18.946   8.784  0.00  0.00    -0.235 N 
HETATM   16  H   UNK N   1      27.459  15.763   7.833  0.00  0.00     0.174 HD
HETATM   17  H   UNK N   1      26.227  16.898   8.140  0.00  0.00     0.174 HD
HETATM   18  H   UNK N   1      26.785  19.163   8.847  0.00  0.00     0.174 HD
HETATM   19  H   UNK N   1      28.418  19.645   8.944  0.00  0.00     0.174 HD
ATOM     20  HN  UNK N   1      29.640  16.325   8.282  1.00  0.00     0.177 HD
ENDBRANCH  11  12
ENDBRANCH   9  11
TORSDOF 2
ENDMDL
MODEL 7
REMARK VINA RESULT:      -5.3     12.679     13.901
REMARK  2 active torsions:
REMARK  status: ('A' for Active; 'I' for Inactive)
REMARK    1  A    between atoms: N_3  and  C_15 
REMARK       I    between atoms: N_5  and  C_16 
REMARK       I    between atoms: N_6  and  C_16 
REMARK    2  A    between atoms: C_13  and  C_15 
ROOT
HETATM    1  O   UNK N   1      22.441  14.173   8.283  0.00  0.00    -0.346 OA
HETATM    2  O   UNK N   1      20.808  12.570   7.850  0.00  0.00    -0.352 OA
HETATM    3  C   UNK N   1      21.779  13.025   8.760  0.00  0.00     0.164 A 
HETATM    4  C   UNK N   1      21.077  13.405  10.080  0.00  0.00     0.068 C 
HETATM    5  C   UNK N   1      22.816  11.906   8.951  0.00  0.00     0.068 C 
HETATM    6  C   UNK N   1      23.585  12.103  10.253  0.00  0.00     0.005 C 
HETATM    7  C   UNK N   1      21.174  12.298  11.126  0.00  0.00     0.005 C 
HETATM    8  C   UNK N   1      22.645  12.017  11.467  0.00  0.00     0.000 C 
HETATM    9  C   UNK N   1      21.958  14.407   6.999  0.00  0.00     0.167 A 
HETATM   10  C   UNK N   1      20.861  13.421   6.751  0.00  0.00     0.205 A 
ENDROOT
BRANCH   9  11
HETATM   11  C   UNK N   1      23.075  14.250   5.978  0.00  0.00     0.172 C 
BRANCH  11  12
HETATM   12  N   UNK N   1      24.086  15.249   6.232  0.00  0.00    -0.224 N 
HETATM   13  C   UNK N   1      25.200  14.982   6.819  0.00  0.00     0.665 C 
HETATM   14  N   UNK N   1      26.132  16.020   7.035  0.00  0.00    -0.235 N 
HETATM   15  N   UNK N   1      25.493  13.675   7.273  0.00  0.00    -0.235 N 
HETATM   16  H   UNK N   1      25.962  16.922   6.677  0.00  0.00     0.174 HD
HETATM   17  H   UNK N   1      26.954  15.843   7.545  0.00  0.00     0.174 HD
HETATM   18  H   UNK N   1      26.299  13.510   7.813  0.00  0.00     0.174 HD
HETATM   19  H   UNK N   1      24.891  12.929   7.049  0.00  0.00     0.174 HD
ATOM     20  HN  UNK N   1      23.910  16.208   5.933  1.00  0.00     0.177 HD
ENDBRANCH  11  12
ENDBRANCH   9  11
TORSDOF 2
ENDMDL
MODEL 8
REMARK VINA RESULT:      -5.2      6.320      9.235
REMARK  2 active torsions:
REMARK  status: ('A' for Active; 'I' for Inactive)
REMARK    1  A    between atoms: N_3  and  C_15 
REMARK       I    between atoms: N_5  and  C_16 
REMARK       I    between atoms: N_6  and  C_16 
REMARK    2  A    between atoms: C_13  and  C_15 
ROOT
HETATM    1  O   UNK N   1      33.420  17.385   7.041  0.00  0.00    -0.346 OA
HETATM    2  O   UNK N   1      33.919  15.598   5.633  0.00  0.00    -0.352 OA
HETATM    3  C   UNK N   1      33.015  16.638   5.918  0.00  0.00     0.164 A 
HETATM    4  C   UNK N   1      32.971  17.597   4.711  0.00  0.00     0.068 C 
HETATM    5  C   UNK N   1      31.643  16.009   6.215  0.00  0.00     0.068 C 
HETATM    6  C   UNK N   1      30.532  17.037   6.034  0.00  0.00     0.005 C 
HETATM    7  C   UNK N   1      31.775  17.327   3.802  0.00  0.00     0.005 C 
HETATM    8  C   UNK N   1      30.464  17.524   4.577  0.00  0.00     0.000 C 
HETATM    9  C   UNK N   1      34.552  16.757   7.551  0.00  0.00     0.167 A 
HETATM   10  C   UNK N   1      34.912  15.655   6.605  0.00  0.00     0.205 A 
ENDROOT
BRANCH   9  11
HETATM   11  C   UNK N   1      34.273  16.213   8.944  0.00  0.00     0.172 C 
BRANCH  11  12
HETATM   12  N   UNK N   1      33.882  14.828   8.836  0.00  0.00    -0.224 N 
HETATM   13  C   UNK N   1      32.792  14.368   9.343  0.00  0.00     0.665 C 
HETATM   14  N   UNK N   1      32.489  12.997   9.197  0.00  0.00    -0.235 N 
HETATM   15  N   UNK N   1      31.910  15.205  10.065  0.00  0.00    -0.235 N 
HETATM   16  H   UNK N   1      33.068  12.415   8.653  0.00  0.00     0.174 HD
HETATM   17  H   UNK N   1      31.696  12.620   9.642  0.00  0.00     0.174 HD
HETATM   18  H   UNK N   1      31.138  14.818  10.537  0.00  0.00     0.174 HD
HETATM   19  H   UNK N   1      32.069  16.177  10.096  0.00  0.00     0.174 HD
ATOM     20  HN  UNK N   1      34.496  14.185   8.334  1.00  0.00     0.177 HD
ENDBRANCH  11  12
ENDBRANCH   9  11
TORSDOF 2
ENDMDL
MODEL 9
REMARK VINA RESULT:      -5.2     13.382     14.583
REMARK  2 active torsions:
REMARK  status: ('A' for Active; 'I' for Inactive)
REMARK    1  A    between atoms: N_3  and  C_15 
REMARK       I    between atoms: N_5  and  C_16 
REMARK       I    between atoms: N_6  and  C_16 
REMARK    2  A    between atoms: C_13  and  C_15 
ROOT
HETATM    1  O   UNK N   1      22.043  14.530   8.389  0.00  0.00    -0.346 OA
HETATM    2  O   UNK N   1      20.778  12.670   7.783  0.00  0.00    -0.352 OA
HETATM    3  C   UNK N   1      21.595  13.250   8.771  0.00  0.00     0.164 A 
HETATM    4  C   UNK N   1      20.768  13.411  10.062  0.00  0.00     0.068 C 
HETATM    5  C   UNK N   1      22.820  12.342   8.971  0.00  0.00     0.068 C 
HETATM    6  C   UNK N   1      23.470  12.607  10.324  0.00  0.00     0.005 C 
HETATM    7  C   UNK N   1      21.026  12.284  11.058  0.00  0.00     0.005 C 
HETATM    8  C   UNK N   1      22.505  12.272  11.474  0.00  0.00     0.000 C 
HETATM    9  C   UNK N   1      21.589  14.740   7.091  0.00  0.00     0.167 A 
HETATM   10  C   UNK N   1      20.719  13.578   6.731  0.00  0.00     0.205 A 
ENDROOT
BRANCH   9  11
HETATM   11  C   UNK N   1      22.764  14.861   6.133  0.00  0.00     0.172 C 
BRANCH  11  12
HETATM   12  N   UNK N   1      23.320  16.189   6.238  0.00  0.00    -0.224 N 
HETATM   13  C   UNK N   1      23.226  17.063   5.298  0.00  0.00     0.665 C 
HETATM   14  N   UNK N   1      23.805  18.337   5.481  0.00  0.00    -0.235 N 
HETATM   15  N   UNK N   1      22.578  16.759   4.078  0.00  0.00    -0.235 N 
HETATM   16  H   UNK N   1      24.213  18.578   6.344  0.00  0.00     0.174 HD
HETATM   17  H   UNK N   1      23.802  18.988   4.742  0.00  0.00     0.174 HD
HETATM   18  H   UNK N   1      22.607  17.399   3.331  0.00  0.00     0.174 HD
HETATM   19  H   UNK N   1      22.096  15.906   3.977  0.00  0.00     0.174 HD
ATOM     20  HN  UNK N   1      23.808  16.447   7.097  1.00  0.00     0.177 HD
ENDBRANCH  11  12
ENDBRANCH   9  11
TORSDOF 2
ENDMDL
