REMARK  2 active torsions:
REMARK  status: ('A' for Active; 'I' for Inactive)
REMARK    1  A    between atoms: N_3  and  C_15 
REMARK       I    between atoms: N_5  and  C_16 
REMARK       I    between atoms: N_6  and  C_16 
REMARK    2  A    between atoms: C_13  and  C_15 
ROOT
HETATM    1  O   UNK N   1       3.620  -0.460  -0.911  0.00  0.00    -0.346 OA
HETATM    2  O   UNK N   1       3.633  -2.029   0.810  0.00  0.00    -0.352 OA
HETATM    3  C   UNK N   1       2.843  -1.168   0.026  0.00  0.00     0.164 A 
HETATM    4  C   UNK N   1       1.821  -2.015  -0.759  0.00  0.00     0.068 C 
HETATM    5  C   UNK N   1       2.165  -0.156   0.965  0.00  0.00     0.068 C 
HETATM    6  C   UNK N   1       0.942   0.461   0.296  0.00  0.00     0.005 C 
HETATM    7  C   UNK N   1       0.450  -2.034  -0.089  0.00  0.00     0.005 C 
HETATM    8  C   UNK N   1      -0.120  -0.610  -0.006  0.00  0.00     0.000 C 
HETATM    9  C   UNK N   1       4.947  -0.795  -0.664  0.00  0.00     0.167 A 
HETATM   10  C   UNK N   1       4.948  -1.855   0.392  0.00  0.00     0.205 A 
ENDROOT
BRANCH   9  11
HETATM   11  C   UNK N   1       5.726   0.430  -0.209  0.00  0.00     0.172 C 
BRANCH  11  12
HETATM   12  N   UNK N   1       7.118   0.074  -0.068  0.00  0.00    -0.224 N 
HETATM   13  C   UNK N   1       8.057   0.949   0.026  0.00  0.00     0.665 C 
HETATM   14  N   UNK N   1       9.394   0.514   0.154  0.00  0.00    -0.235 N 
HETATM   15  N   UNK N   1       7.775   2.334  -0.025  0.00  0.00    -0.235 N 
HETATM   16  H   UNK N   1       9.598  -0.445   0.243  0.00  0.00     0.174 HD
HETATM   17  H   UNK N   1      10.126   1.172   0.154  0.00  0.00     0.174 HD
HETATM   18  H   UNK N   1       8.511   2.986  -0.060  0.00  0.00     0.174 HD
HETATM   19  H   UNK N   1       6.841   2.646  -0.025  0.00  0.00     0.174 HD
ATOM     20  HN  UNK N   1       7.368  -0.915  -0.040  1.00  0.00     0.177 HD
ENDBRANCH  11  12
ENDBRANCH   9  11
TORSDOF 2
