MODEL 1
REMARK VINA RESULT:      -7.7      0.000      0.000
REMARK  10 active torsions:
REMARK  status: ('A' for Active; 'I' for Inactive)
REMARK    1  A    between atoms: C_17  and  O_1 
REMARK    2  A    between atoms: C_19  and  O_2 
REMARK    3  A    between atoms: O_4  and  C_33 
REMARK    4  A    between atoms: O_5  and  C_38 
REMARK    5  A    between atoms: C_42  and  O_7 
REMARK       I    between atoms: N_10  and  C_27 
REMARK    6  A    between atoms: C_16  and  C_22 
REMARK    7  A    between atoms: C_17  and  C_27 
REMARK    8  A    between atoms: C_32  and  C_34 
REMARK    9  A    between atoms: C_34  and  C_38 
REMARK   10  A    between atoms: C_42  and  C_49 
ROOT
HETATM    1  N   UNK N   1      28.124  14.235   4.122  0.00  0.00     0.098 N 
HETATM    2  N   UNK N   1      25.363  17.953   4.722  0.00  0.00    -0.375 N 
HETATM    3  C   UNK N   1      26.776  16.011   4.957  0.00  0.00     0.047 C 
HETATM    4  C   UNK N   1      28.062  15.719   4.182  0.00  0.00     0.253 C 
HETATM    5  C   UNK N   1      26.556  17.508   5.431  0.00  0.00     0.146 C 
HETATM    6  C   UNK N   1      29.351  16.383   4.848  0.00  0.00     0.038 C 
HETATM    7  C   UNK N   1      27.779  18.417   5.162  0.00  0.00     0.186 C 
HETATM    8  C   UNK N   1      26.863  14.978   6.063  0.00  0.00     0.049 C 
HETATM    9  C   UNK N   1      29.028  17.672   5.668  0.00  0.00     0.178 C 
HETATM   10  C   UNK N   1      25.527  15.781   4.156  0.00  0.00    -0.018 C 
HETATM   11  C   UNK N   1      27.431  13.752   5.333  0.00  0.00     0.274 C 
HETATM   12  C   UNK N   1      24.800  16.902   4.022  0.00  0.00     0.040 C 
HETATM   13  C   UNK N   1      30.118  15.397   5.713  0.00  0.00    -0.015 C 
HETATM   14  C   UNK N   1      29.494  13.698   4.091  0.00  0.00     0.300 C 
HETATM   15  C   UNK N   1      30.241  14.128   5.320  0.00  0.00    -0.000 C 
HETATM   16  C   UNK N   1      24.994  14.563   3.837  0.00  0.00     0.022 C 
HETATM   17  C   UNK N   1      24.616  19.140   5.052  0.00  0.00     0.150 C 
HETATM   18  C   UNK N   1      23.558  16.902   3.413  0.00  0.00     0.067 C 
HETATM   19  C   UNK N   1      23.658  14.447   3.415  0.00  0.00     0.000 C 
HETATM   20  C   UNK N   1      22.962  15.672   3.072  0.00  0.00     0.078 C 
ENDROOT
BRANCH  19  21
HETATM   21  C   UNK N   1      23.071  13.024   3.694  0.00  0.00     0.121 C 
HETATM   22  C   UNK N   1      23.276  12.213   4.981  0.00  0.00     0.038 C 
HETATM   23  C   UNK N   1      23.479  12.831   6.318  0.00  0.00     0.018 C 
HETATM   24  C   UNK N   1      23.760  11.721   7.327  0.00  0.00     0.046 C 
HETATM   25  C   UNK N   1      22.208  13.629   6.675  0.00  0.00     0.277 C 
HETATM   26  C   UNK N   1      23.160  12.070   8.680  0.00  0.00     0.084 C 
HETATM   27  C   UNK N   1      21.622  12.099   8.476  0.00  0.00     0.310 C 
HETATM   28  N   UNK N   1      21.168  12.757   7.227  0.00  0.00     0.092 N 
HETATM   29  C   UNK N   1      20.753  11.771   6.214  0.00  0.00     0.277 C 
HETATM   30  C   UNK N   1      19.953  12.490   5.131  0.00  0.00     0.072 C 
HETATM   31  C   UNK N   1      20.428  12.517   3.687  0.00  0.00    -0.020 A 
HETATM   32  C   UNK N   1      21.679  12.817   3.087  0.00  0.00     0.040 A 
HETATM   33  C   UNK N   1      19.560  12.301   2.624  0.00  0.00    -0.001 A 
HETATM   34  N   UNK N   1      21.534  12.829   1.730  0.00  0.00    -0.357 N 
HETATM   35  C   UNK N   1      20.269  12.511   1.475  0.00  0.00     0.043 A 
HETATM   36  H   UNK N   1      22.232  13.035   1.067  0.00  0.00     0.166 HD
HETATM   37  C   UNK N   1      19.689  12.386   0.211  0.00  0.00     0.030 A 
HETATM   38  C   UNK N   1      18.336  12.019   0.146  0.00  0.00     0.002 A 
HETATM   39  C   UNK N   1      17.601  11.796   1.332  0.00  0.00     0.001 A 
HETATM   40  C   UNK N   1      18.215  11.947   2.593  0.00  0.00     0.014 A 
BRANCH  26  41
HETATM   41  O   UNK N   1      23.480  11.074   9.600  0.00  0.00    -0.388 OA
HETATM   42  H   UNK N   1      23.379  11.037  10.564  0.00  0.00     0.210 HD
ENDBRANCH  26  41
BRANCH  26  43
HETATM   43  C   UNK N   1      23.684  13.422   9.209  0.00  0.00     0.035 C 
HETATM   44  C   UNK N   1      25.149  13.361   9.631  0.00  0.00     0.008 C 
ENDBRANCH  26  43
BRANCH  21  45
HETATM   45  C   UNK N   1      24.079  12.137   2.915  0.00  0.00     0.278 C 
HETATM   46  O   UNK N   1      24.590  11.143   3.422  0.00  0.00    -0.264 OA
BRANCH  45  47
HETATM   47  O   UNK N   1      24.319  12.425   1.606  0.00  0.00    -0.325 OA
HETATM   48  C   UNK N   1      24.744  11.483   0.700  0.00  0.00     0.213 C 
ENDBRANCH  45  47
ENDBRANCH  21  45
ENDBRANCH  19  21
BRANCH  20  49
HETATM   49  O   UNK N   1      21.739  15.691   2.508  0.00  0.00    -0.355 OA
HETATM   50  C   UNK N   1      20.668  16.405   3.011  0.00  0.00     0.210 C 
ENDBRANCH  20  49
BRANCH   6  51
HETATM   51  C   UNK N   1      30.293  16.777   3.692  0.00  0.00     0.014 C 
HETATM   52  C   UNK N   1      31.582  17.446   4.161  0.00  0.00     0.006 C 
ENDBRANCH   6  51
BRANCH   7  53
HETATM   53  O   UNK N   1      27.891  18.650   3.786  0.00  0.00    -0.376 OA
HETATM   54  H   UNK N   1      27.739  18.831   2.845  0.00  0.00     0.211 HD
ENDBRANCH   7  53
BRANCH   7  55
HETATM   55  C   UNK N   1      27.697  19.761   5.865  0.00  0.00     0.255 C 
HETATM   56  O   UNK N   1      27.898  20.782   5.228  0.00  0.00    -0.270 OA
HETATM   57  N   UNK N   1      27.447  19.852   7.187  0.00  0.00    -0.367 N 
HETATM   58  H   UNK N   1      27.767  20.510   7.845  0.00  0.00     0.159 HD
HETATM   59  H   UNK N   1      26.854  19.154   7.549  0.00  0.00     0.159 HD
ENDBRANCH   7  55
BRANCH   9  60
HETATM   60  O   UNK N   1      28.866  17.384   7.033  0.00  0.00    -0.391 OA
HETATM   61  H   UNK N   1      28.843  17.010   7.928  0.00  0.00     0.210 HD
ENDBRANCH   9  60
TORSDOF 10
ENDMDL
MODEL 2
REMARK VINA RESULT:      -7.6      7.151     12.976
REMARK  10 active torsions:
REMARK  status: ('A' for Active; 'I' for Inactive)
REMARK    1  A    between atoms: C_17  and  O_1 
REMARK    2  A    between atoms: C_19  and  O_2 
REMARK    3  A    between atoms: O_4  and  C_33 
REMARK    4  A    between atoms: O_5  and  C_38 
REMARK    5  A    between atoms: C_42  and  O_7 
REMARK       I    between atoms: N_10  and  C_27 
REMARK    6  A    between atoms: C_16  and  C_22 
REMARK    7  A    between atoms: C_17  and  C_27 
REMARK    8  A    between atoms: C_32  and  C_34 
REMARK    9  A    between atoms: C_34  and  C_38 
REMARK   10  A    between atoms: C_42  and  C_49 
ROOT
HETATM    1  N   UNK N   1      32.062  11.819   5.330  0.00  0.00     0.098 N 
HETATM    2  N   UNK N   1      32.739  16.188   6.832  0.00  0.00    -0.375 N 
HETATM    3  C   UNK N   1      32.811  14.044   5.728  0.00  0.00     0.047 C 
HETATM    4  C   UNK N   1      31.612  13.232   5.233  0.00  0.00     0.253 C 
HETATM    5  C   UNK N   1      32.754  15.610   5.495  0.00  0.00     0.146 C 
HETATM    6  C   UNK N   1      31.145  13.651   3.766  0.00  0.00     0.038 C 
HETATM    7  C   UNK N   1      31.540  16.055   4.644  0.00  0.00     0.186 C 
HETATM    8  C   UNK N   1      33.954  13.318   5.046  0.00  0.00     0.049 C 
HETATM    9  C   UNK N   1      31.478  15.135   3.411  0.00  0.00     0.178 C 
HETATM   10  C   UNK N   1      33.000  13.986   7.217  0.00  0.00    -0.018 C 
HETATM   11  C   UNK N   1      33.528  11.847   5.149  0.00  0.00     0.274 C 
HETATM   12  C   UNK N   1      32.910  15.200   7.784  0.00  0.00     0.040 C 
HETATM   13  C   UNK N   1      31.709  12.725   2.701  0.00  0.00    -0.015 C 
HETATM   14  C   UNK N   1      31.458  10.932   4.323  0.00  0.00     0.300 C 
HETATM   15  C   UNK N   1      31.799  11.416   2.943  0.00  0.00    -0.000 C 
HETATM   16  C   UNK N   1      33.497  12.923   7.919  0.00  0.00     0.022 C 
HETATM   17  C   UNK N   1      32.983  17.579   7.121  0.00  0.00     0.150 C 
HETATM   18  C   UNK N   1      33.157  15.400   9.130  0.00  0.00     0.067 C 
HETATM   19  C   UNK N   1      33.977  13.086   9.231  0.00  0.00     0.000 C 
HETATM   20  C   UNK N   1      33.677  14.338   9.896  0.00  0.00     0.078 C 
ENDROOT
BRANCH  19  21
HETATM   21  C   UNK N   1      35.024  11.989   9.617  0.00  0.00     0.121 C 
HETATM   22  C   UNK N   1      36.220  11.557   8.758  0.00  0.00     0.038 C 
HETATM   23  C   UNK N   1      36.922  12.464   7.812  0.00  0.00     0.018 C 
HETATM   24  C   UNK N   1      37.976  11.657   7.059  0.00  0.00     0.046 C 
HETATM   25  C   UNK N   1      37.550  13.614   8.628  0.00  0.00     0.277 C 
HETATM   26  C   UNK N   1      39.200  12.514   6.779  0.00  0.00     0.084 C 
HETATM   27  C   UNK N   1      39.815  12.855   8.162  0.00  0.00     0.310 C 
HETATM   28  N   UNK N   1      38.832  13.216   9.212  0.00  0.00     0.092 N 
HETATM   29  C   UNK N   1      38.626  12.112  10.165  0.00  0.00     0.277 C 
HETATM   30  C   UNK N   1      37.926  12.661  11.406  0.00  0.00     0.072 C 
HETATM   31  C   UNK N   1      36.554  12.157  11.825  0.00  0.00    -0.020 A 
HETATM   32  C   UNK N   1      35.340  11.960  11.117  0.00  0.00     0.040 A 
HETATM   33  C   UNK N   1      36.252  11.862  13.148  0.00  0.00    -0.001 A 
HETATM   34  N   UNK N   1      34.356  11.616  11.999  0.00  0.00    -0.357 N 
HETATM   35  C   UNK N   1      34.922  11.555  13.201  0.00  0.00     0.043 A 
HETATM   36  H   UNK N   1      33.410  11.448  11.787  0.00  0.00     0.166 HD
HETATM   37  C   UNK N   1      34.285  11.216  14.396  0.00  0.00     0.030 A 
HETATM   38  C   UNK N   1      35.060  11.185  15.565  0.00  0.00     0.002 A 
HETATM   39  C   UNK N   1      36.438  11.496  15.514  0.00  0.00     0.001 A 
HETATM   40  C   UNK N   1      37.047  11.850  14.291  0.00  0.00     0.014 A 
BRANCH  26  41
HETATM   41  O   UNK N   1      40.122  11.778   6.038  0.00  0.00    -0.388 OA
HETATM   42  H   UNK N   1      41.006  11.446   6.264  0.00  0.00     0.210 HD
ENDBRANCH  26  41
BRANCH  26  43
HETATM   43  C   UNK N   1      38.839  13.792   5.992  0.00  0.00     0.035 C 
HETATM   44  C   UNK N   1      38.368  13.496   4.572  0.00  0.00     0.008 C 
ENDBRANCH  26  43
BRANCH  21  45
HETATM   45  C   UNK N   1      34.237  10.699   9.260  0.00  0.00     0.278 C 
HETATM   46  O   UNK N   1      34.734   9.809   8.576  0.00  0.00    -0.264 OA
BRANCH  45  47
HETATM   47  O   UNK N   1      33.002  10.522   9.806  0.00  0.00    -0.325 OA
HETATM   48  C   UNK N   1      32.320   9.330   9.733  0.00  0.00     0.213 C 
ENDBRANCH  45  47
ENDBRANCH  21  45
ENDBRANCH  19  21
BRANCH  20  49
HETATM   49  O   UNK N   1      33.940  14.562  11.199  0.00  0.00    -0.355 OA
HETATM   50  C   UNK N   1      34.937  15.403  11.653  0.00  0.00     0.210 C 
ENDBRANCH  20  49
BRANCH   6  51
HETATM   51  C   UNK N   1      29.612  13.484   3.725  0.00  0.00     0.014 C 
HETATM   52  C   UNK N   1      28.961  14.154   2.518  0.00  0.00     0.006 C 
ENDBRANCH   6  51
BRANCH   7  53
HETATM   53  O   UNK N   1      30.368  15.916   5.398  0.00  0.00    -0.376 OA
HETATM   54  H   UNK N   1      29.477  15.982   5.776  0.00  0.00     0.211 HD
ENDBRANCH   7  53
BRANCH   7  55
HETATM   55  C   UNK N   1      31.630  17.495   4.171  0.00  0.00     0.255 C 
HETATM   56  O   UNK N   1      32.705  17.937   3.801  0.00  0.00    -0.270 OA
HETATM   57  N   UNK N   1      30.556  18.313   4.187  0.00  0.00    -0.367 N 
HETATM   58  H   UNK N   1      30.505  19.283   4.342  0.00  0.00     0.159 HD
HETATM   59  H   UNK N   1      29.692  17.870   4.019  0.00  0.00     0.159 HD
ENDBRANCH   7  55
BRANCH   9  60
HETATM   60  O   UNK N   1      32.689  15.234   2.707  0.00  0.00    -0.391 OA
HETATM   61  H   UNK N   1      33.606  15.227   2.390  0.00  0.00     0.210 HD
ENDBRANCH   9  60
TORSDOF 10
ENDMDL
MODEL 3
REMARK VINA RESULT:      -7.5      2.465      8.248
REMARK  10 active torsions:
REMARK  status: ('A' for Active; 'I' for Inactive)
REMARK    1  A    between atoms: C_17  and  O_1 
REMARK    2  A    between atoms: C_19  and  O_2 
REMARK    3  A    between atoms: O_4  and  C_33 
REMARK    4  A    between atoms: O_5  and  C_38 
REMARK    5  A    between atoms: C_42  and  O_7 
REMARK       I    between atoms: N_10  and  C_27 
REMARK    6  A    between atoms: C_16  and  C_22 
REMARK    7  A    between atoms: C_17  and  C_27 
REMARK    8  A    between atoms: C_32  and  C_34 
REMARK    9  A    between atoms: C_34  and  C_38 
REMARK   10  A    between atoms: C_42  and  C_49 
ROOT
HETATM    1  N   UNK N   1      21.600  15.183   3.054  0.00  0.00     0.098 N 
HETATM    2  N   UNK N   1      23.325  13.628   7.105  0.00  0.00    -0.375 N 
HETATM    3  C   UNK N   1      22.497  14.921   5.244  0.00  0.00     0.047 C 
HETATM    4  C   UNK N   1      21.275  14.601   4.382  0.00  0.00     0.253 C 
HETATM    5  C   UNK N   1      22.353  14.670   6.803  0.00  0.00     0.146 C 
HETATM    6  C   UNK N   1      19.915  15.157   5.004  0.00  0.00     0.038 C 
HETATM    7  C   UNK N   1      20.916  14.282   7.226  0.00  0.00     0.186 C 
HETATM    8  C   UNK N   1      22.774  16.354   4.832  0.00  0.00     0.049 C 
HETATM    9  C   UNK N   1      19.952  15.282   6.560  0.00  0.00     0.178 C 
HETATM   10  C   UNK N   1      23.693  14.070   4.929  0.00  0.00    -0.018 C 
HETATM   11  C   UNK N   1      22.492  16.329   3.323  0.00  0.00     0.274 C 
HETATM   12  C   UNK N   1      24.086  13.342   5.987  0.00  0.00     0.040 C 
HETATM   13  C   UNK N   1      19.507  16.485   4.388  0.00  0.00    -0.015 C 
HETATM   14  C   UNK N   1      20.422  15.641   2.301  0.00  0.00     0.300 C 
HETATM   15  C   UNK N   1      19.690  16.693   3.084  0.00  0.00    -0.000 C 
HETATM   16  C   UNK N   1      24.500  14.198   3.833  0.00  0.00     0.022 C 
HETATM   17  C   UNK N   1      23.758  13.280   8.435  0.00  0.00     0.150 C 
HETATM   18  C   UNK N   1      25.231  12.566   5.959  0.00  0.00     0.067 C 
HETATM   19  C   UNK N   1      25.781  13.618   3.807  0.00  0.00     0.000 C 
HETATM   20  C   UNK N   1      26.100  12.668   4.854  0.00  0.00     0.078 C 
ENDROOT
BRANCH  19  21
HETATM   21  C   UNK N   1      26.742  14.353   2.815  0.00  0.00     0.121 C 
HETATM   22  C   UNK N   1      27.127  15.837   2.883  0.00  0.00     0.038 C 
HETATM   23  C   UNK N   1      27.193  16.612   4.151  0.00  0.00     0.018 C 
HETATM   24  C   UNK N   1      27.495  18.069   3.812  0.00  0.00     0.046 C 
HETATM   25  C   UNK N   1      28.288  15.985   5.039  0.00  0.00     0.277 C 
HETATM   26  C   UNK N   1      28.372  18.692   4.888  0.00  0.00     0.084 C 
HETATM   27  C   UNK N   1      29.727  17.938   4.832  0.00  0.00     0.310 C 
HETATM   28  N   UNK N   1      29.619  16.468   4.665  0.00  0.00     0.092 N 
HETATM   29  C   UNK N   1      29.933  16.053   3.288  0.00  0.00     0.277 C 
HETATM   30  C   UNK N   1      30.180  14.546   3.275  0.00  0.00     0.072 C 
HETATM   31  C   UNK N   1      29.304  13.610   2.458  0.00  0.00    -0.020 A 
HETATM   32  C   UNK N   1      27.897  13.470   2.330  0.00  0.00     0.040 A 
HETATM   33  C   UNK N   1      29.840  12.582   1.693  0.00  0.00    -0.001 A 
HETATM   34  N   UNK N   1      27.623  12.373   1.566  0.00  0.00    -0.357 N 
HETATM   35  C   UNK N   1      28.792  11.864   1.190  0.00  0.00     0.043 A 
HETATM   36  H   UNK N   1      26.731  12.024   1.339  0.00  0.00     0.166 HD
HETATM   37  C   UNK N   1      28.981  10.745   0.377  0.00  0.00     0.030 A 
HETATM   38  C   UNK N   1      30.299  10.373   0.071  0.00  0.00     0.002 A 
HETATM   39  C   UNK N   1      31.386  11.117   0.585  0.00  0.00     0.001 A 
HETATM   40  C   UNK N   1      31.159  12.234   1.417  0.00  0.00     0.014 A 
BRANCH  26  41
HETATM   41  O   UNK N   1      28.585  20.036   4.592  0.00  0.00    -0.388 OA
HETATM   42  H   UNK N   1      28.046  20.823   4.766  0.00  0.00     0.210 HD
ENDBRANCH  26  41
BRANCH  26  43
HETATM   43  C   UNK N   1      27.727  18.588   6.286  0.00  0.00     0.035 C 
HETATM   44  C   UNK N   1      27.437  19.952   6.904  0.00  0.00     0.008 C 
ENDBRANCH  26  43
BRANCH  21  45
HETATM   45  C   UNK N   1      25.786  14.605   1.618  0.00  0.00     0.278 C 
HETATM   46  O   UNK N   1      25.745  15.687   1.042  0.00  0.00    -0.264 OA
BRANCH  45  47
HETATM   47  O   UNK N   1      25.051  13.560   1.145  0.00  0.00    -0.325 OA
HETATM   48  C   UNK N   1      23.885  13.730   0.438  0.00  0.00     0.213 C 
ENDBRANCH  45  47
ENDBRANCH  21  45
ENDBRANCH  19  21
BRANCH  20  49
HETATM   49  O   UNK N   1      27.225  11.926   4.858  0.00  0.00    -0.355 OA
HETATM   50  C   UNK N   1      27.262  10.577   4.563  0.00  0.00     0.210 C 
ENDBRANCH  20  49
BRANCH   6  51
HETATM   51  C   UNK N   1      18.811  14.144   4.634  0.00  0.00     0.014 C 
HETATM   52  C   UNK N   1      19.353  12.850   4.032  0.00  0.00     0.006 C 
ENDBRANCH   6  51
BRANCH   7  53
HETATM   53  O   UNK N   1      20.635  12.984   6.781  0.00  0.00    -0.376 OA
HETATM   54  H   UNK N   1      20.536  12.025   6.676  0.00  0.00     0.211 HD
ENDBRANCH   7  53
BRANCH   7  55
HETATM   55  C   UNK N   1      20.698  14.325   8.729  0.00  0.00     0.255 C 
HETATM   56  O   UNK N   1      20.312  13.322   9.306  0.00  0.00    -0.270 OA
HETATM   57  N   UNK N   1      20.883  15.458   9.438  0.00  0.00    -0.367 N 
HETATM   58  H   UNK N   1      20.414  15.784  10.239  0.00  0.00     0.159 HD
HETATM   59  H   UNK N   1      21.595  16.050   9.101  0.00  0.00     0.159 HD
ENDBRANCH   7  55
BRANCH   9  60
HETATM   60  O   UNK N   1      20.295  16.582   6.963  0.00  0.00    -0.391 OA
HETATM   61  H   UNK N   1      20.528  17.521   7.042  0.00  0.00     0.210 HD
ENDBRANCH   9  60
TORSDOF 10
ENDMDL
MODEL 4
REMARK VINA RESULT:      -7.2      4.143      9.649
REMARK  10 active torsions:
REMARK  status: ('A' for Active; 'I' for Inactive)
REMARK    1  A    between atoms: C_17  and  O_1 
REMARK    2  A    between atoms: C_19  and  O_2 
REMARK    3  A    between atoms: O_4  and  C_33 
REMARK    4  A    between atoms: O_5  and  C_38 
REMARK    5  A    between atoms: C_42  and  O_7 
REMARK       I    between atoms: N_10  and  C_27 
REMARK    6  A    between atoms: C_16  and  C_22 
REMARK    7  A    between atoms: C_17  and  C_27 
REMARK    8  A    between atoms: C_32  and  C_34 
REMARK    9  A    between atoms: C_34  and  C_38 
REMARK   10  A    between atoms: C_42  and  C_49 
ROOT
HETATM    1  N   UNK N   1      28.493  13.066   4.696  0.00  0.00     0.098 N 
HETATM    2  N   UNK N   1      28.306  17.583   5.863  0.00  0.00    -0.375 N 
HETATM    3  C   UNK N   1      28.474  15.446   4.756  0.00  0.00     0.047 C 
HETATM    4  C   UNK N   1      27.604  14.214   5.014  0.00  0.00     0.253 C 
HETATM    5  C   UNK N   1      27.734  16.848   4.743  0.00  0.00     0.146 C 
HETATM    6  C   UNK N   1      26.251  14.223   4.169  0.00  0.00     0.038 C 
HETATM    7  C   UNK N   1      26.194  16.724   4.839  0.00  0.00     0.186 C 
HETATM    8  C   UNK N   1      29.158  15.052   3.462  0.00  0.00     0.049 C 
HETATM    9  C   UNK N   1      25.752  15.660   3.818  0.00  0.00     0.178 C 
HETATM   10  C   UNK N   1      29.510  15.682   5.817  0.00  0.00    -0.018 C 
HETATM   11  C   UNK N   1      29.437  13.557   3.672  0.00  0.00     0.274 C 
HETATM   12  C   UNK N   1      29.344  16.867   6.428  0.00  0.00     0.040 C 
HETATM   13  C   UNK N   1      26.363  13.390   2.904  0.00  0.00    -0.015 C 
HETATM   14  C   UNK N   1      27.779  11.886   4.183  0.00  0.00     0.300 C 
HETATM   15  C   UNK N   1      27.039  12.240   2.926  0.00  0.00    -0.000 C 
HETATM   16  C   UNK N   1      30.664  14.969   5.982  0.00  0.00     0.022 C 
HETATM   17  C   UNK N   1      28.154  19.002   6.068  0.00  0.00     0.150 C 
HETATM   18  C   UNK N   1      30.246  17.341   7.365  0.00  0.00     0.067 C 
HETATM   19  C   UNK N   1      31.727  15.481   6.747  0.00  0.00     0.000 C 
HETATM   20  C   UNK N   1      31.454  16.645   7.565  0.00  0.00     0.078 C 
ENDROOT
BRANCH  19  21
HETATM   21  C   UNK N   1      33.105  14.871   6.326  0.00  0.00     0.121 C 
HETATM   22  C   UNK N   1      34.359  14.808   7.209  0.00  0.00     0.038 C 
HETATM   23  C   UNK N   1      34.314  14.708   8.692  0.00  0.00     0.018 C 
HETATM   24  C   UNK N   1      35.742  14.783   9.226  0.00  0.00     0.046 C 
HETATM   25  C   UNK N   1      33.628  13.377   9.063  0.00  0.00     0.277 C 
HETATM   26  C   UNK N   1      35.895  13.900  10.455  0.00  0.00     0.084 C 
HETATM   27  C   UNK N   1      35.685  12.442   9.968  0.00  0.00     0.310 C 
HETATM   28  N   UNK N   1      34.570  12.257   9.008  0.00  0.00     0.092 N 
HETATM   29  C   UNK N   1      35.063  12.086   7.630  0.00  0.00     0.277 C 
HETATM   30  C   UNK N   1      33.931  11.526   6.772  0.00  0.00     0.072 C 
HETATM   31  C   UNK N   1      33.387  12.300   5.582  0.00  0.00    -0.020 A 
HETATM   32  C   UNK N   1      32.968  13.646   5.415  0.00  0.00     0.040 A 
HETATM   33  C   UNK N   1      33.120  11.685   4.365  0.00  0.00    -0.001 A 
HETATM   34  N   UNK N   1      32.428  13.797   4.170  0.00  0.00    -0.357 N 
HETATM   35  C   UNK N   1      32.536  12.622   3.559  0.00  0.00     0.043 A 
HETATM   36  H   UNK N   1      32.034  14.618   3.797  0.00  0.00     0.166 HD
HETATM   37  C   UNK N   1      32.129  12.329   2.256  0.00  0.00     0.030 A 
HETATM   38  C   UNK N   1      32.348  11.028   1.778  0.00  0.00     0.002 A 
HETATM   39  C   UNK N   1      32.957  10.059   2.607  0.00  0.00     0.001 A 
HETATM   40  C   UNK N   1      33.342  10.384   3.925  0.00  0.00     0.014 A 
BRANCH  26  41
HETATM   41  O   UNK N   1      37.187  14.031  10.961  0.00  0.00    -0.388 OA
HETATM   42  H   UNK N   1      37.685  14.811  11.250  0.00  0.00     0.210 HD
ENDBRANCH  26  41
BRANCH  26  43
HETATM   43  C   UNK N   1      34.888  14.276  11.562  0.00  0.00     0.035 C 
HETATM   44  C   UNK N   1      35.266  13.700  12.922  0.00  0.00     0.008 C 
ENDBRANCH  26  43
BRANCH  21  45
HETATM   45  C   UNK N   1      33.695  16.037   5.487  0.00  0.00     0.278 C 
HETATM   46  O   UNK N   1      34.779  16.544   5.760  0.00  0.00    -0.264 OA
BRANCH  45  47
HETATM   47  O   UNK N   1      33.027  16.433   4.369  0.00  0.00    -0.325 OA
HETATM   48  C   UNK N   1      32.623  17.731   4.162  0.00  0.00     0.213 C 
ENDBRANCH  45  47
ENDBRANCH  21  45
ENDBRANCH  19  21
BRANCH  20  49
HETATM   49  O   UNK N   1      32.332  17.140   8.460  0.00  0.00    -0.355 OA
HETATM   50  C   UNK N   1      33.088  18.278   8.252  0.00  0.00     0.210 C 
ENDBRANCH  20  49
BRANCH   6  51
HETATM   51  C   UNK N   1      25.177  13.547   5.046  0.00  0.00     0.014 C 
HETATM   52  C   UNK N   1      23.751  13.817   4.575  0.00  0.00     0.006 C 
ENDBRANCH   6  51
BRANCH   7  53
HETATM   53  O   UNK N   1      25.841  16.316   6.131  0.00  0.00    -0.376 OA
HETATM   54  H   UNK N   1      25.686  16.239   7.086  0.00  0.00     0.211 HD
ENDBRANCH   7  53
BRANCH   7  55
HETATM   55  C   UNK N   1      25.465  18.021   4.537  0.00  0.00     0.255 C 
HETATM   56  O   UNK N   1      25.736  18.637   3.519  0.00  0.00    -0.270 OA
HETATM   57  N   UNK N   1      24.550  18.533   5.387  0.00  0.00    -0.367 N 
HETATM   58  H   UNK N   1      24.327  19.471   5.583  0.00  0.00     0.159 HD
HETATM   59  H   UNK N   1      24.026  17.865   5.887  0.00  0.00     0.159 HD
ENDBRANCH   7  55
BRANCH   9  60
HETATM   60  O   UNK N   1      26.177  16.053   2.538  0.00  0.00    -0.391 OA
HETATM   61  H   UNK N   1      26.515  16.499   1.746  0.00  0.00     0.210 HD
ENDBRANCH   9  60
TORSDOF 10
ENDMDL
MODEL 5
REMARK VINA RESULT:      -7.1      2.252      5.211
REMARK  10 active torsions:
REMARK  status: ('A' for Active; 'I' for Inactive)
REMARK    1  A    between atoms: C_17  and  O_1 
REMARK    2  A    between atoms: C_19  and  O_2 
REMARK    3  A    between atoms: O_4  and  C_33 
REMARK    4  A    between atoms: O_5  and  C_38 
REMARK    5  A    between atoms: C_42  and  O_7 
REMARK       I    between atoms: N_10  and  C_27 
REMARK    6  A    between atoms: C_16  and  C_22 
REMARK    7  A    between atoms: C_17  and  C_27 
REMARK    8  A    between atoms: C_32  and  C_34 
REMARK    9  A    between atoms: C_34  and  C_38 
REMARK   10  A    between atoms: C_42  and  C_49 
ROOT
HETATM    1  N   UNK N   1      26.039  13.902   4.247  0.00  0.00     0.098 N 
HETATM    2  N   UNK N   1      25.129  18.428   4.949  0.00  0.00    -0.375 N 
HETATM    3  C   UNK N   1      25.756  16.103   5.109  0.00  0.00     0.047 C 
HETATM    4  C   UNK N   1      26.530  15.293   4.067  0.00  0.00     0.253 C 
HETATM    5  C   UNK N   1      26.247  17.589   5.362  0.00  0.00     0.146 C 
HETATM    6  C   UNK N   1      28.111  15.435   4.223  0.00  0.00     0.038 C 
HETATM    7  C   UNK N   1      27.556  17.933   4.611  0.00  0.00     0.186 C 
HETATM    8  C   UNK N   1      25.824  15.176   6.306  0.00  0.00     0.049 C 
HETATM    9  C   UNK N   1      28.550  16.787   4.868  0.00  0.00     0.178 C 
HETATM   10  C   UNK N   1      24.319  16.339   4.740  0.00  0.00    -0.018 C 
HETATM   11  C   UNK N   1      25.651  13.791   5.667  0.00  0.00     0.274 C 
HETATM   12  C   UNK N   1      24.036  17.647   4.625  0.00  0.00     0.040 C 
HETATM   13  C   UNK N   1      28.714  14.273   4.995  0.00  0.00    -0.015 C 
HETATM   14  C   UNK N   1      27.040  12.873   3.926  0.00  0.00     0.300 C 
HETATM   15  C   UNK N   1      28.246  13.039   4.805  0.00  0.00    -0.000 C 
HETATM   16  C   UNK N   1      23.317  15.411   4.795  0.00  0.00     0.022 C 
HETATM   17  C   UNK N   1      25.002  19.828   5.267  0.00  0.00     0.150 C 
HETATM   18  C   UNK N   1      22.749  18.101   4.396  0.00  0.00     0.067 C 
HETATM   19  C   UNK N   1      21.967  15.805   4.789  0.00  0.00     0.000 C 
HETATM   20  C   UNK N   1      21.680  17.185   4.450  0.00  0.00     0.078 C 
ENDROOT
BRANCH  19  21
HETATM   21  C   UNK N   1      21.038  14.740   5.460  0.00  0.00     0.121 C 
HETATM   22  C   UNK N   1      19.856  14.034   4.780  0.00  0.00     0.038 C 
HETATM   23  C   UNK N   1      19.795  13.756   3.321  0.00  0.00     0.018 C 
HETATM   24  C   UNK N   1      18.430  13.150   3.001  0.00  0.00     0.046 C 
HETATM   25  C   UNK N   1      20.950  12.797   2.967  0.00  0.00     0.277 C 
HETATM   26  C   UNK N   1      18.556  12.122   1.888  0.00  0.00     0.084 C 
HETATM   27  C   UNK N   1      19.424  10.970   2.459  0.00  0.00     0.310 C 
HETATM   28  N   UNK N   1      20.596  11.405   3.255  0.00  0.00     0.092 N 
HETATM   29  C   UNK N   1      20.364  11.238   4.700  0.00  0.00     0.277 C 
HETATM   30  C   UNK N   1      21.704  11.330   5.426  0.00  0.00     0.072 C 
HETATM   31  C   UNK N   1      21.972  12.419   6.452  0.00  0.00    -0.020 A 
HETATM   32  C   UNK N   1      21.781  13.825   6.441  0.00  0.00     0.040 A 
HETATM   33  C   UNK N   1      22.596  12.150   7.663  0.00  0.00    -0.001 A 
HETATM   34  N   UNK N   1      22.320  14.361   7.574  0.00  0.00    -0.357 N 
HETATM   35  C   UNK N   1      22.793  13.347   8.292  0.00  0.00     0.043 A 
HETATM   36  H   UNK N   1      22.354  15.315   7.814  0.00  0.00     0.166 HD
HETATM   37  C   UNK N   1      23.411  13.437   9.540  0.00  0.00     0.030 A 
HETATM   38  C   UNK N   1      23.825  12.245  10.153  0.00  0.00     0.002 A 
HETATM   39  C   UNK N   1      23.619  11.005   9.509  0.00  0.00     0.001 A 
HETATM   40  C   UNK N   1      23.004  10.951   8.240  0.00  0.00     0.014 A 
BRANCH  26  41
HETATM   41  O   UNK N   1      17.292  11.627   1.570  0.00  0.00    -0.388 OA
HETATM   42  H   UNK N   1      16.410  11.869   1.892  0.00  0.00     0.210 HD
ENDBRANCH  26  41
BRANCH  26  43
HETATM   43  C   UNK N   1      19.187  12.726   0.615  0.00  0.00     0.035 C 
HETATM   44  C   UNK N   1      18.387  13.901   0.063  0.00  0.00     0.008 C 
ENDBRANCH  26  43
BRANCH  21  45
HETATM   45  C   UNK N   1      20.086  15.656   6.275  0.00  0.00     0.278 C 
HETATM   46  O   UNK N   1      18.868  15.615   6.128  0.00  0.00    -0.264 OA
BRANCH  45  47
HETATM   47  O   UNK N   1      20.623  16.453   7.240  0.00  0.00    -0.325 OA
HETATM   48  C   UNK N   1      19.872  17.017   8.244  0.00  0.00     0.213 C 
ENDBRANCH  45  47
ENDBRANCH  21  45
ENDBRANCH  19  21
BRANCH  20  49
HETATM   49  O   UNK N   1      20.431  17.652   4.255  0.00  0.00    -0.355 OA
HETATM   50  C   UNK N   1      19.821  17.732   3.018  0.00  0.00     0.210 C 
ENDBRANCH  20  49
BRANCH   6  51
HETATM   51  C   UNK N   1      28.704  15.371   2.800  0.00  0.00     0.014 C 
HETATM   52  C   UNK N   1      30.082  16.017   2.688  0.00  0.00     0.006 C 
ENDBRANCH   6  51
BRANCH   7  53
HETATM   53  O   UNK N   1      27.292  18.034   3.240  0.00  0.00    -0.376 OA
HETATM   54  H   UNK N   1      26.972  18.278   2.357  0.00  0.00     0.211 HD
ENDBRANCH   7  53
BRANCH   7  55
HETATM   55  C   UNK N   1      28.187  19.237   5.069  0.00  0.00     0.255 C 
HETATM   56  O   UNK N   1      28.328  19.447   6.262  0.00  0.00    -0.270 OA
HETATM   57  N   UNK N   1      28.563  20.187   4.188  0.00  0.00    -0.367 N 
HETATM   58  H   UNK N   1      28.565  21.167   4.280  0.00  0.00     0.159 HD
HETATM   59  H   UNK N   1      28.883  19.849   3.319  0.00  0.00     0.159 HD
ENDBRANCH   7  55
BRANCH   9  60
HETATM   60  O   UNK N   1      28.747  16.655   6.252  0.00  0.00    -0.391 OA
HETATM   61  H   UNK N   1      28.688  16.617   7.220  0.00  0.00     0.210 HD
ENDBRANCH   9  60
TORSDOF 10
ENDMDL
MODEL 6
REMARK VINA RESULT:      -7.1      2.909      8.608
REMARK  10 active torsions:
REMARK  status: ('A' for Active; 'I' for Inactive)
REMARK    1  A    between atoms: C_17  and  O_1 
REMARK    2  A    between atoms: C_19  and  O_2 
REMARK    3  A    between atoms: O_4  and  C_33 
REMARK    4  A    between atoms: O_5  and  C_38 
REMARK    5  A    between atoms: C_42  and  O_7 
REMARK       I    between atoms: N_10  and  C_27 
REMARK    6  A    between atoms: C_16  and  C_22 
REMARK    7  A    between atoms: C_17  and  C_27 
REMARK    8  A    between atoms: C_32  and  C_34 
REMARK    9  A    between atoms: C_34  and  C_38 
REMARK   10  A    between atoms: C_42  and  C_49 
ROOT
HETATM    1  N   UNK N   1      20.510  11.932   4.083  0.00  0.00     0.098 N 
HETATM    2  N   UNK N   1      24.783  11.001   2.446  0.00  0.00    -0.375 N 
HETATM    3  C   UNK N   1      22.753  11.215   3.733  0.00  0.00     0.047 C 
HETATM    4  C   UNK N   1      21.324  11.037   3.219  0.00  0.00     0.253 C 
HETATM    5  C   UNK N   1      23.835  10.188   3.197  0.00  0.00     0.146 C 
HETATM    6  C   UNK N   1      20.841   9.517   3.245  0.00  0.00     0.038 C 
HETATM    7  C   UNK N   1      23.223   9.051   2.344  0.00  0.00     0.186 C 
HETATM    8  C   UNK N   1      22.525  11.207   5.232  0.00  0.00     0.049 C 
HETATM    9  C   UNK N   1      22.013   8.494   3.116  0.00  0.00     0.178 C 
HETATM   10  C   UNK N   1      23.378  12.520   3.331  0.00  0.00    -0.018 C 
HETATM   11  C   UNK N   1      21.218  11.998   5.377  0.00  0.00     0.274 C 
HETATM   12  C   UNK N   1      24.479  12.343   2.583  0.00  0.00     0.040 C 
HETATM   13  C   UNK N   1      20.013   9.203   4.481  0.00  0.00    -0.015 C 
HETATM   14  C   UNK N   1      19.133  11.460   4.297  0.00  0.00     0.300 C 
HETATM   15  C   UNK N   1      19.150  10.106   4.946  0.00  0.00    -0.000 C 
HETATM   16  C   UNK N   1      23.089  13.744   3.867  0.00  0.00     0.022 C 
HETATM   17  C   UNK N   1      26.085  10.551   2.023  0.00  0.00     0.150 C 
HETATM   18  C   UNK N   1      25.276  13.402   2.189  0.00  0.00     0.067 C 
HETATM   19  C   UNK N   1      23.965  14.832   3.697  0.00  0.00     0.000 C 
HETATM   20  C   UNK N   1      25.025  14.683   2.720  0.00  0.00     0.078 C 
ENDROOT
BRANCH  19  21
HETATM   21  C   UNK N   1      23.812  15.897   4.833  0.00  0.00     0.121 C 
HETATM   22  C   UNK N   1      23.646  17.408   4.621  0.00  0.00     0.038 C 
HETATM   23  C   UNK N   1      22.992  18.002   3.425  0.00  0.00     0.018 C 
HETATM   24  C   UNK N   1      23.114  19.522   3.512  0.00  0.00     0.046 C 
HETATM   25  C   UNK N   1      21.520  17.541   3.404  0.00  0.00     0.277 C 
HETATM   26  C   UNK N   1      21.877  20.186   2.927  0.00  0.00     0.084 C 
HETATM   27  C   UNK N   1      20.695  19.788   3.848  0.00  0.00     0.310 C 
HETATM   28  N   UNK N   1      20.689  18.369   4.281  0.00  0.00     0.092 N 
HETATM   29  C   UNK N   1      21.136  18.224   5.676  0.00  0.00     0.277 C 
HETATM   30  C   UNK N   1      20.747  16.834   6.173  0.00  0.00     0.072 C 
HETATM   31  C   UNK N   1      21.800  15.833   6.620  0.00  0.00    -0.020 A 
HETATM   32  C   UNK N   1      23.014  15.382   6.036  0.00  0.00     0.040 A 
HETATM   33  C   UNK N   1      21.649  15.070   7.770  0.00  0.00    -0.001 A 
HETATM   34  N   UNK N   1      23.521  14.362   6.787  0.00  0.00    -0.357 N 
HETATM   35  C   UNK N   1      22.699  14.197   7.818  0.00  0.00     0.043 A 
HETATM   36  H   UNK N   1      24.338  13.845   6.599  0.00  0.00     0.166 HD
HETATM   37  C   UNK N   1      22.848  13.272   8.852  0.00  0.00     0.030 A 
HETATM   38  C   UNK N   1      21.882  13.265   9.870  0.00  0.00     0.002 A 
HETATM   39  C   UNK N   1      20.797  14.170   9.827  0.00  0.00     0.001 A 
HETATM   40  C   UNK N   1      20.669  15.083   8.758  0.00  0.00     0.014 A 
BRANCH  26  41
HETATM   41  O   UNK N   1      22.036  21.570   2.960  0.00  0.00    -0.388 OA
HETATM   42  H   UNK N   1      22.100  22.224   2.247  0.00  0.00     0.210 HD
ENDBRANCH  26  41
BRANCH  26  43
HETATM   43  C   UNK N   1      21.627  19.750   1.468  0.00  0.00     0.035 C 
HETATM   44  C   UNK N   1      20.753  20.737   0.700  0.00  0.00     0.008 C 
ENDBRANCH  26  43
BRANCH  21  45
HETATM   45  C   UNK N   1      25.292  16.070   5.269  0.00  0.00     0.278 C 
HETATM   46  O   UNK N   1      25.822  17.176   5.326  0.00  0.00    -0.264 OA
BRANCH  45  47
HETATM   47  O   UNK N   1      25.977  14.971   5.687  0.00  0.00    -0.325 OA
HETATM   48  C   UNK N   1      27.351  14.916   5.719  0.00  0.00     0.213 C 
ENDBRANCH  45  47
ENDBRANCH  21  45
ENDBRANCH  19  21
BRANCH  20  49
HETATM   49  O   UNK N   1      25.831  15.696   2.347  0.00  0.00    -0.355 OA
HETATM   50  C   UNK N   1      27.197  15.574   2.177  0.00  0.00     0.210 C 
ENDBRANCH  20  49
BRANCH   6  51
HETATM   51  C   UNK N   1      19.907   9.327   2.032  0.00  0.00     0.014 C 
HETATM   52  C   UNK N   1      19.585   7.865   1.737  0.00  0.00     0.006 C 
ENDBRANCH   6  51
BRANCH   7  53
HETATM   53  O   UNK N   1      22.802   9.569   1.113  0.00  0.00    -0.376 OA
HETATM   54  H   UNK N   1      22.451  10.111   0.389  0.00  0.00     0.211 HD
ENDBRANCH   7  53
BRANCH   7  55
HETATM   55  C   UNK N   1      24.192   7.914   2.071  0.00  0.00     0.255 C 
HETATM   56  O   UNK N   1      24.798   7.408   3.002  0.00  0.00    -0.270 OA
HETATM   57  N   UNK N   1      24.430   7.473   0.818  0.00  0.00    -0.367 N 
HETATM   58  H   UNK N   1      25.255   7.109   0.424  0.00  0.00     0.159 HD
HETATM   59  H   UNK N   1      23.661   7.524   0.205  0.00  0.00     0.159 HD
ENDBRANCH   7  55
BRANCH   9  60
HETATM   60  O   UNK N   1      22.444   8.045   4.375  0.00  0.00    -0.391 OA
HETATM   61  H   UNK N   1      22.546   7.749   5.293  0.00  0.00     0.210 HD
ENDBRANCH   9  60
TORSDOF 10
ENDMDL
MODEL 7
REMARK VINA RESULT:      -7.0      8.930     14.093
REMARK  10 active torsions:
REMARK  status: ('A' for Active; 'I' for Inactive)
REMARK    1  A    between atoms: C_17  and  O_1 
REMARK    2  A    between atoms: C_19  and  O_2 
REMARK    3  A    between atoms: O_4  and  C_33 
REMARK    4  A    between atoms: O_5  and  C_38 
REMARK    5  A    between atoms: C_42  and  O_7 
REMARK       I    between atoms: N_10  and  C_27 
REMARK    6  A    between atoms: C_16  and  C_22 
REMARK    7  A    between atoms: C_17  and  C_27 
REMARK    8  A    between atoms: C_32  and  C_34 
REMARK    9  A    between atoms: C_34  and  C_38 
REMARK   10  A    between atoms: C_42  and  C_49 
ROOT
HETATM    1  N   UNK N   1      35.641  13.394  13.205  0.00  0.00     0.098 N 
HETATM    2  N   UNK N   1      35.147   9.158  11.303  0.00  0.00    -0.375 N 
HETATM    3  C   UNK N   1      35.933  11.258  12.195  0.00  0.00     0.047 C 
HETATM    4  C   UNK N   1      35.449  11.945  13.473  0.00  0.00     0.253 C 
HETATM    5  C   UNK N   1      36.114   9.685  12.258  0.00  0.00     0.146 C 
HETATM    6  C   UNK N   1      36.212  11.434  14.778  0.00  0.00     0.038 C 
HETATM    7  C   UNK N   1      35.918   9.107  13.680  0.00  0.00     0.186 C 
HETATM    8  C   UNK N   1      37.189  12.053  11.897  0.00  0.00     0.049 C 
HETATM    9  C   UNK N   1      36.745   9.972  14.648  0.00  0.00     0.178 C 
HETATM   10  C   UNK N   1      34.976  11.387  11.045  0.00  0.00    -0.018 C 
HETATM   11  C   UNK N   1      36.776  13.485  12.264  0.00  0.00     0.274 C 
HETATM   12  C   UNK N   1      34.539  10.192  10.616  0.00  0.00     0.040 C 
HETATM   13  C   UNK N   1      37.344  12.365  15.178  0.00  0.00    -0.015 C 
HETATM   14  C   UNK N   1      35.933  14.188  14.409  0.00  0.00     0.300 C 
HETATM   15  C   UNK N   1      37.187  13.684  15.063  0.00  0.00    -0.000 C 
HETATM   16  C   UNK N   1      34.770  12.514  10.298  0.00  0.00     0.022 C 
HETATM   17  C   UNK N   1      35.148   7.805  10.807  0.00  0.00     0.150 C 
HETATM   18  C   UNK N   1      33.733  10.063   9.499  0.00  0.00     0.067 C 
HETATM   19  C   UNK N   1      34.147  12.441   9.039  0.00  0.00     0.000 C 
HETATM   20  C   UNK N   1      33.497  11.193   8.691  0.00  0.00     0.078 C 
ENDROOT
BRANCH  19  21
HETATM   21  C   UNK N   1      34.547  13.637   8.113  0.00  0.00     0.121 C 
HETATM   22  C   UNK N   1      35.982  14.084   7.803  0.00  0.00     0.038 C 
HETATM   23  C   UNK N   1      37.144  13.155   7.781  0.00  0.00     0.018 C 
HETATM   24  C   UNK N   1      38.412  13.973   7.551  0.00  0.00     0.046 C 
HETATM   25  C   UNK N   1      36.911  12.123   6.658  0.00  0.00     0.277 C 
HETATM   26  C   UNK N   1      39.405  13.185   6.709  0.00  0.00     0.084 C 
HETATM   27  C   UNK N   1      38.743  13.001   5.318  0.00  0.00     0.310 C 
HETATM   28  N   UNK N   1      37.301  12.657   5.352  0.00  0.00     0.092 N 
HETATM   29  C   UNK N   1      36.458  13.816   5.013  0.00  0.00     0.277 C 
HETATM   30  C   UNK N   1      35.051  13.320   4.690  0.00  0.00     0.072 C 
HETATM   31  C   UNK N   1      33.851  13.757   5.516  0.00  0.00    -0.020 A 
HETATM   32  C   UNK N   1      33.608  13.810   6.913  0.00  0.00     0.040 A 
HETATM   33  C   UNK N   1      32.652  14.135   4.926  0.00  0.00    -0.001 A 
HETATM   34  N   UNK N   1      32.305  14.152   7.129  0.00  0.00    -0.357 N 
HETATM   35  C   UNK N   1      31.756  14.349   5.935  0.00  0.00     0.043 A 
HETATM   36  H   UNK N   1      31.857  14.235   8.002  0.00  0.00     0.166 HD
HETATM   37  C   UNK N   1      30.438  14.737   5.687  0.00  0.00     0.030 A 
HETATM   38  C   UNK N   1      30.048  14.917   4.351  0.00  0.00     0.002 A 
HETATM   39  C   UNK N   1      30.974  14.701   3.305  0.00  0.00     0.001 A 
HETATM   40  C   UNK N   1      32.295  14.295   3.590  0.00  0.00     0.014 A 
BRANCH  26  41
HETATM   41  O   UNK N   1      40.577  13.924   6.563  0.00  0.00    -0.388 OA
HETATM   42  H   UNK N   1      41.463  13.665   6.265  0.00  0.00     0.210 HD
ENDBRANCH  26  41
BRANCH  26  43
HETATM   43  C   UNK N   1      39.751  11.825   7.353  0.00  0.00     0.035 C 
HETATM   44  C   UNK N   1      40.507  11.973   8.670  0.00  0.00     0.008 C 
ENDBRANCH  26  43
BRANCH  21  45
HETATM   45  C   UNK N   1      34.330  14.835   9.076  0.00  0.00     0.278 C 
HETATM   46  O   UNK N   1      33.243  15.048   9.606  0.00  0.00    -0.264 OA
BRANCH  45  47
HETATM   47  O   UNK N   1      35.404  15.604   9.406  0.00  0.00    -0.325 OA
HETATM   48  C   UNK N   1      35.417  16.437  10.500  0.00  0.00     0.213 C 
ENDBRANCH  45  47
ENDBRANCH  21  45
ENDBRANCH  19  21
BRANCH  20  49
HETATM   49  O   UNK N   1      32.734  11.042   7.591  0.00  0.00    -0.355 OA
HETATM   50  C   UNK N   1      33.062  10.218   6.531  0.00  0.00     0.210 C 
ENDBRANCH  20  49
BRANCH   6  51
HETATM   51  C   UNK N   1      35.188  11.467  15.931  0.00  0.00     0.014 C 
HETATM   52  C   UNK N   1      35.700  10.822  17.216  0.00  0.00     0.006 C 
ENDBRANCH   6  51
BRANCH   7  53
HETATM   53  O   UNK N   1      34.562   9.173  14.026  0.00  0.00    -0.376 OA
HETATM   54  H   UNK N   1      33.616   9.374  14.094  0.00  0.00     0.211 HD
ENDBRANCH   7  53
BRANCH   7  55
HETATM   55  C   UNK N   1      36.370   7.663  13.812  0.00  0.00     0.255 C 
HETATM   56  O   UNK N   1      35.662   6.866  14.405  0.00  0.00    -0.270 OA
HETATM   57  N   UNK N   1      37.556   7.247  13.322  0.00  0.00    -0.367 N 
HETATM   58  H   UNK N   1      38.170   6.555  13.659  0.00  0.00     0.159 HD
HETATM   59  H   UNK N   1      37.854   7.706  12.503  0.00  0.00     0.159 HD
ENDBRANCH   7  55
BRANCH   9  60
HETATM   60  O   UNK N   1      38.090   9.951  14.244  0.00  0.00    -0.391 OA
HETATM   61  H   UNK N   1      38.953  10.054  13.813  0.00  0.00     0.210 HD
ENDBRANCH   9  60
TORSDOF 10
ENDMDL
MODEL 8
REMARK VINA RESULT:      -6.8      3.472      8.360
REMARK  10 active torsions:
REMARK  status: ('A' for Active; 'I' for Inactive)
REMARK    1  A    between atoms: C_17  and  O_1 
REMARK    2  A    between atoms: C_19  and  O_2 
REMARK    3  A    between atoms: O_4  and  C_33 
REMARK    4  A    between atoms: O_5  and  C_38 
REMARK    5  A    between atoms: C_42  and  O_7 
REMARK       I    between atoms: N_10  and  C_27 
REMARK    6  A    between atoms: C_16  and  C_22 
REMARK    7  A    between atoms: C_17  and  C_27 
REMARK    8  A    between atoms: C_32  and  C_34 
REMARK    9  A    between atoms: C_34  and  C_38 
REMARK   10  A    between atoms: C_42  and  C_49 
ROOT
HETATM    1  N   UNK N   1      22.436   9.464   5.089  0.00  0.00     0.098 N 
HETATM    2  N   UNK N   1      26.949   9.970   4.003  0.00  0.00    -0.375 N 
HETATM    3  C   UNK N   1      24.814   9.572   5.054  0.00  0.00     0.047 C 
HETATM    4  C   UNK N   1      23.619   8.837   4.445  0.00  0.00     0.253 C 
HETATM    5  C   UNK N   1      26.246   8.954   4.776  0.00  0.00     0.146 C 
HETATM    6  C   UNK N   1      23.693   7.257   4.652  0.00  0.00     0.038 C 
HETATM    7  C   UNK N   1      26.189   7.589   4.049  0.00  0.00     0.186 C 
HETATM    8  C   UNK N   1      24.399   9.641   6.511  0.00  0.00     0.049 C 
HETATM    9  C   UNK N   1      25.153   6.718   4.782  0.00  0.00     0.178 C 
HETATM   10  C   UNK N   1      24.997  10.964   4.522  0.00  0.00    -0.018 C 
HETATM   11  C   UNK N   1      22.892   9.918   6.418  0.00  0.00     0.274 C 
HETATM   12  C   UNK N   1      26.184  11.118   3.911  0.00  0.00     0.040 C 
HETATM   13  C   UNK N   1      22.864   6.798   5.839  0.00  0.00    -0.015 C 
HETATM   14  C   UNK N   1      21.291   8.552   5.245  0.00  0.00     0.300 C 
HETATM   15  C   UNK N   1      21.686   7.373   6.086  0.00  0.00    -0.000 C 
HETATM   16  C   UNK N   1      24.233  12.051   4.843  0.00  0.00     0.022 C 
HETATM   17  C   UNK N   1      28.371   9.977   3.772  0.00  0.00     0.150 C 
HETATM   18  C   UNK N   1      26.612  12.346   3.439  0.00  0.00     0.067 C 
HETATM   19  C   UNK N   1      24.693  13.357   4.593  0.00  0.00     0.000 C 
HETATM   20  C   UNK N   1      25.863  13.497   3.750  0.00  0.00     0.078 C 
ENDROOT
BRANCH  19  21
HETATM   21  C   UNK N   1      24.027  14.408   5.541  0.00  0.00     0.121 C 
HETATM   22  C   UNK N   1      23.226  15.636   5.086  0.00  0.00     0.038 C 
HETATM   23  C   UNK N   1      22.444  15.684   3.822  0.00  0.00     0.018 C 
HETATM   24  C   UNK N   1      21.882  17.093   3.654  0.00  0.00     0.046 C 
HETATM   25  C   UNK N   1      21.327  14.623   3.909  0.00  0.00     0.277 C 
HETATM   26  C   UNK N   1      20.513  17.042   2.993  0.00  0.00     0.084 C 
HETATM   27  C   UNK N   1      19.577  16.312   3.993  0.00  0.00     0.310 C 
HETATM   28  N   UNK N   1      20.170  15.125   4.653  0.00  0.00     0.092 N 
HETATM   29  C   UNK N   1      20.559  15.414   6.044  0.00  0.00     0.277 C 
HETATM   30  C   UNK N   1      20.793  14.093   6.772  0.00  0.00     0.072 C 
HETATM   31  C   UNK N   1      22.153  13.745   7.356  0.00  0.00    -0.020 A 
HETATM   32  C   UNK N   1      23.471  13.791   6.829  0.00  0.00     0.040 A 
HETATM   33  C   UNK N   1      22.289  13.186   8.620  0.00  0.00    -0.001 A 
HETATM   34  N   UNK N   1      24.333  13.232   7.727  0.00  0.00    -0.357 N 
HETATM   35  C   UNK N   1      23.612  12.886   8.789  0.00  0.00     0.043 A 
HETATM   36  H   UNK N   1      25.302  13.107   7.611  0.00  0.00     0.166 HD
HETATM   37  C   UNK N   1      24.096  12.298   9.958  0.00  0.00     0.030 A 
HETATM   38  C   UNK N   1      23.177  12.025  10.983  0.00  0.00     0.002 A 
HETATM   39  C   UNK N   1      21.809  12.338  10.814  0.00  0.00     0.001 A 
HETATM   40  C   UNK N   1      21.351  12.919   9.612  0.00  0.00     0.014 A 
BRANCH  26  41
HETATM   41  O   UNK N   1      20.045  18.339   2.794  0.00  0.00    -0.388 OA
HETATM   42  H   UNK N   1      19.178  18.740   2.962  0.00  0.00     0.210 HD
ENDBRANCH  26  41
BRANCH  26  43
HETATM   43  C   UNK N   1      20.558  16.316   1.632  0.00  0.00     0.035 C 
HETATM   44  C   UNK N   1      20.021  17.172   0.490  0.00  0.00     0.008 C 
ENDBRANCH  26  43
BRANCH  21  45
HETATM   45  C   UNK N   1      25.254  15.284   5.911  0.00  0.00     0.278 C 
HETATM   46  O   UNK N   1      26.231  14.816   6.487  0.00  0.00    -0.264 OA
BRANCH  45  47
HETATM   47  O   UNK N   1      25.273  16.581   5.496  0.00  0.00    -0.325 OA
HETATM   48  C   UNK N   1      26.425  17.329   5.439  0.00  0.00     0.213 C 
ENDBRANCH  45  47
ENDBRANCH  21  45
ENDBRANCH  19  21
BRANCH  20  49
HETATM   49  O   UNK N   1      26.312  14.688   3.306  0.00  0.00    -0.355 OA
HETATM   50  C   UNK N   1      25.902  15.277   2.126  0.00  0.00     0.210 C 
ENDBRANCH  20  49
BRANCH   6  51
HETATM   51  C   UNK N   1      23.059   6.616   3.400  0.00  0.00     0.014 C 
HETATM   52  C   UNK N   1      23.372   5.129   3.255  0.00  0.00     0.006 C 
ENDBRANCH   6  51
BRANCH   7  53
HETATM   53  O   UNK N   1      25.788   7.787   2.722  0.00  0.00    -0.376 OA
HETATM   54  H   UNK N   1      25.663   7.754   1.760  0.00  0.00     0.211 HD
ENDBRANCH   7  53
BRANCH   7  55
HETATM   55  C   UNK N   1      27.519   6.856   4.037  0.00  0.00     0.255 C 
HETATM   56  O   UNK N   1      28.131   6.710   5.082  0.00  0.00    -0.270 OA
HETATM   57  N   UNK N   1      28.062   6.395   2.891  0.00  0.00    -0.367 N 
HETATM   58  H   UNK N   1      29.007   6.313   2.629  0.00  0.00     0.159 HD
HETATM   59  H   UNK N   1      27.413   6.096   2.212  0.00  0.00     0.159 HD
ENDBRANCH   7  55
BRANCH   9  60
HETATM   60  O   UNK N   1      25.535   6.591   6.127  0.00  0.00    -0.391 OA
HETATM   61  H   UNK N   1      25.673   6.344   7.055  0.00  0.00     0.210 HD
ENDBRANCH   9  60
TORSDOF 10
ENDMDL
MODEL 9
REMARK VINA RESULT:      -6.7      8.177     14.070
REMARK  10 active torsions:
REMARK  status: ('A' for Active; 'I' for Inactive)
REMARK    1  A    between atoms: C_17  and  O_1 
REMARK    2  A    between atoms: C_19  and  O_2 
REMARK    3  A    between atoms: O_4  and  C_33 
REMARK    4  A    between atoms: O_5  and  C_38 
REMARK    5  A    between atoms: C_42  and  O_7 
REMARK       I    between atoms: N_10  and  C_27 
REMARK    6  A    between atoms: C_16  and  C_22 
REMARK    7  A    between atoms: C_17  and  C_27 
REMARK    8  A    between atoms: C_32  and  C_34 
REMARK    9  A    between atoms: C_34  and  C_38 
REMARK   10  A    between atoms: C_42  and  C_49 
ROOT
HETATM    1  N   UNK N   1      34.021  15.694   7.860  0.00  0.00     0.098 N 
HETATM    2  N   UNK N   1      34.444  12.568   4.418  0.00  0.00    -0.375 N 
HETATM    3  C   UNK N   1      33.834  13.846   6.371  0.00  0.00     0.047 C 
HETATM    4  C   UNK N   1      33.671  15.365   6.454  0.00  0.00     0.253 C 
HETATM    5  C   UNK N   1      33.273  13.141   5.067  0.00  0.00     0.146 C 
HETATM    6  C   UNK N   1      32.213  15.856   6.029  0.00  0.00     0.038 C 
HETATM    7  C   UNK N   1      32.494  14.106   4.141  0.00  0.00     0.186 C 
HETATM    8  C   UNK N   1      33.197  13.415   7.677  0.00  0.00     0.049 C 
HETATM    9  C   UNK N   1      31.507  14.895   5.021  0.00  0.00     0.178 C 
HETATM   10  C   UNK N   1      35.266  13.397   6.342  0.00  0.00    -0.018 C 
HETATM   11  C   UNK N   1      33.668  14.501   8.655  0.00  0.00     0.274 C 
HETATM   12  C   UNK N   1      35.562  12.727   5.216  0.00  0.00     0.040 C 
HETATM   13  C   UNK N   1      31.318  16.092   7.234  0.00  0.00    -0.015 C 
HETATM   14  C   UNK N   1      33.309  16.868   8.390  0.00  0.00     0.300 C 
HETATM   15  C   UNK N   1      31.827  16.635   8.340  0.00  0.00    -0.000 C 
HETATM   16  C   UNK N   1      36.120  13.376   7.409  0.00  0.00     0.022 C 
HETATM   17  C   UNK N   1      34.392  11.590   3.360  0.00  0.00     0.150 C 
HETATM   18  C   UNK N   1      36.793  12.128   5.021  0.00  0.00     0.067 C 
HETATM   19  C   UNK N   1      37.299  12.610   7.376  0.00  0.00     0.000 C 
HETATM   20  C   UNK N   1      37.706  12.074   6.093  0.00  0.00     0.078 C 
ENDROOT
BRANCH  19  21
HETATM   21  C   UNK N   1      37.790  12.220   8.809  0.00  0.00     0.121 C 
HETATM   22  C   UNK N   1      36.883  11.927  10.013  0.00  0.00     0.038 C 
HETATM   23  C   UNK N   1      35.514  11.360   9.890  0.00  0.00     0.018 C 
HETATM   24  C   UNK N   1      34.882  11.317  11.279  0.00  0.00     0.046 C 
HETATM   25  C   UNK N   1      35.631   9.954   9.265  0.00  0.00     0.277 C 
HETATM   26  C   UNK N   1      33.985  10.096  11.415  0.00  0.00     0.084 C 
HETATM   27  C   UNK N   1      34.919   8.861  11.319  0.00  0.00     0.310 C 
HETATM   28  N   UNK N   1      35.967   8.948  10.274  0.00  0.00     0.092 N 
HETATM   29  C   UNK N   1      37.289   9.242  10.853  0.00  0.00     0.277 C 
HETATM   30  C   UNK N   1      38.360   8.941   9.807  0.00  0.00     0.072 C 
HETATM   31  C   UNK N   1      39.282  10.031   9.286  0.00  0.00    -0.020 A 
HETATM   32  C   UNK N   1      39.048  11.343   8.797  0.00  0.00     0.040 A 
HETATM   33  C   UNK N   1      40.646   9.825   9.125  0.00  0.00    -0.001 A 
HETATM   34  N   UNK N   1      40.217  11.860   8.321  0.00  0.00    -0.357 N 
HETATM   35  C   UNK N   1      41.157  10.945   8.532  0.00  0.00     0.043 A 
HETATM   36  H   UNK N   1      40.340  12.741   7.899  0.00  0.00     0.166 HD
HETATM   37  C   UNK N   1      42.512  11.066   8.218  0.00  0.00     0.030 A 
HETATM   38  C   UNK N   1      43.357   9.994   8.541  0.00  0.00     0.002 A 
HETATM   39  C   UNK N   1      42.834   8.835   9.158  0.00  0.00     0.001 A 
HETATM   40  C   UNK N   1      41.456   8.740   9.449  0.00  0.00     0.014 A 
BRANCH  26  41
HETATM   41  O   UNK N   1      33.372  10.108  12.666  0.00  0.00    -0.388 OA
HETATM   42  H   UNK N   1      33.063   9.386  13.234  0.00  0.00     0.210 HD
ENDBRANCH  26  41
BRANCH  26  43
HETATM   43  C   UNK N   1      32.892  10.061  10.326  0.00  0.00     0.035 C 
HETATM   44  C   UNK N   1      32.293   8.671  10.138  0.00  0.00     0.008 C 
ENDBRANCH  26  43
BRANCH  21  45
HETATM   45  C   UNK N   1      38.174  13.613   9.375  0.00  0.00     0.278 C 
HETATM   46  O   UNK N   1      38.986  14.339   8.808  0.00  0.00    -0.264 OA
BRANCH  45  47
HETATM   47  O   UNK N   1      37.517  14.069  10.477  0.00  0.00    -0.325 OA
HETATM   48  C   UNK N   1      36.796  15.240  10.484  0.00  0.00     0.213 C 
ENDBRANCH  45  47
ENDBRANCH  21  45
ENDBRANCH  19  21
BRANCH  20  49
HETATM   49  O   UNK N   1      38.889  11.460   5.892  0.00  0.00    -0.355 OA
HETATM   50  C   UNK N   1      39.030  10.252   5.236  0.00  0.00     0.210 C 
ENDBRANCH  20  49
BRANCH   6  51
HETATM   51  C   UNK N   1      32.390  17.224   5.339  0.00  0.00     0.014 C 
HETATM   52  C   UNK N   1      31.221  17.603   4.434  0.00  0.00     0.006 C 
ENDBRANCH   6  51
BRANCH   7  53
HETATM   53  O   UNK N   1      33.392  14.988   3.528  0.00  0.00    -0.376 OA
HETATM   54  H   UNK N   1      33.989  15.718   3.301  0.00  0.00     0.211 HD
ENDBRANCH   7  53
BRANCH   7  55
HETATM   55  C   UNK N   1      31.711  13.395   3.051  0.00  0.00     0.255 C 
HETATM   56  O   UNK N   1      31.893  13.704   1.885  0.00  0.00    -0.270 OA
HETATM   57  N   UNK N   1      30.788  12.455   3.343  0.00  0.00    -0.367 N 
HETATM   58  H   UNK N   1      29.949  12.230   2.880  0.00  0.00     0.159 HD
HETATM   59  H   UNK N   1      30.984  11.911   4.140  0.00  0.00     0.159 HD
ENDBRANCH   7  55
BRANCH   9  60
HETATM   60  O   UNK N   1      30.661  13.990   5.682  0.00  0.00    -0.391 OA
HETATM   61  H   UNK N   1      30.232  13.345   6.267  0.00  0.00     0.210 HD
ENDBRANCH   9  60
TORSDOF 10
ENDMDL
