MODEL 1
REMARK VINA RESULT:      -6.7      0.000      0.000
REMARK  2 active torsions:
REMARK  status: ('A' for Active; 'I' for Inactive)
REMARK    1  A    between atoms: C_3  and  C_4 
REMARK    2  A    between atoms: C_4  and  C_7 
ROOT
HETATM    1  S   UNK N   1      28.117  27.902  -7.760  0.00  0.00    -0.089 SA
HETATM    2  C   UNK N   1      25.651  26.122  -6.563  0.00  0.00     0.054 C 
HETATM    3  C   UNK N   1      26.121  25.902  -7.981  0.00  0.00    -0.032 A 
HETATM    4  C   UNK N   1      26.132  27.339  -5.819  0.00  0.00    -0.032 A 
HETATM    5  C   UNK N   1      27.162  26.636  -8.590  0.00  0.00     0.012 A 
HETATM    6  C   UNK N   1      27.168  28.183  -6.270  0.00  0.00     0.012 A 
HETATM    7  C   UNK N   1      25.486  27.642  -4.610  0.00  0.00     0.009 A 
HETATM    8  C   UNK N   1      25.462  24.917  -8.736  0.00  0.00     0.009 A 
HETATM    9  C   UNK N   1      27.521  26.358  -9.914  0.00  0.00     0.019 A 
HETATM   10  C   UNK N   1      27.532  29.297  -5.501  0.00  0.00     0.019 A 
HETATM   11  C   UNK N   1      25.831  24.646 -10.053  0.00  0.00     0.001 A 
HETATM   12  C   UNK N   1      25.860  28.754  -3.852  0.00  0.00     0.001 A 
HETATM   13  C   UNK N   1      26.863  25.368 -10.644  0.00  0.00     0.001 A 
HETATM   14  C   UNK N   1      26.883  29.584  -4.301  0.00  0.00     0.001 A 
ENDROOT
BRANCH   2  15
HETATM   15  C   UNK N   1      25.838  24.876  -5.690  0.00  0.00     0.020 C 
BRANCH  15  16
HETATM   16  C   UNK N   1      27.307  24.609  -5.404  0.00  0.00     0.015 C 
HETATM   17  C   UNK N   1      27.550  24.549  -3.899  0.00  0.00     0.008 C 
HETATM   18  C   UNK N   1      29.014  24.226  -3.626  0.00  0.00     0.031 C 
HETATM   19  C   UNK N   1      29.385  22.926  -4.337  0.00  0.00     0.272 C 
HETATM   20  N   UNK N   1      29.159  23.053  -5.776  0.00  0.00     0.084 N 
HETATM   21  C   UNK N   1      27.736  23.283  -6.028  0.00  0.00     0.276 C 
HETATM   22  C   UNK N   1      29.501  21.777  -6.376  0.00  0.00     0.309 C 
ENDBRANCH  15  16
ENDBRANCH   2  15
TORSDOF 2
ENDMDL
MODEL 2
REMARK VINA RESULT:      -6.7     14.657     17.856
REMARK  2 active torsions:
REMARK  status: ('A' for Active; 'I' for Inactive)
REMARK    1  A    between atoms: C_3  and  C_4 
REMARK    2  A    between atoms: C_4  and  C_7 
ROOT
HETATM    1  S   UNK N   1      29.195  17.307   5.115  0.00  0.00    -0.089 SA
HETATM    2  C   UNK N   1      31.735  16.939   7.139  0.00  0.00     0.054 C 
HETATM    3  C   UNK N   1      30.439  17.516   7.654  0.00  0.00    -0.032 A 
HETATM    4  C   UNK N   1      31.930  16.803   5.652  0.00  0.00    -0.032 A 
HETATM    5  C   UNK N   1      29.297  17.733   6.851  0.00  0.00     0.012 A 
HETATM    6  C   UNK N   1      30.903  16.972   4.701  0.00  0.00     0.012 A 
HETATM    7  C   UNK N   1      33.227  16.502   5.205  0.00  0.00     0.009 A 
HETATM    8  C   UNK N   1      30.383  17.875   9.012  0.00  0.00     0.009 A 
HETATM    9  C   UNK N   1      28.142  18.279   7.424  0.00  0.00     0.019 A 
HETATM   10  C   UNK N   1      31.196  16.831   3.338  0.00  0.00     0.019 A 
HETATM   11  C   UNK N   1      29.227  18.414   9.572  0.00  0.00     0.001 A 
HETATM   12  C   UNK N   1      33.505  16.361   3.844  0.00  0.00     0.001 A 
HETATM   13  C   UNK N   1      28.103  18.616   8.777  0.00  0.00     0.001 A 
HETATM   14  C   UNK N   1      32.488  16.529   2.910  0.00  0.00     0.001 A 
ENDROOT
BRANCH   2  15
HETATM   15  C   UNK N   1      32.096  15.618   7.829  0.00  0.00     0.020 C 
BRANCH  15  16
HETATM   16  C   UNK N   1      33.459  15.692   8.499  0.00  0.00     0.015 C 
HETATM   17  C   UNK N   1      33.771  17.130   8.902  0.00  0.00     0.008 C 
HETATM   18  C   UNK N   1      35.114  17.182   9.621  0.00  0.00     0.031 C 
HETATM   19  C   UNK N   1      35.085  16.228  10.812  0.00  0.00     0.272 C 
HETATM   20  N   UNK N   1      34.812  14.864  10.362  0.00  0.00     0.084 N 
HETATM   21  C   UNK N   1      33.485  14.811   9.745  0.00  0.00     0.276 C 
HETATM   22  C   UNK N   1      34.769  14.024  11.545  0.00  0.00     0.309 C 
ENDBRANCH  15  16
ENDBRANCH   2  15
TORSDOF 2
ENDMDL
MODEL 3
REMARK VINA RESULT:      -6.6      1.821      5.155
REMARK  2 active torsions:
REMARK  status: ('A' for Active; 'I' for Inactive)
REMARK    1  A    between atoms: C_3  and  C_4 
REMARK    2  A    between atoms: C_4  and  C_7 
ROOT
HETATM    1  S   UNK N   1      29.926  26.702  -4.494  0.00  0.00    -0.089 SA
HETATM    2  C   UNK N   1      27.205  25.110  -3.635  0.00  0.00     0.054 C 
HETATM    3  C   UNK N   1      27.143  26.580  -3.970  0.00  0.00    -0.032 A 
HETATM    4  C   UNK N   1      28.551  24.467  -3.429  0.00  0.00    -0.032 A 
HETATM    5  C   UNK N   1      28.267  27.355  -4.330  0.00  0.00     0.012 A 
HETATM    6  C   UNK N   1      29.778  25.086  -3.743  0.00  0.00     0.012 A 
HETATM    7  C   UNK N   1      28.561  23.175  -2.878  0.00  0.00     0.009 A 
HETATM    8  C   UNK N   1      25.888  27.209  -3.898  0.00  0.00     0.009 A 
HETATM    9  C   UNK N   1      28.105  28.715  -4.620  0.00  0.00     0.019 A 
HETATM   10  C   UNK N   1      30.977  24.399  -3.503  0.00  0.00     0.019 A 
HETATM   11  C   UNK N   1      25.739  28.563  -4.192  0.00  0.00     0.001 A 
HETATM   12  C   UNK N   1      29.762  22.501  -2.647  0.00  0.00     0.001 A 
HETATM   13  C   UNK N   1      26.850  29.319  -4.554  0.00  0.00     0.001 A 
HETATM   14  C   UNK N   1      30.971  23.116  -2.957  0.00  0.00     0.001 A 
ENDROOT
BRANCH   2  15
HETATM   15  C   UNK N   1      26.368  24.259  -4.599  0.00  0.00     0.020 C 
BRANCH  15  16
HETATM   16  C   UNK N   1      26.956  24.262  -6.001  0.00  0.00     0.015 C 
HETATM   17  C   UNK N   1      27.131  22.832  -6.503  0.00  0.00     0.008 C 
HETATM   18  C   UNK N   1      27.669  22.850  -7.929  0.00  0.00     0.031 C 
HETATM   19  C   UNK N   1      26.733  23.675  -8.810  0.00  0.00     0.272 C 
HETATM   20  N   UNK N   1      26.629  25.041  -8.298  0.00  0.00     0.084 N 
HETATM   21  C   UNK N   1      26.036  25.015  -6.959  0.00  0.00     0.276 C 
HETATM   22  C   UNK N   1      25.705  25.751  -9.162  0.00  0.00     0.309 C 
ENDBRANCH  15  16
ENDBRANCH   2  15
TORSDOF 2
ENDMDL
MODEL 4
REMARK VINA RESULT:      -6.6      1.626      2.292
REMARK  2 active torsions:
REMARK  status: ('A' for Active; 'I' for Inactive)
REMARK    1  A    between atoms: C_3  and  C_4 
REMARK    2  A    between atoms: C_4  and  C_7 
ROOT
HETATM    1  S   UNK N   1      27.311  26.751  -7.341  0.00  0.00    -0.089 SA
HETATM    2  C   UNK N   1      26.194  25.371  -4.598  0.00  0.00     0.054 C 
HETATM    3  C   UNK N   1      26.188  24.590  -5.890  0.00  0.00    -0.032 A 
HETATM    4  C   UNK N   1      26.450  26.854  -4.645  0.00  0.00    -0.032 A 
HETATM    5  C   UNK N   1      26.630  25.109  -7.127  0.00  0.00     0.012 A 
HETATM    6  C   UNK N   1      26.904  27.541  -5.790  0.00  0.00     0.012 A 
HETATM    7  C   UNK N   1      26.201  27.580  -3.470  0.00  0.00     0.009 A 
HETATM    8  C   UNK N   1      25.693  23.276  -5.851  0.00  0.00     0.009 A 
HETATM    9  C   UNK N   1      26.580  24.305  -8.272  0.00  0.00     0.019 A 
HETATM   10  C   UNK N   1      27.102  28.927  -5.727  0.00  0.00     0.019 A 
HETATM   11  C   UNK N   1      25.652  22.483  -6.997  0.00  0.00     0.001 A 
HETATM   12  C   UNK N   1      26.404  28.961  -3.420  0.00  0.00     0.001 A 
HETATM   13  C   UNK N   1      26.097  22.998  -8.211  0.00  0.00     0.001 A 
HETATM   14  C   UNK N   1      26.853  29.635  -4.551  0.00  0.00     0.001 A 
ENDROOT
BRANCH   2  15
HETATM   15  C   UNK N   1      27.092  24.726  -3.535  0.00  0.00     0.020 C 
BRANCH  15  16
HETATM   16  C   UNK N   1      28.465  24.389  -4.093  0.00  0.00     0.015 C 
HETATM   17  C   UNK N   1      29.432  25.543  -3.849  0.00  0.00     0.008 C 
HETATM   18  C   UNK N   1      30.818  25.171  -4.364  0.00  0.00     0.031 C 
HETATM   19  C   UNK N   1      31.269  23.872  -3.700  0.00  0.00     0.272 C 
HETATM   20  N   UNK N   1      30.322  22.798  -3.993  0.00  0.00     0.084 N 
HETATM   21  C   UNK N   1      29.015  23.132  -3.424  0.00  0.00     0.276 C 
HETATM   22  C   UNK N   1      30.798  21.611  -3.308  0.00  0.00     0.309 C 
ENDBRANCH  15  16
ENDBRANCH   2  15
TORSDOF 2
ENDMDL
MODEL 5
REMARK VINA RESULT:      -6.4     13.748     15.666
REMARK  2 active torsions:
REMARK  status: ('A' for Active; 'I' for Inactive)
REMARK    1  A    between atoms: C_3  and  C_4 
REMARK    2  A    between atoms: C_4  and  C_7 
ROOT
HETATM    1  S   UNK N   1      32.305  17.394   7.303  0.00  0.00    -0.089 SA
HETATM    2  C   UNK N   1      29.477  16.916   5.737  0.00  0.00     0.054 C 
HETATM    3  C   UNK N   1      30.775  16.915   4.966  0.00  0.00    -0.032 A 
HETATM    4  C   UNK N   1      29.476  17.412   7.159  0.00  0.00    -0.032 A 
HETATM    5  C   UNK N   1      32.041  17.135   5.552  0.00  0.00     0.012 A 
HETATM    6  C   UNK N   1      30.644  17.673   7.905  0.00  0.00     0.012 A 
HETATM    7  C   UNK N   1      28.224  17.633   7.754  0.00  0.00     0.009 A 
HETATM    8  C   UNK N   1      30.705  16.702   3.578  0.00  0.00     0.009 A 
HETATM    9  C   UNK N   1      33.188  17.118   4.748  0.00  0.00     0.019 A 
HETATM   10  C   UNK N   1      30.529  18.141   9.221  0.00  0.00     0.019 A 
HETATM   11  C   UNK N   1      31.853  16.684   2.789  0.00  0.00     0.001 A 
HETATM   12  C   UNK N   1      28.124  18.096   9.068  0.00  0.00     0.001 A 
HETATM   13  C   UNK N   1      33.098  16.892   3.375  0.00  0.00     0.001 A 
HETATM   14  C   UNK N   1      29.278  18.354   9.800  0.00  0.00     0.001 A 
ENDROOT
BRANCH   2  15
HETATM   15  C   UNK N   1      28.757  15.564   5.661  0.00  0.00     0.020 C 
BRANCH  15  16
HETATM   16  C   UNK N   1      27.439  15.674   4.912  0.00  0.00     0.015 C 
HETATM   17  C   UNK N   1      27.317  17.047   4.257  0.00  0.00     0.008 C 
HETATM   18  C   UNK N   1      26.018  17.126   3.465  0.00  0.00     0.031 C 
HETATM   19  C   UNK N   1      25.975  15.983   2.453  0.00  0.00     0.272 C 
HETATM   20  N   UNK N   1      26.066  14.695   3.139  0.00  0.00     0.084 N 
HETATM   21  C   UNK N   1      27.353  14.600   3.830  0.00  0.00     0.276 C 
HETATM   22  C   UNK N   1      26.051  13.665   2.118  0.00  0.00     0.309 C 
ENDBRANCH  15  16
ENDBRANCH   2  15
TORSDOF 2
ENDMDL
MODEL 6
REMARK VINA RESULT:      -6.4     24.252     28.167
REMARK  2 active torsions:
REMARK  status: ('A' for Active; 'I' for Inactive)
REMARK    1  A    between atoms: C_3  and  C_4 
REMARK    2  A    between atoms: C_4  and  C_7 
ROOT
HETATM    1  S   UNK N   1      36.185   9.061  18.030  0.00  0.00    -0.089 SA
HETATM    2  C   UNK N   1      35.694  11.081  15.508  0.00  0.00     0.054 C 
HETATM    3  C   UNK N   1      35.566  11.595  16.922  0.00  0.00    -0.032 A 
HETATM    4  C   UNK N   1      35.769   9.594  15.279  0.00  0.00    -0.032 A 
HETATM    5  C   UNK N   1      35.738  10.793  18.071  0.00  0.00     0.012 A 
HETATM    6  C   UNK N   1      35.950   8.645  16.306  0.00  0.00     0.012 A 
HETATM    7  C   UNK N   1      35.635   9.147  13.955  0.00  0.00     0.009 A 
HETATM    8  C   UNK N   1      35.236  12.951  17.091  0.00  0.00     0.009 A 
HETATM    9  C   UNK N   1      35.593  11.365  19.341  0.00  0.00     0.019 A 
HETATM   10  C   UNK N   1      35.997   7.282  15.983  0.00  0.00     0.019 A 
HETATM   11  C   UNK N   1      35.098  13.510  18.360  0.00  0.00     0.001 A 
HETATM   12  C   UNK N   1      35.687   7.786  13.646  0.00  0.00     0.001 A 
HETATM   13  C   UNK N   1      35.278  12.716  19.489  0.00  0.00     0.001 A 
HETATM   14  C   UNK N   1      35.865   6.853  14.662  0.00  0.00     0.001 A 
ENDROOT
BRANCH   2  15
HETATM   15  C   UNK N   1      36.821  11.779  14.737  0.00  0.00     0.020 C 
BRANCH  15  16
HETATM   16  C   UNK N   1      36.286  12.545  13.538  0.00  0.00     0.015 C 
HETATM   17  C   UNK N   1      36.408  14.047  13.774  0.00  0.00     0.008 C 
HETATM   18  C   UNK N   1      35.920  14.803  12.544  0.00  0.00     0.031 C 
HETATM   19  C   UNK N   1      36.703  14.332  11.320  0.00  0.00     0.272 C 
HETATM   20  N   UNK N   1      36.524  12.893  11.128  0.00  0.00     0.084 N 
HETATM   21  C   UNK N   1      37.070  12.176  12.281  0.00  0.00     0.276 C 
HETATM   22  C   UNK N   1      37.317  12.516   9.973  0.00  0.00     0.309 C 
ENDBRANCH  15  16
ENDBRANCH   2  15
TORSDOF 2
ENDMDL
MODEL 7
REMARK VINA RESULT:      -6.3     12.962     15.941
REMARK  2 active torsions:
REMARK  status: ('A' for Active; 'I' for Inactive)
REMARK    1  A    between atoms: C_3  and  C_4 
REMARK    2  A    between atoms: C_4  and  C_7 
ROOT
HETATM    1  S   UNK N   1      28.615  18.846   8.236  0.00  0.00    -0.089 SA
HETATM    2  C   UNK N   1      28.861  17.579   5.234  0.00  0.00     0.054 C 
HETATM    3  C   UNK N   1      29.754  17.072   6.341  0.00  0.00    -0.032 A 
HETATM    4  C   UNK N   1      28.073  18.843   5.456  0.00  0.00    -0.032 A 
HETATM    5  C   UNK N   1      29.735  17.573   7.661  0.00  0.00     0.012 A 
HETATM    6  C   UNK N   1      27.934  19.477   6.708  0.00  0.00     0.012 A 
HETATM    7  C   UNK N   1      27.457  19.415   4.332  0.00  0.00     0.009 A 
HETATM    8  C   UNK N   1      30.668  16.054   6.021  0.00  0.00     0.009 A 
HETATM    9  C   UNK N   1      30.607  17.037   8.617  0.00  0.00     0.019 A 
HETATM   10  C   UNK N   1      27.183  20.657   6.802  0.00  0.00     0.019 A 
HETATM   11  C   UNK N   1      31.530  15.527   6.981  0.00  0.00     0.001 A 
HETATM   12  C   UNK N   1      26.710  20.590   4.440  0.00  0.00     0.001 A 
HETATM   13  C   UNK N   1      31.499  16.019   8.283  0.00  0.00     0.001 A 
HETATM   14  C   UNK N   1      26.576  21.213   5.676  0.00  0.00     0.001 A 
ENDROOT
BRANCH   2  15
HETATM   15  C   UNK N   1      27.937  16.484   4.687  0.00  0.00     0.020 C 
BRANCH  15  16
HETATM   16  C   UNK N   1      26.636  16.408   5.470  0.00  0.00     0.015 C 
HETATM   17  C   UNK N   1      25.444  16.500   4.523  0.00  0.00     0.008 C 
HETATM   18  C   UNK N   1      24.148  16.367   5.313  0.00  0.00     0.031 C 
HETATM   19  C   UNK N   1      24.173  15.062   6.106  0.00  0.00     0.272 C 
HETATM   20  N   UNK N   1      25.318  15.044   7.016  0.00  0.00     0.084 N 
HETATM   21  C   UNK N   1      26.558  15.092   6.239  0.00  0.00     0.276 C 
HETATM   22  C   UNK N   1      25.293  13.769   7.708  0.00  0.00     0.309 C 
ENDBRANCH  15  16
ENDBRANCH   2  15
TORSDOF 2
ENDMDL
MODEL 8
REMARK VINA RESULT:      -6.3      2.171      3.280
REMARK  2 active torsions:
REMARK  status: ('A' for Active; 'I' for Inactive)
REMARK    1  A    between atoms: C_3  and  C_4 
REMARK    2  A    between atoms: C_4  and  C_7 
ROOT
HETATM    1  S   UNK N   1      25.758  25.159  -7.756  0.00  0.00    -0.089 SA
HETATM    2  C   UNK N   1      27.937  24.390  -5.445  0.00  0.00     0.054 C 
HETATM    3  C   UNK N   1      27.703  23.450  -6.603  0.00  0.00    -0.032 A 
HETATM    4  C   UNK N   1      26.972  25.525  -5.223  0.00  0.00    -0.032 A 
HETATM    5  C   UNK N   1      26.769  23.686  -7.634  0.00  0.00     0.012 A 
HETATM    6  C   UNK N   1      25.981  25.911  -6.148  0.00  0.00     0.012 A 
HETATM    7  C   UNK N   1      27.075  26.219  -4.007  0.00  0.00     0.009 A 
HETATM    8  C   UNK N   1      28.453  22.262  -6.634  0.00  0.00     0.009 A 
HETATM    9  C   UNK N   1      26.623  22.748  -8.664  0.00  0.00     0.019 A 
HETATM   10  C   UNK N   1      25.127  26.978  -5.837  0.00  0.00     0.019 A 
HETATM   11  C   UNK N   1      28.302  21.337  -7.666  0.00  0.00     0.001 A 
HETATM   12  C   UNK N   1      26.220  27.282  -3.710  0.00  0.00     0.001 A 
HETATM   13  C   UNK N   1      27.385  21.581  -8.684  0.00  0.00     0.001 A 
HETATM   14  C   UNK N   1      25.242  27.659  -4.626  0.00  0.00     0.001 A 
ENDROOT
BRANCH   2  15
HETATM   15  C   UNK N   1      29.375  24.923  -5.412  0.00  0.00     0.020 C 
BRANCH  15  16
HETATM   16  C   UNK N   1      30.169  24.317  -4.266  0.00  0.00     0.015 C 
HETATM   17  C   UNK N   1      29.248  23.516  -3.351  0.00  0.00     0.008 C 
HETATM   18  C   UNK N   1      30.063  22.870  -2.238  0.00  0.00     0.031 C 
HETATM   19  C   UNK N   1      31.170  22.017  -2.855  0.00  0.00     0.272 C 
HETATM   20  N   UNK N   1      32.036  22.842  -3.695  0.00  0.00     0.084 N 
HETATM   21  C   UNK N   1      31.257  23.392  -4.806  0.00  0.00     0.276 C 
HETATM   22  C   UNK N   1      33.038  21.963  -4.268  0.00  0.00     0.309 C 
ENDBRANCH  15  16
ENDBRANCH   2  15
TORSDOF 2
ENDMDL
MODEL 9
REMARK VINA RESULT:      -6.2     24.744     28.362
REMARK  2 active torsions:
REMARK  status: ('A' for Active; 'I' for Inactive)
REMARK    1  A    between atoms: C_3  and  C_4 
REMARK    2  A    between atoms: C_4  and  C_7 
ROOT
HETATM    1  S   UNK N   1      35.153   9.279  18.843  0.00  0.00    -0.089 SA
HETATM    2  C   UNK N   1      35.211  10.435  15.787  0.00  0.00     0.054 C 
HETATM    3  C   UNK N   1      35.472   8.970  16.043  0.00  0.00    -0.032 A 
HETATM    4  C   UNK N   1      35.205  11.387  16.953  0.00  0.00    -0.032 A 
HETATM    5  C   UNK N   1      35.490   8.385  17.328  0.00  0.00     0.012 A 
HETATM    6  C   UNK N   1      35.209  10.983  18.303  0.00  0.00     0.012 A 
HETATM    7  C   UNK N   1      35.209  12.759  16.653  0.00  0.00     0.009 A 
HETATM    8  C   UNK N   1      35.732   8.153  14.930  0.00  0.00     0.009 A 
HETATM    9  C   UNK N   1      35.747   7.015  17.462  0.00  0.00     0.019 A 
HETATM   10  C   UNK N   1      35.211  11.956  19.313  0.00  0.00     0.019 A 
HETATM   11  C   UNK N   1      35.983   6.790  15.074  0.00  0.00     0.001 A 
HETATM   12  C   UNK N   1      35.209  13.718  17.669  0.00  0.00     0.001 A 
HETATM   13  C   UNK N   1      35.990   6.219  16.343  0.00  0.00     0.001 A 
HETATM   14  C   UNK N   1      35.213  13.314  19.000  0.00  0.00     0.001 A 
ENDROOT
BRANCH   2  15
HETATM   15  C   UNK N   1      33.958  10.659  14.931  0.00  0.00     0.020 C 
BRANCH  15  16
HETATM   16  C   UNK N   1      34.311  11.183  13.549  0.00  0.00     0.015 C 
HETATM   17  C   UNK N   1      35.818  11.388  13.432  0.00  0.00     0.008 C 
HETATM   18  C   UNK N   1      36.166  11.862  12.026  0.00  0.00     0.031 C 
HETATM   19  C   UNK N   1      35.626  10.859  11.009  0.00  0.00     0.272 C 
HETATM   20  N   UNK N   1      34.176  10.726  11.149  0.00  0.00     0.084 N 
HETATM   21  C   UNK N   1      33.861  10.195  12.476  0.00  0.00     0.276 C 
HETATM   22  C   UNK N   1      33.742   9.740  10.178  0.00  0.00     0.309 C 
ENDBRANCH  15  16
ENDBRANCH   2  15
TORSDOF 2
ENDMDL
