REMARK  2 active torsions:
REMARK  status: ('A' for Active; 'I' for Inactive)
REMARK    1  A    between atoms: C_3  and  C_4 
REMARK    2  A    between atoms: C_4  and  C_7 
ROOT
HETATM    1  S   UNK N   1       3.065  -4.076  -0.663  0.00  0.00    -0.089 SA
HETATM    2  C   UNK N   1       3.680  -1.016   0.304  0.00  0.00     0.054 C 
HETATM    3  C   UNK N   1       4.798  -2.029   0.254  0.00  0.00    -0.032 A 
HETATM    4  C   UNK N   1       2.258  -1.495   0.179  0.00  0.00    -0.032 A 
HETATM    5  C   UNK N   1       4.624  -3.377  -0.129  0.00  0.00     0.012 A 
HETATM    6  C   UNK N   1       1.896  -2.803  -0.203  0.00  0.00     0.012 A 
HETATM    7  C   UNK N   1       1.246  -0.569   0.479  0.00  0.00     0.009 A 
HETATM    8  C   UNK N   1       6.081  -1.598   0.632  0.00  0.00     0.009 A 
HETATM    9  C   UNK N   1       5.726  -4.241  -0.139  0.00  0.00     0.019 A 
HETATM   10  C   UNK N   1       0.539  -3.147  -0.280  0.00  0.00     0.019 A 
HETATM   11  C   UNK N   1       7.171  -2.466   0.615  0.00  0.00     0.001 A 
HETATM   12  C   UNK N   1      -0.102  -0.924   0.396  0.00  0.00     0.001 A 
HETATM   13  C   UNK N   1       6.994  -3.791   0.228  0.00  0.00     0.001 A 
HETATM   14  C   UNK N   1      -0.455  -2.216   0.019  0.00  0.00     0.001 A 
ENDROOT
BRANCH   2  15
HETATM   15  C   UNK N   1       3.916   0.156  -0.657  0.00  0.00     0.020 C 
BRANCH  15  16
HETATM   16  C   UNK N   1       4.898   1.163  -0.080  0.00  0.00     0.015 C 
HETATM   17  C   UNK N   1       6.214   1.117  -0.850  0.00  0.00     0.008 C 
HETATM   18  C   UNK N   1       7.170   2.168  -0.298  0.00  0.00     0.031 C 
HETATM   19  C   UNK N   1       6.499   3.539  -0.356  0.00  0.00     0.272 C 
HETATM   20  N   UNK N   1       5.261   3.530   0.422  0.00  0.00     0.084 N 
HETATM   21  C   UNK N   1       4.322   2.574  -0.167  0.00  0.00     0.276 C 
HETATM   22  C   UNK N   1       4.668   4.848   0.295  0.00  0.00     0.309 C 
ENDBRANCH  15  16
ENDBRANCH   2  15
TORSDOF 2
