MODEL 1
REMARK VINA RESULT:      -7.2      0.000      0.000
REMARK  7 active torsions:
REMARK  status: ('A' for Active; 'I' for Inactive)
REMARK    1  A    between atoms: S_1  and  N_6 
REMARK    2  A    between atoms: S_1  and  C_18 
REMARK    3  A    between atoms: O_4  and  C_25 
REMARK    4  A    between atoms: O_4  and  C_34 
REMARK    5  A    between atoms: C_21  and  C_23 
REMARK    6  A    between atoms: C_27  and  C_29 
REMARK    7  A    between atoms: C_29  and  C_31 
ROOT
HETATM    1  C   UNK N   1      26.620  27.435  -4.253  0.00  0.00     0.075 A 
HETATM    2  C   UNK N   1      27.416  26.352  -3.932  0.00  0.00     0.042 A 
HETATM    3  C   UNK N   1      27.145  25.085  -4.435  0.00  0.00     0.043 A 
HETATM    4  C   UNK N   1      25.496  27.265  -5.066  0.00  0.00     0.027 A 
HETATM    5  C   UNK N   1      26.018  24.891  -5.266  0.00  0.00     0.082 A 
HETATM    6  C   UNK N   1      25.187  25.992  -5.562  0.00  0.00     0.039 A 
ENDROOT
BRANCH   3   7
HETATM    7  C   UNK N   1      28.143  24.040  -4.173  0.00  0.00     0.121 A 
HETATM    8  N   UNK N   1      28.562  23.242  -5.198  0.00  0.00    -0.338 N 
HETATM    9  C   UNK N   1      29.638  22.452  -4.995  0.00  0.00     0.092 A 
HETATM   10  H   UNK N   1      28.094  23.242  -6.064  0.00  0.00     0.167 HD
HETATM   11  C   UNK N   1      30.310  21.631  -5.857  0.00  0.00     0.055 A 
HETATM   12  C   UNK N   1      30.298  22.397  -3.817  0.00  0.00     0.147 A 
HETATM   13  N   UNK N   1      31.357  21.082  -5.192  0.00  0.00    -0.300 N 
HETATM   14  N   UNK N   1      31.338  21.552  -3.947  0.00  0.00    -0.289 N 
ATOM     15  HN  UNK N   1      32.039  20.427  -5.578  1.00  0.00     0.187 HD
HETATM   16  C   UNK N   1      32.332  21.222  -2.937  0.00  0.00     0.178 C 
HETATM   17  C   UNK N   1      29.869  23.172  -2.750  0.00  0.00     0.277 A 
HETATM   18  O   UNK N   1      30.437  23.151  -1.673  0.00  0.00    -0.265 OA
HETATM   19  N   UNK N   1      28.799  24.010  -2.961  0.00  0.00    -0.307 N 
ATOM     20  HN  UNK N   1      28.484  24.619  -2.206  1.00  0.00     0.170 HD
BRANCH  11  21
HETATM   21  C   UNK N   1      29.990  21.435  -7.297  0.00  0.00     0.061 C 
BRANCH  21  22
HETATM   22  C   UNK N   1      28.807  20.511  -7.469  0.00  0.00     0.002 C 
HETATM   23  C   UNK N   1      29.320  19.128  -7.811  0.00  0.00     0.005 C 
ENDBRANCH  21  22
ENDBRANCH  11  21
ENDBRANCH   3   7
BRANCH   5  24
HETATM   24  O   UNK N   1      25.746  23.655  -5.755  0.00  0.00    -0.351 OA
BRANCH  24  25
HETATM   25  C   UNK N   1      25.694  23.352  -7.096  0.00  0.00     0.171 C 
HETATM   26  C   UNK N   1      25.189  21.934  -7.265  0.00  0.00     0.034 C 
ENDBRANCH  24  25
ENDBRANCH   5  24
BRANCH   1  27
HETATM   27  S   UNK N   1      27.099  29.027  -3.632  0.00  0.00     0.243 S 
HETATM   28  O   UNK N   1      27.456  29.025  -2.136  0.00  0.00    -0.206 OA
HETATM   29  O   UNK N   1      25.937  30.037  -3.692  0.00  0.00    -0.206 OA
BRANCH  27  30
HETATM   30  N   UNK N   1      28.452  29.756  -4.514  0.00  0.00    -0.203 NA
HETATM   31  C   UNK N   1      28.385  29.451  -5.936  0.00  0.00     0.138 C 
HETATM   32  C   UNK N   1      29.469  30.257  -6.652  0.00  0.00     0.287 C 
HETATM   33  N   UNK N   1      30.807  29.968  -6.119  0.00  0.00     0.086 N 
HETATM   34  C   UNK N   1      30.860  30.063  -4.653  0.00  0.00     0.287 C 
HETATM   35  C   UNK N   1      31.232  28.643  -6.546  0.00  0.00     0.310 C 
HETATM   36  C   UNK N   1      29.726  29.280  -3.987  0.00  0.00     0.138 C 
ENDBRANCH  27  30
ENDBRANCH   1  27
TORSDOF 7
ENDMDL
MODEL 2
REMARK VINA RESULT:      -7.1     12.466     14.804
REMARK  7 active torsions:
REMARK  status: ('A' for Active; 'I' for Inactive)
REMARK    1  A    between atoms: S_1  and  N_6 
REMARK    2  A    between atoms: S_1  and  C_18 
REMARK    3  A    between atoms: O_4  and  C_25 
REMARK    4  A    between atoms: O_4  and  C_34 
REMARK    5  A    between atoms: C_21  and  C_23 
REMARK    6  A    between atoms: C_27  and  C_29 
REMARK    7  A    between atoms: C_29  and  C_31 
ROOT
HETATM    1  C   UNK N   1      25.577  19.762   4.568  0.00  0.00     0.075 A 
HETATM    2  C   UNK N   1      24.725  18.944   5.287  0.00  0.00     0.042 A 
HETATM    3  C   UNK N   1      23.424  18.706   4.860  0.00  0.00     0.043 A 
HETATM    4  C   UNK N   1      25.126  20.400   3.409  0.00  0.00     0.027 A 
HETATM    5  C   UNK N   1      22.950  19.335   3.686  0.00  0.00     0.082 A 
HETATM    6  C   UNK N   1      23.811  20.198   2.975  0.00  0.00     0.039 A 
ENDROOT
BRANCH   3   7
HETATM    7  C   UNK N   1      22.657  17.694   5.597  0.00  0.00     0.121 A 
HETATM    8  N   UNK N   1      23.177  16.442   5.755  0.00  0.00    -0.338 N 
HETATM    9  C   UNK N   1      22.575  15.604   6.624  0.00  0.00     0.092 A 
HETATM   10  H   UNK N   1      23.971  16.156   5.247  0.00  0.00     0.167 HD
HETATM   11  C   UNK N   1      22.926  14.347   7.031  0.00  0.00     0.055 A 
HETATM   12  C   UNK N   1      21.469  15.940   7.324  0.00  0.00     0.147 A 
HETATM   13  N   UNK N   1      22.026  13.933   7.958  0.00  0.00    -0.300 N 
HETATM   14  N   UNK N   1      21.138  14.910   8.126  0.00  0.00    -0.289 N 
ATOM     15  HN  UNK N   1      22.031  13.034   8.442  1.00  0.00     0.187 HD
HETATM   16  C   UNK N   1      20.037  14.855   9.074  0.00  0.00     0.178 C 
HETATM   17  C   UNK N   1      20.901  17.194   7.155  0.00  0.00     0.277 A 
HETATM   18  O   UNK N   1      19.905  17.534   7.767  0.00  0.00    -0.265 OA
HETATM   19  N   UNK N   1      21.532  18.068   6.301  0.00  0.00    -0.307 N 
ATOM     20  HN  UNK N   1      21.160  19.011   6.185  1.00  0.00     0.170 HD
BRANCH  11  21
HETATM   21  C   UNK N   1      24.131  13.595   6.587  0.00  0.00     0.061 C 
BRANCH  21  22
HETATM   22  C   UNK N   1      25.263  13.751   7.575  0.00  0.00     0.002 C 
HETATM   23  C   UNK N   1      26.026  15.014   7.239  0.00  0.00     0.005 C 
ENDBRANCH  21  22
ENDBRANCH  11  21
ENDBRANCH   3   7
BRANCH   5  24
HETATM   24  O   UNK N   1      21.679  19.112   3.268  0.00  0.00    -0.351 OA
BRANCH  24  25
HETATM   25  C   UNK N   1      20.725  20.096   3.145  0.00  0.00     0.171 C 
HETATM   26  C   UNK N   1      20.625  20.511   1.692  0.00  0.00     0.034 C 
ENDBRANCH  24  25
ENDBRANCH   5  24
BRANCH   1  27
HETATM   27  S   UNK N   1      27.245  19.932   5.149  0.00  0.00     0.243 S 
HETATM   28  O   UNK N   1      27.533  21.289   5.813  0.00  0.00    -0.206 OA
HETATM   29  O   UNK N   1      28.258  19.911   3.989  0.00  0.00    -0.206 OA
BRANCH  27  30
HETATM   30  N   UNK N   1      27.737  18.657   6.278  0.00  0.00    -0.203 NA
HETATM   31  C   UNK N   1      28.021  19.199   7.598  0.00  0.00     0.138 C 
HETATM   32  C   UNK N   1      28.258  18.031   8.556  0.00  0.00     0.287 C 
HETATM   33  N   UNK N   1      29.352  17.163   8.101  0.00  0.00     0.086 N 
HETATM   34  C   UNK N   1      29.205  16.764   6.693  0.00  0.00     0.287 C 
HETATM   35  C   UNK N   1      30.628  17.838   8.294  0.00  0.00     0.310 C 
HETATM   36  C   UNK N   1      28.921  17.963   5.785  0.00  0.00     0.138 C 
ENDBRANCH  27  30
ENDBRANCH   1  27
TORSDOF 7
ENDMDL
MODEL 3
REMARK VINA RESULT:      -7.1     11.161     12.890
REMARK  7 active torsions:
REMARK  status: ('A' for Active; 'I' for Inactive)
REMARK    1  A    between atoms: S_1  and  N_6 
REMARK    2  A    between atoms: S_1  and  C_18 
REMARK    3  A    between atoms: O_4  and  C_25 
REMARK    4  A    between atoms: O_4  and  C_34 
REMARK    5  A    between atoms: C_21  and  C_23 
REMARK    6  A    between atoms: C_27  and  C_29 
REMARK    7  A    between atoms: C_29  and  C_31 
ROOT
HETATM    1  C   UNK N   1      25.337  20.078   3.993  0.00  0.00     0.075 A 
HETATM    2  C   UNK N   1      26.163  19.098   3.475  0.00  0.00     0.042 A 
HETATM    3  C   UNK N   1      27.254  18.622   4.193  0.00  0.00     0.043 A 
HETATM    4  C   UNK N   1      25.612  20.641   5.242  0.00  0.00     0.027 A 
HETATM    5  C   UNK N   1      27.546  19.171   5.462  0.00  0.00     0.082 A 
HETATM    6  C   UNK N   1      26.723  20.198   5.971  0.00  0.00     0.039 A 
ENDROOT
BRANCH   3   7
HETATM    7  C   UNK N   1      27.965  17.467   3.632  0.00  0.00     0.121 A 
HETATM    8  N   UNK N   1      29.328  17.489   3.559  0.00  0.00    -0.338 N 
HETATM    9  C   UNK N   1      29.972  16.341   3.263  0.00  0.00     0.092 A 
HETATM   10  H   UNK N   1      29.830  18.322   3.718  0.00  0.00     0.167 HD
HETATM   11  C   UNK N   1      31.310  16.063   3.208  0.00  0.00     0.055 A 
HETATM   12  C   UNK N   1      29.328  15.180   3.011  0.00  0.00     0.147 A 
HETATM   13  N   UNK N   1      31.460  14.748   2.913  0.00  0.00    -0.300 N 
HETATM   14  N   UNK N   1      30.244  14.219   2.789  0.00  0.00    -0.289 N 
ATOM     15  HN  UNK N   1      32.346  14.252   2.806  1.00  0.00     0.187 HD
HETATM   16  C   UNK N   1      29.993  12.814   2.514  0.00  0.00     0.178 C 
HETATM   17  C   UNK N   1      27.942  15.140   3.044  0.00  0.00     0.277 A 
HETATM   18  O   UNK N   1      27.325  14.114   2.823  0.00  0.00    -0.265 OA
HETATM   19  N   UNK N   1      27.280  16.296   3.385  0.00  0.00    -0.307 N 
ATOM     20  HN  UNK N   1      26.262  16.288   3.454  1.00  0.00     0.170 HD
BRANCH  11  21
HETATM   21  C   UNK N   1      32.409  17.025   3.497  0.00  0.00     0.061 C 
BRANCH  21  22
HETATM   22  C   UNK N   1      33.348  16.475   4.544  0.00  0.00     0.002 C 
HETATM   23  C   UNK N   1      33.417  17.456   5.694  0.00  0.00     0.005 C 
ENDBRANCH  21  22
ENDBRANCH  11  21
ENDBRANCH   3   7
BRANCH   5  24
HETATM   24  O   UNK N   1      28.614  18.716   6.164  0.00  0.00    -0.351 OA
BRANCH  24  25
HETATM   25  C   UNK N   1      28.536  17.751   7.143  0.00  0.00     0.171 C 
HETATM   26  C   UNK N   1      29.885  17.076   7.282  0.00  0.00     0.034 C 
ENDBRANCH  24  25
ENDBRANCH   5  24
BRANCH   1  27
HETATM   27  S   UNK N   1      23.920  20.555   3.037  0.00  0.00     0.243 S 
HETATM   28  O   UNK N   1      24.108  20.375   1.521  0.00  0.00    -0.206 OA
HETATM   29  O   UNK N   1      23.633  22.064   3.156  0.00  0.00    -0.206 OA
BRANCH  27  30
HETATM   30  N   UNK N   1      22.432  19.715   3.506  0.00  0.00    -0.203 NA
HETATM   31  C   UNK N   1      22.664  18.291   3.698  0.00  0.00     0.138 C 
HETATM   32  C   UNK N   1      21.391  17.670   4.275  0.00  0.00     0.287 C 
HETATM   33  N   UNK N   1      20.229  17.898   3.405  0.00  0.00     0.086 N 
HETATM   34  C   UNK N   1      20.085  19.309   3.017  0.00  0.00     0.287 C 
HETATM   35  C   UNK N   1      20.334  17.065   2.216  0.00  0.00     0.310 C 
HETATM   36  C   UNK N   1      21.398  19.896   2.493  0.00  0.00     0.138 C 
ENDBRANCH  27  30
ENDBRANCH   1  27
TORSDOF 7
ENDMDL
MODEL 4
REMARK VINA RESULT:      -7.0     12.280     16.641
REMARK  7 active torsions:
REMARK  status: ('A' for Active; 'I' for Inactive)
REMARK    1  A    between atoms: S_1  and  N_6 
REMARK    2  A    between atoms: S_1  and  C_18 
REMARK    3  A    between atoms: O_4  and  C_25 
REMARK    4  A    between atoms: O_4  and  C_34 
REMARK    5  A    between atoms: C_21  and  C_23 
REMARK    6  A    between atoms: C_27  and  C_29 
REMARK    7  A    between atoms: C_29  and  C_31 
ROOT
HETATM    1  C   UNK N   1      32.952  15.978   7.226  0.00  0.00     0.075 A 
HETATM    2  C   UNK N   1      31.712  15.842   6.631  0.00  0.00     0.042 A 
HETATM    3  C   UNK N   1      30.660  16.690   6.956  0.00  0.00     0.043 A 
HETATM    4  C   UNK N   1      33.159  16.956   8.202  0.00  0.00     0.027 A 
HETATM    5  C   UNK N   1      30.850  17.692   7.935  0.00  0.00     0.082 A 
HETATM    6  C   UNK N   1      32.107  17.805   8.567  0.00  0.00     0.039 A 
ENDROOT
BRANCH   3   7
HETATM    7  C   UNK N   1      29.438  16.573   6.150  0.00  0.00     0.121 A 
HETATM    8  N   UNK N   1      28.821  17.705   5.700  0.00  0.00    -0.338 N 
HETATM    9  C   UNK N   1      27.846  17.577   4.775  0.00  0.00     0.092 A 
HETATM   10  H   UNK N   1      29.080  18.592   6.039  0.00  0.00     0.167 HD
HETATM   11  C   UNK N   1      27.132  18.528   4.102  0.00  0.00     0.055 A 
HETATM   12  C   UNK N   1      27.437  16.380   4.298  0.00  0.00     0.147 A 
HETATM   13  N   UNK N   1      26.295  17.901   3.239  0.00  0.00    -0.300 N 
HETATM   14  N   UNK N   1      26.485  16.590   3.370  0.00  0.00    -0.289 N 
ATOM     15  HN  UNK N   1      25.638  18.354   2.601  1.00  0.00     0.187 HD
HETATM   16  C   UNK N   1      25.795  15.585   2.578  0.00  0.00     0.178 C 
HETATM   17  C   UNK N   1      28.024  15.214   4.767  0.00  0.00     0.277 A 
HETATM   18  O   UNK N   1      27.684  14.118   4.362  0.00  0.00    -0.265 OA
HETATM   19  N   UNK N   1      29.047  15.338   5.679  0.00  0.00    -0.307 N 
ATOM     20  HN  UNK N   1      29.523  14.501   6.013  1.00  0.00     0.170 HD
BRANCH  11  21
HETATM   21  C   UNK N   1      27.301  20.001   4.242  0.00  0.00     0.061 C 
BRANCH  21  22
HETATM   22  C   UNK N   1      26.518  20.528   5.421  0.00  0.00     0.002 C 
HETATM   23  C   UNK N   1      27.442  21.364   6.279  0.00  0.00     0.005 C 
ENDBRANCH  21  22
ENDBRANCH  11  21
ENDBRANCH   3   7
BRANCH   5  24
HETATM   24  O   UNK N   1      29.825  18.519   8.262  0.00  0.00    -0.351 OA
BRANCH  24  25
HETATM   25  C   UNK N   1      29.168  18.490   9.470  0.00  0.00     0.171 C 
HETATM   26  C   UNK N   1      27.944  17.607   9.349  0.00  0.00     0.034 C 
ENDBRANCH  24  25
ENDBRANCH   5  24
BRANCH   1  27
HETATM   27  S   UNK N   1      34.253  14.903   6.679  0.00  0.00     0.243 S 
HETATM   28  O   UNK N   1      35.439  15.643   6.037  0.00  0.00    -0.206 OA
HETATM   29  O   UNK N   1      33.788  13.976   5.541  0.00  0.00    -0.206 OA
BRANCH  27  30
HETATM   30  N   UNK N   1      34.893  13.856   7.958  0.00  0.00    -0.203 NA
HETATM   31  C   UNK N   1      33.827  13.336   8.802  0.00  0.00     0.138 C 
HETATM   32  C   UNK N   1      34.429  12.305   9.757  0.00  0.00     0.287 C 
HETATM   33  N   UNK N   1      35.507  12.881  10.573  0.00  0.00     0.086 N 
HETATM   34  C   UNK N   1      36.502  13.601   9.764  0.00  0.00     0.287 C 
HETATM   35  C   UNK N   1      34.943  13.774  11.575  0.00  0.00     0.310 C 
HETATM   36  C   UNK N   1      35.845  14.583   8.790  0.00  0.00     0.138 C 
ENDBRANCH  27  30
ENDBRANCH   1  27
TORSDOF 7
ENDMDL
MODEL 5
REMARK VINA RESULT:      -7.0     12.241     15.551
REMARK  7 active torsions:
REMARK  status: ('A' for Active; 'I' for Inactive)
REMARK    1  A    between atoms: S_1  and  N_6 
REMARK    2  A    between atoms: S_1  and  C_18 
REMARK    3  A    between atoms: O_4  and  C_25 
REMARK    4  A    between atoms: O_4  and  C_34 
REMARK    5  A    between atoms: C_21  and  C_23 
REMARK    6  A    between atoms: C_27  and  C_29 
REMARK    7  A    between atoms: C_29  and  C_31 
ROOT
HETATM    1  C   UNK N   1      32.275  16.988   5.795  0.00  0.00     0.075 A 
HETATM    2  C   UNK N   1      30.908  17.126   5.945  0.00  0.00     0.042 A 
HETATM    3  C   UNK N   1      30.036  16.831   4.904  0.00  0.00     0.043 A 
HETATM    4  C   UNK N   1      32.810  16.582   4.569  0.00  0.00     0.027 A 
HETATM    5  C   UNK N   1      30.555  16.411   3.658  0.00  0.00     0.082 A 
HETATM    6  C   UNK N   1      31.953  16.307   3.497  0.00  0.00     0.039 A 
ENDROOT
BRANCH   3   7
HETATM    7  C   UNK N   1      28.601  16.847   5.215  0.00  0.00     0.121 A 
HETATM    8  N   UNK N   1      27.911  18.022   5.136  0.00  0.00    -0.338 N 
HETATM    9  C   UNK N   1      26.563  17.977   5.194  0.00  0.00     0.092 A 
HETATM   10  H   UNK N   1      28.383  18.880   5.038  0.00  0.00     0.167 HD
HETATM   11  C   UNK N   1      25.637  18.973   5.059  0.00  0.00     0.055 A 
HETATM   12  C   UNK N   1      25.871  16.827   5.355  0.00  0.00     0.147 A 
HETATM   13  N   UNK N   1      24.401  18.420   5.150  0.00  0.00    -0.300 N 
HETATM   14  N   UNK N   1      24.555  17.111   5.336  0.00  0.00    -0.289 N 
ATOM     15  HN  UNK N   1      23.512  18.918   5.086  1.00  0.00     0.187 HD
HETATM   16  C   UNK N   1      23.453  16.169   5.440  0.00  0.00     0.178 C 
HETATM   17  C   UNK N   1      26.552  15.624   5.473  0.00  0.00     0.277 A 
HETATM   18  O   UNK N   1      25.965  14.567   5.619  0.00  0.00    -0.265 OA
HETATM   19  N   UNK N   1      27.923  15.656   5.374  0.00  0.00    -0.307 N 
ATOM     20  HN  UNK N   1      28.449  14.784   5.420  1.00  0.00     0.170 HD
BRANCH  11  21
HETATM   21  C   UNK N   1      25.935  20.405   4.783  0.00  0.00     0.061 C 
BRANCH  21  22
HETATM   22  C   UNK N   1      26.138  21.174   6.067  0.00  0.00     0.002 C 
HETATM   23  C   UNK N   1      27.619  21.422   6.253  0.00  0.00     0.005 C 
ENDBRANCH  21  22
ENDBRANCH  11  21
ENDBRANCH   3   7
BRANCH   5  24
HETATM   24  O   UNK N   1      29.708  16.128   2.636  0.00  0.00    -0.351 OA
BRANCH  24  25
HETATM   25  C   UNK N   1      29.375  14.852   2.244  0.00  0.00     0.171 C 
HETATM   26  C   UNK N   1      27.900  14.806   1.906  0.00  0.00     0.034 C 
ENDBRANCH  24  25
ENDBRANCH   5  24
BRANCH   1  27
HETATM   27  S   UNK N   1      33.299  17.305   7.210  0.00  0.00     0.243 S 
HETATM   28  O   UNK N   1      32.604  18.136   8.302  0.00  0.00    -0.206 OA
HETATM   29  O   UNK N   1      34.513  18.182   6.851  0.00  0.00    -0.206 OA
BRANCH  27  30
HETATM   30  N   UNK N   1      33.939  15.836   7.967  0.00  0.00    -0.203 NA
HETATM   31  C   UNK N   1      32.928  15.173   8.778  0.00  0.00     0.138 C 
HETATM   32  C   UNK N   1      33.491  13.830   9.244  0.00  0.00     0.287 C 
HETATM   33  N   UNK N   1      34.741  13.993   9.999  0.00  0.00     0.086 N 
HETATM   34  C   UNK N   1      35.715  14.840   9.295  0.00  0.00     0.287 C 
HETATM   35  C   UNK N   1      34.453  14.554  11.312  0.00  0.00     0.310 C 
HETATM   36  C   UNK N   1      35.090  16.149   8.806  0.00  0.00     0.138 C 
ENDBRANCH  27  30
ENDBRANCH   1  27
TORSDOF 7
ENDMDL
MODEL 6
REMARK VINA RESULT:      -6.9     14.364     18.905
REMARK  7 active torsions:
REMARK  status: ('A' for Active; 'I' for Inactive)
REMARK    1  A    between atoms: S_1  and  N_6 
REMARK    2  A    between atoms: S_1  and  C_18 
REMARK    3  A    between atoms: O_4  and  C_25 
REMARK    4  A    between atoms: O_4  and  C_34 
REMARK    5  A    between atoms: C_21  and  C_23 
REMARK    6  A    between atoms: C_27  and  C_29 
REMARK    7  A    between atoms: C_29  and  C_31 
ROOT
HETATM    1  C   UNK N   1      35.455  14.152   9.303  0.00  0.00     0.075 A 
HETATM    2  C   UNK N   1      34.512  15.090   8.928  0.00  0.00     0.042 A 
HETATM    3  C   UNK N   1      33.444  14.749   8.107  0.00  0.00     0.043 A 
HETATM    4  C   UNK N   1      35.372  12.842   8.825  0.00  0.00     0.027 A 
HETATM    5  C   UNK N   1      33.335  13.427   7.618  0.00  0.00     0.082 A 
HETATM    6  C   UNK N   1      34.321  12.482   7.973  0.00  0.00     0.039 A 
ENDROOT
BRANCH   3   7
HETATM    7  C   UNK N   1      32.408  15.770   7.905  0.00  0.00     0.121 A 
HETATM    8  N   UNK N   1      32.057  16.128   6.636  0.00  0.00    -0.338 N 
HETATM    9  C   UNK N   1      30.953  16.886   6.466  0.00  0.00     0.092 A 
HETATM   10  H   UNK N   1      32.595  15.842   5.862  0.00  0.00     0.167 HD
HETATM   11  C   UNK N   1      30.337  17.312   5.323  0.00  0.00     0.055 A 
HETATM   12  C   UNK N   1      30.198  17.326   7.497  0.00  0.00     0.147 A 
HETATM   13  N   UNK N   1      29.228  18.011   5.672  0.00  0.00    -0.300 N 
HETATM   14  N   UNK N   1      29.155  18.018   7.001  0.00  0.00    -0.289 N 
ATOM     15  HN  UNK N   1      28.568  18.451   5.030  1.00  0.00     0.187 HD
HETATM   16  C   UNK N   1      28.076  18.638   7.753  0.00  0.00     0.178 C 
HETATM   17  C   UNK N   1      30.554  17.005   8.798  0.00  0.00     0.277 A 
HETATM   18  O   UNK N   1      29.900  17.382   9.754  0.00  0.00    -0.265 OA
HETATM   19  N   UNK N   1      31.654  16.199   8.977  0.00  0.00    -0.307 N 
ATOM     20  HN  UNK N   1      31.919  15.916   9.920  1.00  0.00     0.170 HD
BRANCH  11  21
HETATM   21  C   UNK N   1      30.770  16.996   3.934  0.00  0.00     0.061 C 
BRANCH  21  22
HETATM   22  C   UNK N   1      32.194  17.439   3.695  0.00  0.00     0.002 C 
HETATM   23  C   UNK N   1      32.905  16.369   2.895  0.00  0.00     0.005 C 
ENDBRANCH  21  22
ENDBRANCH  11  21
ENDBRANCH   3   7
BRANCH   5  24
HETATM   24  O   UNK N   1      32.299  13.090   6.810  0.00  0.00    -0.351 OA
BRANCH  24  25
HETATM   25  C   UNK N   1      32.441  12.697   5.499  0.00  0.00     0.171 C 
HETATM   26  C   UNK N   1      31.345  13.332   4.668  0.00  0.00     0.034 C 
ENDBRANCH  24  25
ENDBRANCH   5  24
BRANCH   1  27
HETATM   27  S   UNK N   1      36.731  14.665  10.425  0.00  0.00     0.243 S 
HETATM   28  O   UNK N   1      36.739  16.178  10.702  0.00  0.00    -0.206 OA
HETATM   29  O   UNK N   1      38.136  14.430   9.839  0.00  0.00    -0.206 OA
BRANCH  27  30
HETATM   30  N   UNK N   1      36.683  13.826  11.985  0.00  0.00    -0.203 NA
HETATM   31  C   UNK N   1      37.275  12.499  11.892  0.00  0.00     0.138 C 
HETATM   32  C   UNK N   1      37.366  11.913  13.302  0.00  0.00     0.287 C 
HETATM   33  N   UNK N   1      36.051  11.854  13.955  0.00  0.00     0.086 N 
HETATM   34  C   UNK N   1      35.329  13.134  13.883  0.00  0.00     0.287 C 
HETATM   35  C   UNK N   1      35.249  10.798  13.353  0.00  0.00     0.310 C 
HETATM   36  C   UNK N   1      35.311  13.701  12.461  0.00  0.00     0.138 C 
ENDBRANCH  27  30
ENDBRANCH   1  27
TORSDOF 7
ENDMDL
MODEL 7
REMARK VINA RESULT:      -6.9     12.809     16.167
REMARK  7 active torsions:
REMARK  status: ('A' for Active; 'I' for Inactive)
REMARK    1  A    between atoms: S_1  and  N_6 
REMARK    2  A    between atoms: S_1  and  C_18 
REMARK    3  A    between atoms: O_4  and  C_25 
REMARK    4  A    between atoms: O_4  and  C_34 
REMARK    5  A    between atoms: C_21  and  C_23 
REMARK    6  A    between atoms: C_27  and  C_29 
REMARK    7  A    between atoms: C_29  and  C_31 
ROOT
HETATM    1  C   UNK N   1      32.399  17.720   7.773  0.00  0.00     0.075 A 
HETATM    2  C   UNK N   1      31.554  17.017   6.935  0.00  0.00     0.042 A 
HETATM    3  C   UNK N   1      30.175  17.167   7.012  0.00  0.00     0.043 A 
HETATM    4  C   UNK N   1      31.873  18.574   8.746  0.00  0.00     0.027 A 
HETATM    5  C   UNK N   1      29.621  18.031   7.984  0.00  0.00     0.082 A 
HETATM    6  C   UNK N   1      30.485  18.720   8.862  0.00  0.00     0.039 A 
ENDROOT
BRANCH   3   7
HETATM    7  C   UNK N   1      29.375  16.508   5.971  0.00  0.00     0.121 A 
HETATM    8  N   UNK N   1      28.154  15.990   6.291  0.00  0.00    -0.338 N 
HETATM    9  C   UNK N   1      27.340  15.602   5.287  0.00  0.00     0.092 A 
HETATM   10  H   UNK N   1      27.872  15.901   7.231  0.00  0.00     0.167 HD
HETATM   11  C   UNK N   1      26.056  15.136   5.316  0.00  0.00     0.055 A 
HETATM   12  C   UNK N   1      27.692  15.679   3.984  0.00  0.00     0.147 A 
HETATM   13  N   UNK N   1      25.650  14.925   4.039  0.00  0.00    -0.300 N 
HETATM   14  N   UNK N   1      26.657  15.255   3.234  0.00  0.00    -0.289 N 
ATOM     15  HN  UNK N   1      24.735  14.577   3.748  1.00  0.00     0.187 HD
HETATM   16  C   UNK N   1      26.589  15.203   1.783  0.00  0.00     0.178 C 
HETATM   17  C   UNK N   1      28.941  16.169   3.635  0.00  0.00     0.277 A 
HETATM   18  O   UNK N   1      29.295  16.254   2.473  0.00  0.00    -0.265 OA
HETATM   19  N   UNK N   1      29.761  16.604   4.651  0.00  0.00    -0.307 N 
ATOM     20  HN  UNK N   1      30.671  17.004   4.423  1.00  0.00     0.170 HD
BRANCH  11  21
HETATM   21  C   UNK N   1      25.223  14.962   6.538  0.00  0.00     0.061 C 
BRANCH  21  22
HETATM   22  C   UNK N   1      25.156  13.509   6.947  0.00  0.00     0.002 C 
HETATM   23  C   UNK N   1      25.002  13.438   8.451  0.00  0.00     0.005 C 
ENDBRANCH  21  22
ENDBRANCH  11  21
ENDBRANCH   3   7
BRANCH   5  24
HETATM   24  O   UNK N   1      28.275  18.177   8.068  0.00  0.00    -0.351 OA
BRANCH  24  25
HETATM   25  C   UNK N   1      27.617  19.371   7.882  0.00  0.00     0.171 C 
HETATM   26  C   UNK N   1      27.640  19.727   6.410  0.00  0.00     0.034 C 
ENDBRANCH  24  25
ENDBRANCH   5  24
BRANCH   1  27
HETATM   27  S   UNK N   1      34.147  17.525   7.537  0.00  0.00     0.243 S 
HETATM   28  O   UNK N   1      34.966  18.769   7.923  0.00  0.00    -0.206 OA
HETATM   29  O   UNK N   1      34.506  17.342   6.051  0.00  0.00    -0.206 OA
BRANCH  27  30
HETATM   30  N   UNK N   1      34.829  16.135   8.400  0.00  0.00    -0.203 NA
HETATM   31  C   UNK N   1      35.043  15.008   7.504  0.00  0.00     0.138 C 
HETATM   32  C   UNK N   1      35.796  13.920   8.272  0.00  0.00     0.287 C 
HETATM   33  N   UNK N   1      35.070  13.499   9.477  0.00  0.00     0.086 N 
HETATM   34  C   UNK N   1      34.651  14.638  10.308  0.00  0.00     0.287 C 
HETATM   35  C   UNK N   1      33.908  12.706   9.101  0.00  0.00     0.310 C 
HETATM   36  C   UNK N   1      33.947  15.719   9.484  0.00  0.00     0.138 C 
ENDBRANCH  27  30
ENDBRANCH   1  27
TORSDOF 7
ENDMDL
MODEL 8
REMARK VINA RESULT:      -6.9     12.904     15.953
REMARK  7 active torsions:
REMARK  status: ('A' for Active; 'I' for Inactive)
REMARK    1  A    between atoms: S_1  and  N_6 
REMARK    2  A    between atoms: S_1  and  C_18 
REMARK    3  A    between atoms: O_4  and  C_25 
REMARK    4  A    between atoms: O_4  and  C_34 
REMARK    5  A    between atoms: C_21  and  C_23 
REMARK    6  A    between atoms: C_27  and  C_29 
REMARK    7  A    between atoms: C_29  and  C_31 
ROOT
HETATM    1  C   UNK N   1      32.480  17.595   7.809  0.00  0.00     0.075 A 
HETATM    2  C   UNK N   1      31.698  16.779   7.013  0.00  0.00     0.042 A 
HETATM    3  C   UNK N   1      30.310  16.840   7.064  0.00  0.00     0.043 A 
HETATM    4  C   UNK N   1      31.882  18.475   8.714  0.00  0.00     0.027 A 
HETATM    5  C   UNK N   1      29.684  17.729   7.967  0.00  0.00     0.082 A 
HETATM    6  C   UNK N   1      30.486  18.534   8.804  0.00  0.00     0.039 A 
ENDROOT
BRANCH   3   7
HETATM    7  C   UNK N   1      29.574  16.058   6.063  0.00  0.00     0.121 A 
HETATM    8  N   UNK N   1      28.531  16.634   5.396  0.00  0.00    -0.338 N 
HETATM    9  C   UNK N   1      28.021  15.989   4.326  0.00  0.00     0.092 A 
HETATM   10  H   UNK N   1      28.160  17.498   5.688  0.00  0.00     0.167 HD
HETATM   11  C   UNK N   1      27.050  16.368   3.443  0.00  0.00     0.055 A 
HETATM   12  C   UNK N   1      28.478  14.789   3.904  0.00  0.00     0.147 A 
HETATM   13  N   UNK N   1      26.922  15.395   2.506  0.00  0.00    -0.300 N 
HETATM   14  N   UNK N   1      27.795  14.433   2.800  0.00  0.00    -0.289 N 
ATOM     15  HN  UNK N   1      26.274  15.399   1.718  1.00  0.00     0.187 HD
HETATM   16  C   UNK N   1      27.984  13.235   1.999  0.00  0.00     0.178 C 
HETATM   17  C   UNK N   1      29.514  14.167   4.585  0.00  0.00     0.277 A 
HETATM   18  O   UNK N   1      29.953  13.087   4.236  0.00  0.00    -0.265 OA
HETATM   19  N   UNK N   1      30.066  14.837   5.653  0.00  0.00    -0.307 N 
ATOM     20  HN  UNK N   1      30.853  14.422   6.151  1.00  0.00     0.170 HD
BRANCH  11  21
HETATM   21  C   UNK N   1      26.314  17.662   3.463  0.00  0.00     0.061 C 
BRANCH  21  22
HETATM   22  C   UNK N   1      25.078  17.569   4.326  0.00  0.00     0.002 C 
HETATM   23  C   UNK N   1      24.639  18.971   4.693  0.00  0.00     0.005 C 
ENDBRANCH  21  22
ENDBRANCH  11  21
ENDBRANCH   3   7
BRANCH   5  24
HETATM   24  O   UNK N   1      28.330  17.789   8.026  0.00  0.00    -0.351 OA
BRANCH  24  25
HETATM   25  C   UNK N   1      27.614  18.961   8.106  0.00  0.00     0.171 C 
HETATM   26  C   UNK N   1      27.715  19.695   6.785  0.00  0.00     0.034 C 
ENDBRANCH  24  25
ENDBRANCH   5  24
BRANCH   1  27
HETATM   27  S   UNK N   1      34.241  17.503   7.607  0.00  0.00     0.243 S 
HETATM   28  O   UNK N   1      34.973  18.805   7.974  0.00  0.00    -0.206 OA
HETATM   29  O   UNK N   1      34.637  17.306   6.132  0.00  0.00    -0.206 OA
BRANCH  27  30
HETATM   30  N   UNK N   1      34.992  16.180   8.516  0.00  0.00    -0.203 NA
HETATM   31  C   UNK N   1      35.174  15.001   7.683  0.00  0.00     0.138 C 
HETATM   32  C   UNK N   1      35.987  13.975   8.475  0.00  0.00     0.287 C 
HETATM   33  N   UNK N   1      35.336  13.622   9.743  0.00  0.00     0.086 N 
HETATM   34  C   UNK N   1      34.944  14.807  10.522  0.00  0.00     0.287 C 
HETATM   35  C   UNK N   1      34.168  12.792   9.484  0.00  0.00     0.310 C 
HETATM   36  C   UNK N   1      34.178  15.823   9.672  0.00  0.00     0.138 C 
ENDBRANCH  27  30
ENDBRANCH   1  27
TORSDOF 7
ENDMDL
MODEL 9
REMARK VINA RESULT:      -6.9     13.893     16.398
REMARK  7 active torsions:
REMARK  status: ('A' for Active; 'I' for Inactive)
REMARK    1  A    between atoms: S_1  and  N_6 
REMARK    2  A    between atoms: S_1  and  C_18 
REMARK    3  A    between atoms: O_4  and  C_25 
REMARK    4  A    between atoms: O_4  and  C_34 
REMARK    5  A    between atoms: C_21  and  C_23 
REMARK    6  A    between atoms: C_27  and  C_29 
REMARK    7  A    between atoms: C_29  and  C_31 
ROOT
HETATM    1  C   UNK N   1      26.702  16.482   5.177  0.00  0.00     0.075 A 
HETATM    2  C   UNK N   1      25.416  16.693   5.639  0.00  0.00     0.042 A 
HETATM    3  C   UNK N   1      24.392  15.800   5.349  0.00  0.00     0.043 A 
HETATM    4  C   UNK N   1      26.986  15.377   4.370  0.00  0.00     0.027 A 
HETATM    5  C   UNK N   1      24.659  14.671   4.542  0.00  0.00     0.082 A 
HETATM    6  C   UNK N   1      25.964  14.479   4.042  0.00  0.00     0.039 A 
ENDROOT
BRANCH   3   7
HETATM    7  C   UNK N   1      23.107  16.022   6.024  0.00  0.00     0.121 A 
HETATM    8  N   UNK N   1      22.574  15.029   6.795  0.00  0.00    -0.338 N 
HETATM    9  C   UNK N   1      21.523  15.329   7.587  0.00  0.00     0.092 A 
HETATM   10  H   UNK N   1      22.946  14.118   6.774  0.00  0.00     0.167 HD
HETATM   11  C   UNK N   1      20.859  14.564   8.505  0.00  0.00     0.055 A 
HETATM   12  C   UNK N   1      20.961  16.557   7.631  0.00  0.00     0.147 A 
HETATM   13  N   UNK N   1      19.900  15.330   9.083  0.00  0.00    -0.300 N 
HETATM   14  N   UNK N   1      19.967  16.543   8.539  0.00  0.00    -0.289 N 
ATOM     15  HN  UNK N   1      19.245  15.030   9.807  1.00  0.00     0.187 HD
HETATM   16  C   UNK N   1      19.121  17.658   8.931  0.00  0.00     0.178 C 
HETATM   17  C   UNK N   1      21.462  17.573   6.831  0.00  0.00     0.277 A 
HETATM   18  O   UNK N   1      20.983  18.692   6.841  0.00  0.00    -0.265 OA
HETATM   19  N   UNK N   1      22.558  17.287   6.050  0.00  0.00    -0.307 N 
ATOM     20  HN  UNK N   1      22.972  18.024   5.479  1.00  0.00     0.170 HD
BRANCH  11  21
HETATM   21  C   UNK N   1      21.185  13.156   8.862  0.00  0.00     0.061 C 
BRANCH  21  22
HETATM   22  C   UNK N   1      21.704  13.061  10.277  0.00  0.00     0.002 C 
HETATM   23  C   UNK N   1      23.196  12.813  10.229  0.00  0.00     0.005 C 
ENDBRANCH  21  22
ENDBRANCH  11  21
ENDBRANCH   3   7
BRANCH   5  24
HETATM   24  O   UNK N   1      23.661  13.799   4.250  0.00  0.00    -0.351 OA
BRANCH  24  25
HETATM   25  C   UNK N   1      23.262  13.486   2.971  0.00  0.00     0.171 C 
HETATM   26  C   UNK N   1      22.573  14.688   2.358  0.00  0.00     0.034 C 
ENDBRANCH  24  25
ENDBRANCH   5  24
BRANCH   1  27
HETATM   27  S   UNK N   1      27.958  17.633   5.674  0.00  0.00     0.243 S 
HETATM   28  O   UNK N   1      27.401  18.952   6.236  0.00  0.00    -0.206 OA
HETATM   29  O   UNK N   1      28.798  18.115   4.476  0.00  0.00    -0.206 OA
BRANCH  27  30
HETATM   30  N   UNK N   1      29.097  16.973   6.861  0.00  0.00    -0.203 NA
HETATM   31  C   UNK N   1      29.281  17.882   7.982  0.00  0.00     0.138 C 
HETATM   32  C   UNK N   1      30.124  17.171   9.043  0.00  0.00     0.287 C 
HETATM   33  N   UNK N   1      31.420  16.732   8.507  0.00  0.00     0.086 N 
HETATM   34  C   UNK N   1      31.284  15.983   7.249  0.00  0.00     0.287 C 
HETATM   35  C   UNK N   1      32.286  17.885   8.307  0.00  0.00     0.310 C 
HETATM   36  C   UNK N   1      30.392  16.713   6.242  0.00  0.00     0.138 C 
ENDBRANCH  27  30
ENDBRANCH   1  27
TORSDOF 7
ENDMDL
