MODEL 1
REMARK VINA RESULT:      -5.1      0.000      0.000
REMARK  16 active torsions:
REMARK  status: ('A' for Active; 'I' for Inactive)
REMARK    1  A    between atoms: O_1  and  C_16 
REMARK    2  A    between atoms: C_3  and  C_4 
REMARK    3  A    between atoms: C_3  and  C_5 
REMARK    4  A    between atoms: C_4  and  C_6 
REMARK    5  A    between atoms: C_5  and  C_7 
REMARK    6  A    between atoms: C_6  and  C_8 
REMARK    7  A    between atoms: C_7  and  C_13 
REMARK    8  A    between atoms: C_8  and  C_16 
REMARK    9  A    between atoms: C_9  and  C_10 
REMARK   10  A    between atoms: C_9  and  C_11 
REMARK   11  A    between atoms: C_10  and  C_12 
REMARK   12  A    between atoms: C_11  and  C_15 
REMARK   13  A    between atoms: C_14  and  C_18 
REMARK   14  A    between atoms: C_18  and  C_21 
REMARK   15  A    between atoms: C_19  and  C_20 
REMARK   16  A    between atoms: C_20  and  C_22 
ROOT
HETATM    1  C   UNK N   1      35.240  13.712  17.454  0.00  0.00    -0.030 C 
HETATM    2  C   UNK N   1      35.172  12.735  18.376  0.00  0.00    -0.027 C 
ENDROOT
BRANCH   2   3
HETATM    3  C   UNK N   1      35.685  11.388  17.989  0.00  0.00     0.053 C 
BRANCH   3   4
HETATM    4  C   UNK N   1      34.857  10.162  18.213  0.00  0.00    -0.027 C 
HETATM    5  C   UNK N   1      34.465   9.475  17.125  0.00  0.00    -0.027 C 
BRANCH   5   6
HETATM    6  C   UNK N   1      34.883   9.983  15.772  0.00  0.00     0.053 C 
BRANCH   6   7
HETATM    7  C   UNK N   1      33.827  10.584  14.910  0.00  0.00    -0.027 C 
HETATM    8  C   UNK N   1      33.923  10.461  13.577  0.00  0.00    -0.030 C 
BRANCH   8   9
HETATM    9  C   UNK N   1      35.076   9.729  12.946  0.00  0.00     0.027 C 
BRANCH   9  10
HETATM   10  C   UNK N   1      35.675  10.506  11.795  0.00  0.00     0.004 C 
BRANCH  10  11
HETATM   11  C   UNK N   1      37.144  10.746  12.081  0.00  0.00    -0.000 C 
BRANCH  11  12
HETATM   12  C   UNK N   1      37.541  10.025  13.352  0.00  0.00    -0.005 C 
HETATM   13  C   UNK N   1      38.138  11.015  14.329  0.00  0.00     0.005 C 
ENDBRANCH  11  12
ENDBRANCH  10  11
ENDBRANCH   9  10
ENDBRANCH   8   9
ENDBRANCH   6   7
ENDBRANCH   5   6
ENDBRANCH   3   4
ENDBRANCH   2   3
BRANCH   1  14
HETATM   14  C   UNK N   1      35.822  13.394  16.102  0.00  0.00     0.027 C 
BRANCH  14  15
HETATM   15  C   UNK N   1      36.952  14.273  15.629  0.00  0.00     0.004 C 
BRANCH  15  16
HETATM   16  C   UNK N   1      36.562  14.678  14.220  0.00  0.00     0.000 C 
BRANCH  16  17
HETATM   17  C   UNK N   1      35.507  13.772  13.628  0.00  0.00     0.001 C 
BRANCH  17  18
HETATM   18  C   UNK N   1      35.392  14.093  12.149  0.00  0.00     0.010 C 
BRANCH  18  19
HETATM   19  C   UNK N   1      35.922  15.490  11.876  0.00  0.00     0.110 C 
BRANCH  19  20
HETATM   20  C   UNK N   1      35.189  16.186  10.764  0.00  0.00     0.139 C 
HETATM   21  O   UNK N   1      34.229  15.662  10.217  0.00  0.00    -0.650 OA
BRANCH  20  22
HETATM   22  O   UNK N   1      35.594  17.404  10.366  0.00  0.00    -0.776 OA
HETATM   23  H   UNK N   1      35.036  18.146  10.487  0.00  0.00     0.167 HD
ENDBRANCH  20  22
ENDBRANCH  19  20
ENDBRANCH  18  19
ENDBRANCH  17  18
ENDBRANCH  16  17
ENDBRANCH  15  16
ENDBRANCH  14  15
ENDBRANCH   1  14
TORSDOF 16
ENDMDL
MODEL 2
REMARK VINA RESULT:      -5.0     20.391     24.676
REMARK  16 active torsions:
REMARK  status: ('A' for Active; 'I' for Inactive)
REMARK    1  A    between atoms: O_1  and  C_16 
REMARK    2  A    between atoms: C_3  and  C_4 
REMARK    3  A    between atoms: C_3  and  C_5 
REMARK    4  A    between atoms: C_4  and  C_6 
REMARK    5  A    between atoms: C_5  and  C_7 
REMARK    6  A    between atoms: C_6  and  C_8 
REMARK    7  A    between atoms: C_7  and  C_13 
REMARK    8  A    between atoms: C_8  and  C_16 
REMARK    9  A    between atoms: C_9  and  C_10 
REMARK   10  A    between atoms: C_9  and  C_11 
REMARK   11  A    between atoms: C_10  and  C_12 
REMARK   12  A    between atoms: C_11  and  C_15 
REMARK   13  A    between atoms: C_14  and  C_18 
REMARK   14  A    between atoms: C_18  and  C_21 
REMARK   15  A    between atoms: C_19  and  C_20 
REMARK   16  A    between atoms: C_20  and  C_22 
ROOT
HETATM    1  C   UNK N   1      27.957  23.968  -3.975  0.00  0.00    -0.030 C 
HETATM    2  C   UNK N   1      26.807  24.401  -3.430  0.00  0.00    -0.027 C 
ENDROOT
BRANCH   2   3
HETATM    3  C   UNK N   1      26.165  25.602  -4.042  0.00  0.00     0.053 C 
BRANCH   3   4
HETATM    4  C   UNK N   1      26.177  26.919  -3.333  0.00  0.00    -0.027 C 
HETATM    5  C   UNK N   1      26.076  28.027  -4.089  0.00  0.00    -0.027 C 
BRANCH   5   6
HETATM    6  C   UNK N   1      25.958  27.866  -5.580  0.00  0.00     0.053 C 
BRANCH   6   7
HETATM    7  C   UNK N   1      27.207  27.991  -6.382  0.00  0.00    -0.027 C 
HETATM    8  C   UNK N   1      27.324  27.292  -7.523  0.00  0.00    -0.030 C 
BRANCH   8   9
HETATM    9  C   UNK N   1      26.216  26.391  -7.997  0.00  0.00     0.027 C 
BRANCH   9  10
HETATM   10  C   UNK N   1      26.715  24.994  -8.294  0.00  0.00     0.004 C 
BRANCH  10  11
HETATM   11  C   UNK N   1      25.556  24.025  -8.165  0.00  0.00    -0.000 C 
BRANCH  11  12
HETATM   12  C   UNK N   1      25.741  23.173  -6.928  0.00  0.00    -0.005 C 
HETATM   13  C   UNK N   1      25.159  21.796  -7.170  0.00  0.00     0.005 C 
ENDBRANCH  11  12
ENDBRANCH  10  11
ENDBRANCH   9  10
ENDBRANCH   8   9
ENDBRANCH   6   7
ENDBRANCH   5   6
ENDBRANCH   3   4
ENDBRANCH   2   3
BRANCH   1  14
HETATM   14  C   UNK N   1      28.524  24.710  -5.157  0.00  0.00     0.027 C 
BRANCH  14  15
HETATM   15  C   UNK N   1      29.413  23.922  -6.086  0.00  0.00     0.004 C 
BRANCH  15  16
HETATM   16  C   UNK N   1      29.185  22.472  -5.702  0.00  0.00     0.000 C 
BRANCH  16  17
HETATM   17  C   UNK N   1      30.476  21.735  -5.431  0.00  0.00     0.001 C 
BRANCH  17  18
HETATM   18  C   UNK N   1      30.397  21.155  -4.031  0.00  0.00     0.010 C 
BRANCH  18  19
HETATM   19  C   UNK N   1      31.432  21.811  -3.134  0.00  0.00     0.110 C 
BRANCH  19  20
HETATM   20  C   UNK N   1      30.905  23.026  -2.426  0.00  0.00     0.139 C 
HETATM   21  O   UNK N   1      30.248  22.922  -1.399  0.00  0.00    -0.650 OA
BRANCH  20  22
HETATM   22  O   UNK N   1      31.160  24.246  -2.928  0.00  0.00    -0.776 OA
HETATM   23  H   UNK N   1      32.045  24.521  -3.066  0.00  0.00     0.167 HD
ENDBRANCH  20  22
ENDBRANCH  19  20
ENDBRANCH  18  19
ENDBRANCH  17  18
ENDBRANCH  16  17
ENDBRANCH  15  16
ENDBRANCH  14  15
ENDBRANCH   1  14
TORSDOF 16
ENDMDL
MODEL 3
REMARK VINA RESULT:      -5.0     20.382     24.787
REMARK  16 active torsions:
REMARK  status: ('A' for Active; 'I' for Inactive)
REMARK    1  A    between atoms: O_1  and  C_16 
REMARK    2  A    between atoms: C_3  and  C_4 
REMARK    3  A    between atoms: C_3  and  C_5 
REMARK    4  A    between atoms: C_4  and  C_6 
REMARK    5  A    between atoms: C_5  and  C_7 
REMARK    6  A    between atoms: C_6  and  C_8 
REMARK    7  A    between atoms: C_7  and  C_13 
REMARK    8  A    between atoms: C_8  and  C_16 
REMARK    9  A    between atoms: C_9  and  C_10 
REMARK   10  A    between atoms: C_9  and  C_11 
REMARK   11  A    between atoms: C_10  and  C_12 
REMARK   12  A    between atoms: C_11  and  C_15 
REMARK   13  A    between atoms: C_14  and  C_18 
REMARK   14  A    between atoms: C_18  and  C_21 
REMARK   15  A    between atoms: C_19  and  C_20 
REMARK   16  A    between atoms: C_20  and  C_22 
ROOT
HETATM    1  C   UNK N   1      26.582  25.167  -4.015  0.00  0.00    -0.030 C 
HETATM    2  C   UNK N   1      26.345  26.346  -3.413  0.00  0.00    -0.027 C 
ENDROOT
BRANCH   2   3
HETATM    3  C   UNK N   1      25.822  27.458  -4.260  0.00  0.00     0.053 C 
BRANCH   3   4
HETATM    4  C   UNK N   1      26.257  28.870  -4.021  0.00  0.00    -0.027 C 
HETATM    5  C   UNK N   1      27.008  29.453  -4.972  0.00  0.00    -0.027 C 
BRANCH   5   6
HETATM    6  C   UNK N   1      27.355  28.651  -6.198  0.00  0.00     0.053 C 
BRANCH   6   7
HETATM    7  C   UNK N   1      28.594  29.029  -6.935  0.00  0.00    -0.027 C 
HETATM    8  C   UNK N   1      29.599  28.144  -7.018  0.00  0.00    -0.030 C 
BRANCH   8   9
HETATM    9  C   UNK N   1      29.492  26.785  -6.382  0.00  0.00     0.027 C 
BRANCH   9  10
HETATM   10  C   UNK N   1      30.528  26.586  -5.298  0.00  0.00     0.004 C 
BRANCH  10  11
HETATM   11  C   UNK N   1      29.881  26.847  -3.952  0.00  0.00    -0.000 C 
BRANCH  11  12
HETATM   12  C   UNK N   1      30.757  27.774  -3.137  0.00  0.00    -0.005 C 
HETATM   13  C   UNK N   1      30.205  29.181  -3.202  0.00  0.00     0.005 C 
ENDBRANCH  11  12
ENDBRANCH  10  11
ENDBRANCH   9  10
ENDBRANCH   8   9
ENDBRANCH   6   7
ENDBRANCH   5   6
ENDBRANCH   3   4
ENDBRANCH   2   3
BRANCH   1  14
HETATM   14  C   UNK N   1      26.308  25.039  -5.491  0.00  0.00     0.027 C 
BRANCH  14  15
HETATM   15  C   UNK N   1      27.125  24.020  -6.244  0.00  0.00     0.004 C 
BRANCH  15  16
HETATM   16  C   UNK N   1      28.138  23.514  -5.233  0.00  0.00     0.000 C 
BRANCH  16  17
HETATM   17  C   UNK N   1      29.123  22.542  -5.838  0.00  0.00     0.001 C 
BRANCH  17  18
HETATM   18  C   UNK N   1      30.064  22.085  -4.738  0.00  0.00     0.010 C 
BRANCH  18  19
HETATM   19  C   UNK N   1      30.284  23.208  -3.740  0.00  0.00     0.110 C 
BRANCH  19  20
HETATM   20  C   UNK N   1      30.820  22.722  -2.423  0.00  0.00     0.139 C 
HETATM   21  O   UNK N   1      30.272  23.018  -1.371  0.00  0.00    -0.650 OA
BRANCH  20  22
HETATM   22  O   UNK N   1      31.919  21.949  -2.401  0.00  0.00    -0.776 OA
HETATM   23  H   UNK N   1      32.255  21.589  -3.198  0.00  0.00     0.167 HD
ENDBRANCH  20  22
ENDBRANCH  19  20
ENDBRANCH  18  19
ENDBRANCH  17  18
ENDBRANCH  16  17
ENDBRANCH  15  16
ENDBRANCH  14  15
ENDBRANCH   1  14
TORSDOF 16
ENDMDL
MODEL 4
REMARK VINA RESULT:      -4.9     20.609     24.879
REMARK  16 active torsions:
REMARK  status: ('A' for Active; 'I' for Inactive)
REMARK    1  A    between atoms: O_1  and  C_16 
REMARK    2  A    between atoms: C_3  and  C_4 
REMARK    3  A    between atoms: C_3  and  C_5 
REMARK    4  A    between atoms: C_4  and  C_6 
REMARK    5  A    between atoms: C_5  and  C_7 
REMARK    6  A    between atoms: C_6  and  C_8 
REMARK    7  A    between atoms: C_7  and  C_13 
REMARK    8  A    between atoms: C_8  and  C_16 
REMARK    9  A    between atoms: C_9  and  C_10 
REMARK   10  A    between atoms: C_9  and  C_11 
REMARK   11  A    between atoms: C_10  and  C_12 
REMARK   12  A    between atoms: C_11  and  C_15 
REMARK   13  A    between atoms: C_14  and  C_18 
REMARK   14  A    between atoms: C_18  and  C_21 
REMARK   15  A    between atoms: C_19  and  C_20 
REMARK   16  A    between atoms: C_20  and  C_22 
ROOT
HETATM    1  C   UNK N   1      29.745  28.769  -5.843  0.00  0.00    -0.030 C 
HETATM    2  C   UNK N   1      28.639  29.475  -6.138  0.00  0.00    -0.027 C 
ENDROOT
BRANCH   2   3
HETATM    3  C   UNK N   1      27.327  28.913  -5.702  0.00  0.00     0.053 C 
BRANCH   3   4
HETATM    4  C   UNK N   1      26.639  29.439  -4.483  0.00  0.00    -0.027 C 
HETATM    5  C   UNK N   1      25.888  28.574  -3.777  0.00  0.00    -0.027 C 
BRANCH   5   6
HETATM    6  C   UNK N   1      25.795  27.152  -4.259  0.00  0.00     0.053 C 
BRANCH   6   7
HETATM    7  C   UNK N   1      26.491  26.109  -3.454  0.00  0.00    -0.027 C 
HETATM    8  C   UNK N   1      26.415  24.826  -3.842  0.00  0.00    -0.030 C 
BRANCH   8   9
HETATM    9  C   UNK N   1      25.642  24.430  -5.070  0.00  0.00     0.027 C 
BRANCH   9  10
HETATM   10  C   UNK N   1      26.532  23.804  -6.119  0.00  0.00     0.004 C 
BRANCH  10  11
HETATM   11  C   UNK N   1      27.555  24.830  -6.566  0.00  0.00    -0.000 C 
BRANCH  11  12
HETATM   12  C   UNK N   1      27.262  25.254  -7.989  0.00  0.00    -0.005 C 
HETATM   13  C   UNK N   1      26.192  26.325  -7.989  0.00  0.00     0.005 C 
ENDBRANCH  11  12
ENDBRANCH  10  11
ENDBRANCH   9  10
ENDBRANCH   8   9
ENDBRANCH   6   7
ENDBRANCH   5   6
ENDBRANCH   3   4
ENDBRANCH   2   3
BRANCH   1  14
HETATM   14  C   UNK N   1      29.596  27.468  -5.098  0.00  0.00     0.027 C 
BRANCH  14  15
HETATM   15  C   UNK N   1      29.983  27.475  -3.641  0.00  0.00     0.004 C 
BRANCH  15  16
HETATM   16  C   UNK N   1      30.973  26.335  -3.498  0.00  0.00     0.000 C 
BRANCH  16  17
HETATM   17  C   UNK N   1      30.785  25.270  -4.553  0.00  0.00     0.001 C 
BRANCH  17  18
HETATM   18  C   UNK N   1      30.991  23.919  -3.895  0.00  0.00     0.010 C 
BRANCH  18  19
HETATM   19  C   UNK N   1      29.649  23.293  -3.555  0.00  0.00     0.110 C 
BRANCH  19  20
HETATM   20  C   UNK N   1      29.472  23.055  -2.083  0.00  0.00     0.139 C 
HETATM   21  O   UNK N   1      30.438  22.956  -1.339  0.00  0.00    -0.650 OA
BRANCH  20  22
HETATM   22  O   UNK N   1      28.232  22.948  -1.575  0.00  0.00    -0.776 OA
HETATM   23  H   UNK N   1      27.566  23.555  -1.832  0.00  0.00     0.167 HD
ENDBRANCH  20  22
ENDBRANCH  19  20
ENDBRANCH  18  19
ENDBRANCH  17  18
ENDBRANCH  16  17
ENDBRANCH  15  16
ENDBRANCH  14  15
ENDBRANCH   1  14
TORSDOF 16
ENDMDL
MODEL 5
REMARK VINA RESULT:      -4.9      1.386      3.031
REMARK  16 active torsions:
REMARK  status: ('A' for Active; 'I' for Inactive)
REMARK    1  A    between atoms: O_1  and  C_16 
REMARK    2  A    between atoms: C_3  and  C_4 
REMARK    3  A    between atoms: C_3  and  C_5 
REMARK    4  A    between atoms: C_4  and  C_6 
REMARK    5  A    between atoms: C_5  and  C_7 
REMARK    6  A    between atoms: C_6  and  C_8 
REMARK    7  A    between atoms: C_7  and  C_13 
REMARK    8  A    between atoms: C_8  and  C_16 
REMARK    9  A    between atoms: C_9  and  C_10 
REMARK   10  A    between atoms: C_9  and  C_11 
REMARK   11  A    between atoms: C_10  and  C_12 
REMARK   12  A    between atoms: C_11  and  C_15 
REMARK   13  A    between atoms: C_14  and  C_18 
REMARK   14  A    between atoms: C_18  and  C_21 
REMARK   15  A    between atoms: C_19  and  C_20 
REMARK   16  A    between atoms: C_20  and  C_22 
ROOT
HETATM    1  C   UNK N   1      35.140  13.046  15.001  0.00  0.00    -0.030 C 
HETATM    2  C   UNK N   1      34.639  13.120  16.247  0.00  0.00    -0.027 C 
ENDROOT
BRANCH   2   3
HETATM    3  C   UNK N   1      35.609  13.109  17.381  0.00  0.00     0.053 C 
BRANCH   3   4
HETATM    4  C   UNK N   1      35.150  13.368  18.781  0.00  0.00    -0.027 C 
HETATM    5  C   UNK N   1      35.232  12.349  19.655  0.00  0.00    -0.027 C 
BRANCH   5   6
HETATM    6  C   UNK N   1      35.776  11.033  19.167  0.00  0.00     0.053 C 
BRANCH   6   7
HETATM    7  C   UNK N   1      34.789   9.989  18.774  0.00  0.00    -0.027 C 
HETATM    8  C   UNK N   1      34.996   9.284  17.650  0.00  0.00    -0.030 C 
BRANCH   8   9
HETATM    9  C   UNK N   1      36.204   9.535  16.789  0.00  0.00     0.027 C 
BRANCH   9  10
HETATM   10  C   UNK N   1      36.039   8.949  15.404  0.00  0.00     0.004 C 
BRANCH  10  11
HETATM   11  C   UNK N   1      34.820   9.573  14.753  0.00  0.00    -0.000 C 
BRANCH  11  12
HETATM   12  C   UNK N   1      34.901   9.403  13.251  0.00  0.00    -0.005 C 
HETATM   13  C   UNK N   1      33.762  10.153  12.594  0.00  0.00     0.005 C 
ENDBRANCH  11  12
ENDBRANCH  10  11
ENDBRANCH   9  10
ENDBRANCH   8   9
ENDBRANCH   6   7
ENDBRANCH   5   6
ENDBRANCH   3   4
ENDBRANCH   2   3
BRANCH   1  14
HETATM   14  C   UNK N   1      36.633  12.958  14.826  0.00  0.00     0.027 C 
BRANCH  14  15
HETATM   15  C   UNK N   1      37.129  12.163  13.644  0.00  0.00     0.004 C 
BRANCH  15  16
HETATM   16  C   UNK N   1      36.988  13.102  12.460  0.00  0.00     0.000 C 
BRANCH  16  17
HETATM   17  C   UNK N   1      35.960  12.624  11.462  0.00  0.00     0.001 C 
BRANCH  17  18
HETATM   18  C   UNK N   1      35.863  13.663  10.359  0.00  0.00     0.010 C 
BRANCH  18  19
HETATM   19  C   UNK N   1      35.007  14.831  10.815  0.00  0.00     0.110 C 
BRANCH  19  20
HETATM   20  C   UNK N   1      35.748  16.138  10.805  0.00  0.00     0.139 C 
HETATM   21  O   UNK N   1      35.149  17.203  10.771  0.00  0.00    -0.650 OA
BRANCH  20  22
HETATM   22  O   UNK N   1      37.092  16.135  10.835  0.00  0.00    -0.776 OA
HETATM   23  H   UNK N   1      37.571  15.521  10.315  0.00  0.00     0.167 HD
ENDBRANCH  20  22
ENDBRANCH  19  20
ENDBRANCH  18  19
ENDBRANCH  17  18
ENDBRANCH  16  17
ENDBRANCH  15  16
ENDBRANCH  14  15
ENDBRANCH   1  14
TORSDOF 16
ENDMDL
MODEL 6
REMARK VINA RESULT:      -4.8     20.491     25.707
REMARK  16 active torsions:
REMARK  status: ('A' for Active; 'I' for Inactive)
REMARK    1  A    between atoms: O_1  and  C_16 
REMARK    2  A    between atoms: C_3  and  C_4 
REMARK    3  A    between atoms: C_3  and  C_5 
REMARK    4  A    between atoms: C_4  and  C_6 
REMARK    5  A    between atoms: C_5  and  C_7 
REMARK    6  A    between atoms: C_6  and  C_8 
REMARK    7  A    between atoms: C_7  and  C_13 
REMARK    8  A    between atoms: C_8  and  C_16 
REMARK    9  A    between atoms: C_9  and  C_10 
REMARK   10  A    between atoms: C_9  and  C_11 
REMARK   11  A    between atoms: C_10  and  C_12 
REMARK   12  A    between atoms: C_11  and  C_15 
REMARK   13  A    between atoms: C_14  and  C_18 
REMARK   14  A    between atoms: C_18  and  C_21 
REMARK   15  A    between atoms: C_19  and  C_20 
REMARK   16  A    between atoms: C_20  and  C_22 
ROOT
HETATM    1  C   UNK N   1      25.453  27.124  -4.161  0.00  0.00    -0.030 C 
HETATM    2  C   UNK N   1      25.594  28.457  -4.272  0.00  0.00    -0.027 C 
ENDROOT
BRANCH   2   3
HETATM    3  C   UNK N   1      26.939  29.034  -3.978  0.00  0.00     0.053 C 
BRANCH   3   4
HETATM    4  C   UNK N   1      27.356  30.341  -4.574  0.00  0.00    -0.027 C 
HETATM    5  C   UNK N   1      28.178  30.299  -5.638  0.00  0.00    -0.027 C 
BRANCH   5   6
HETATM    6  C   UNK N   1      28.616  28.953  -6.149  0.00  0.00     0.053 C 
BRANCH   6   7
HETATM    7  C   UNK N   1      28.654  28.762  -7.626  0.00  0.00    -0.027 C 
HETATM    8  C   UNK N   1      28.107  27.656  -8.155  0.00  0.00    -0.030 C 
BRANCH   8   9
HETATM    9  C   UNK N   1      27.461  26.615  -7.282  0.00  0.00     0.027 C 
BRANCH   9  10
HETATM   10  C   UNK N   1      26.022  26.365  -7.676  0.00  0.00     0.004 C 
BRANCH  10  11
HETATM   11  C   UNK N   1      25.719  24.890  -7.503  0.00  0.00    -0.000 C 
BRANCH  11  12
HETATM   12  C   UNK N   1      25.604  24.230  -8.861  0.00  0.00    -0.005 C 
HETATM   13  C   UNK N   1      25.241  25.269  -9.900  0.00  0.00     0.005 C 
ENDBRANCH  11  12
ENDBRANCH  10  11
ENDBRANCH   9  10
ENDBRANCH   8   9
ENDBRANCH   6   7
ENDBRANCH   5   6
ENDBRANCH   3   4
ENDBRANCH   2   3
BRANCH   1  14
HETATM   14  C   UNK N   1      26.646  26.302  -3.751  0.00  0.00     0.027 C 
BRANCH  14  15
HETATM   15  C   UNK N   1      26.530  24.808  -3.927  0.00  0.00     0.004 C 
BRANCH  15  16
HETATM   16  C   UNK N   1      27.902  24.269  -3.568  0.00  0.00     0.000 C 
BRANCH  16  17
HETATM   17  C   UNK N   1      29.016  25.008  -4.273  0.00  0.00     0.001 C 
BRANCH  17  18
HETATM   18  C   UNK N   1      30.278  24.847  -3.445  0.00  0.00     0.010 C 
BRANCH  18  19
HETATM   19  C   UNK N   1      30.895  23.481  -3.694  0.00  0.00     0.110 C 
BRANCH  19  20
HETATM   20  C   UNK N   1      31.044  22.671  -2.438  0.00  0.00     0.139 C 
HETATM   21  O   UNK N   1      30.464  22.989  -1.409  0.00  0.00    -0.650 OA
BRANCH  20  22
HETATM   22  O   UNK N   1      31.826  21.578  -2.444  0.00  0.00    -0.776 OA
HETATM   23  H   UNK N   1      31.441  20.726  -2.509  0.00  0.00     0.167 HD
ENDBRANCH  20  22
ENDBRANCH  19  20
ENDBRANCH  18  19
ENDBRANCH  17  18
ENDBRANCH  16  17
ENDBRANCH  15  16
ENDBRANCH  14  15
ENDBRANCH   1  14
TORSDOF 16
ENDMDL
MODEL 7
REMARK VINA RESULT:      -4.7      9.799     13.334
REMARK  16 active torsions:
REMARK  status: ('A' for Active; 'I' for Inactive)
REMARK    1  A    between atoms: O_1  and  C_16 
REMARK    2  A    between atoms: C_3  and  C_4 
REMARK    3  A    between atoms: C_3  and  C_5 
REMARK    4  A    between atoms: C_4  and  C_6 
REMARK    5  A    between atoms: C_5  and  C_7 
REMARK    6  A    between atoms: C_6  and  C_8 
REMARK    7  A    between atoms: C_7  and  C_13 
REMARK    8  A    between atoms: C_8  and  C_16 
REMARK    9  A    between atoms: C_9  and  C_10 
REMARK   10  A    between atoms: C_9  and  C_11 
REMARK   11  A    between atoms: C_10  and  C_12 
REMARK   12  A    between atoms: C_11  and  C_15 
REMARK   13  A    between atoms: C_14  and  C_18 
REMARK   14  A    between atoms: C_18  and  C_21 
REMARK   15  A    between atoms: C_19  and  C_20 
REMARK   16  A    between atoms: C_20  and  C_22 
ROOT
HETATM    1  C   UNK N   1      28.789  17.370   5.629  0.00  0.00    -0.030 C 
HETATM    2  C   UNK N   1      29.927  17.821   5.073  0.00  0.00    -0.027 C 
ENDROOT
BRANCH   2   3
HETATM    3  C   UNK N   1      30.771  16.834   4.337  0.00  0.00     0.053 C 
BRANCH   3   4
HETATM    4  C   UNK N   1      31.902  17.293   3.472  0.00  0.00    -0.027 C 
HETATM    5  C   UNK N   1      33.143  17.209   3.983  0.00  0.00    -0.027 C 
BRANCH   5   6
HETATM    6  C   UNK N   1      33.305  16.665   5.377  0.00  0.00     0.053 C 
BRANCH   6   7
HETATM    7  C   UNK N   1      33.538  17.648   6.472  0.00  0.00    -0.027 C 
HETATM    8  C   UNK N   1      32.892  17.492   7.638  0.00  0.00    -0.030 C 
BRANCH   8   9
HETATM    9  C   UNK N   1      31.943  16.345   7.852  0.00  0.00     0.027 C 
BRANCH   9  10
HETATM   10  C   UNK N   1      30.768  16.740   8.718  0.00  0.00     0.004 C 
BRANCH  10  11
HETATM   11  C   UNK N   1      30.745  18.251   8.848  0.00  0.00    -0.000 C 
BRANCH  11  12
HETATM   12  C   UNK N   1      29.540  18.675   9.659  0.00  0.00    -0.005 C 
HETATM   13  C   UNK N   1      28.376  17.755   9.357  0.00  0.00     0.005 C 
ENDBRANCH  11  12
ENDBRANCH  10  11
ENDBRANCH   9  10
ENDBRANCH   8   9
ENDBRANCH   6   7
ENDBRANCH   5   6
ENDBRANCH   3   4
ENDBRANCH   2   3
BRANCH   1  14
HETATM   14  C   UNK N   1      28.436  15.914   5.478  0.00  0.00     0.027 C 
BRANCH  14  15
HETATM   15  C   UNK N   1      26.991  15.596   5.184  0.00  0.00     0.004 C 
BRANCH  15  16
HETATM   16  C   UNK N   1      26.675  16.369   3.917  0.00  0.00     0.000 C 
BRANCH  16  17
HETATM   17  C   UNK N   1      25.421  17.202   4.045  0.00  0.00     0.001 C 
BRANCH  17  18
HETATM   18  C   UNK N   1      25.718  18.582   3.489  0.00  0.00     0.010 C 
BRANCH  18  19
HETATM   19  C   UNK N   1      24.674  19.575   3.969  0.00  0.00     0.110 C 
BRANCH  19  20
HETATM   20  C   UNK N   1      24.273  20.560   2.908  0.00  0.00     0.139 C 
HETATM   21  O   UNK N   1      25.043  20.864   2.008  0.00  0.00    -0.650 OA
BRANCH  20  22
HETATM   22  O   UNK N   1      23.051  21.116   2.949  0.00  0.00    -0.776 OA
HETATM   23  H   UNK N   1      22.318  20.614   3.246  0.00  0.00     0.167 HD
ENDBRANCH  20  22
ENDBRANCH  19  20
ENDBRANCH  18  19
ENDBRANCH  17  18
ENDBRANCH  16  17
ENDBRANCH  15  16
ENDBRANCH  14  15
ENDBRANCH   1  14
TORSDOF 16
ENDMDL
MODEL 8
REMARK VINA RESULT:      -4.7     20.291     25.164
REMARK  16 active torsions:
REMARK  status: ('A' for Active; 'I' for Inactive)
REMARK    1  A    between atoms: O_1  and  C_16 
REMARK    2  A    between atoms: C_3  and  C_4 
REMARK    3  A    between atoms: C_3  and  C_5 
REMARK    4  A    between atoms: C_4  and  C_6 
REMARK    5  A    between atoms: C_5  and  C_7 
REMARK    6  A    between atoms: C_6  and  C_8 
REMARK    7  A    between atoms: C_7  and  C_13 
REMARK    8  A    between atoms: C_8  and  C_16 
REMARK    9  A    between atoms: C_9  and  C_10 
REMARK   10  A    between atoms: C_9  and  C_11 
REMARK   11  A    between atoms: C_10  and  C_12 
REMARK   12  A    between atoms: C_11  and  C_15 
REMARK   13  A    between atoms: C_14  and  C_18 
REMARK   14  A    between atoms: C_18  and  C_21 
REMARK   15  A    between atoms: C_19  and  C_20 
REMARK   16  A    between atoms: C_20  and  C_22 
ROOT
HETATM    1  C   UNK N   1      25.895  25.808  -6.175  0.00  0.00    -0.030 C 
HETATM    2  C   UNK N   1      25.709  27.134  -6.053  0.00  0.00    -0.027 C 
ENDROOT
BRANCH   2   3
HETATM    3  C   UNK N   1      25.149  27.635  -4.763  0.00  0.00     0.053 C 
BRANCH   3   4
HETATM    4  C   UNK N   1      26.000  27.697  -3.535  0.00  0.00    -0.027 C 
HETATM    5  C   UNK N   1      26.639  28.853  -3.285  0.00  0.00    -0.027 C 
BRANCH   5   6
HETATM    6  C   UNK N   1      26.454  29.994  -4.249  0.00  0.00     0.053 C 
BRANCH   6   7
HETATM    7  C   UNK N   1      27.618  30.896  -4.472  0.00  0.00    -0.027 C 
HETATM    8  C   UNK N   1      28.463  30.634  -5.482  0.00  0.00    -0.030 C 
BRANCH   8   9
HETATM    9  C   UNK N   1      28.251  29.450  -6.385  0.00  0.00     0.027 C 
BRANCH   9  10
HETATM   10  C   UNK N   1      29.449  28.527  -6.393  0.00  0.00     0.004 C 
BRANCH  10  11
HETATM   11  C   UNK N   1      29.407  27.663  -5.147  0.00  0.00    -0.000 C 
BRANCH  11  12
HETATM   12  C   UNK N   1      30.801  27.172  -4.820  0.00  0.00    -0.005 C 
HETATM   13  C   UNK N   1      30.987  27.138  -3.318  0.00  0.00     0.005 C 
ENDBRANCH  11  12
ENDBRANCH  10  11
ENDBRANCH   9  10
ENDBRANCH   8   9
ENDBRANCH   6   7
ENDBRANCH   5   6
ENDBRANCH   3   4
ENDBRANCH   2   3
BRANCH   1  14
HETATM   14  C   UNK N   1      25.533  24.916  -5.016  0.00  0.00     0.027 C 
BRANCH  14  15
HETATM   15  C   UNK N   1      26.664  24.160  -4.366  0.00  0.00     0.004 C 
BRANCH  15  16
HETATM   16  C   UNK N   1      27.486  23.625  -5.524  0.00  0.00     0.000 C 
BRANCH  16  17
HETATM   17  C   UNK N   1      28.949  23.988  -5.411  0.00  0.00     0.001 C 
BRANCH  17  18
HETATM   18  C   UNK N   1      29.364  23.805  -3.963  0.00  0.00     0.010 C 
BRANCH  18  19
HETATM   19  C   UNK N   1      30.258  22.585  -3.826  0.00  0.00     0.110 C 
BRANCH  19  20
HETATM   20  C   UNK N   1      30.917  22.492  -2.480  0.00  0.00     0.139 C 
HETATM   21  O   UNK N   1      31.979  21.902  -2.337  0.00  0.00    -0.650 OA
BRANCH  20  22
HETATM   22  O   UNK N   1      30.331  23.066  -1.415  0.00  0.00    -0.776 OA
HETATM   23  H   UNK N   1      29.519  23.522  -1.517  0.00  0.00     0.167 HD
ENDBRANCH  20  22
ENDBRANCH  19  20
ENDBRANCH  18  19
ENDBRANCH  17  18
ENDBRANCH  16  17
ENDBRANCH  15  16
ENDBRANCH  14  15
ENDBRANCH   1  14
TORSDOF 16
ENDMDL
MODEL 9
REMARK VINA RESULT:      -4.7     20.790     24.398
REMARK  16 active torsions:
REMARK  status: ('A' for Active; 'I' for Inactive)
REMARK    1  A    between atoms: O_1  and  C_16 
REMARK    2  A    between atoms: C_3  and  C_4 
REMARK    3  A    between atoms: C_3  and  C_5 
REMARK    4  A    between atoms: C_4  and  C_6 
REMARK    5  A    between atoms: C_5  and  C_7 
REMARK    6  A    between atoms: C_6  and  C_8 
REMARK    7  A    between atoms: C_7  and  C_13 
REMARK    8  A    between atoms: C_8  and  C_16 
REMARK    9  A    between atoms: C_9  and  C_10 
REMARK   10  A    between atoms: C_9  and  C_11 
REMARK   11  A    between atoms: C_10  and  C_12 
REMARK   12  A    between atoms: C_11  and  C_15 
REMARK   13  A    between atoms: C_14  and  C_18 
REMARK   14  A    between atoms: C_18  and  C_21 
REMARK   15  A    between atoms: C_19  and  C_20 
REMARK   16  A    between atoms: C_20  and  C_22 
ROOT
HETATM    1  C   UNK N   1      26.072  23.823  -7.797  0.00  0.00    -0.030 C 
HETATM    2  C   UNK N   1      26.024  23.091  -6.671  0.00  0.00    -0.027 C 
ENDROOT
BRANCH   2   3
HETATM    3  C   UNK N   1      26.877  23.530  -5.527  0.00  0.00     0.053 C 
BRANCH   3   4
HETATM    4  C   UNK N   1      26.259  24.091  -4.285  0.00  0.00    -0.027 C 
HETATM    5  C   UNK N   1      27.060  24.256  -3.218  0.00  0.00    -0.027 C 
BRANCH   5   6
HETATM    6  C   UNK N   1      28.509  23.870  -3.348  0.00  0.00     0.053 C 
BRANCH   6   7
HETATM    7  C   UNK N   1      29.137  23.173  -2.190  0.00  0.00    -0.027 C 
HETATM    8  C   UNK N   1      30.428  22.811  -2.268  0.00  0.00    -0.030 C 
BRANCH   8   9
HETATM    9  C   UNK N   1      31.241  23.098  -3.500  0.00  0.00     0.027 C 
BRANCH   9  10
HETATM   10  C   UNK N   1      31.904  21.850  -4.040  0.00  0.00     0.004 C 
BRANCH  10  11
HETATM   11  C   UNK N   1      30.835  20.808  -4.306  0.00  0.00    -0.000 C 
BRANCH  11  12
HETATM   12  C   UNK N   1      30.022  21.209  -5.518  0.00  0.00    -0.005 C 
HETATM   13  C   UNK N   1      30.808  20.914  -6.777  0.00  0.00     0.005 C 
ENDBRANCH  11  12
ENDBRANCH  10  11
ENDBRANCH   9  10
ENDBRANCH   8   9
ENDBRANCH   6   7
ENDBRANCH   5   6
ENDBRANCH   3   4
ENDBRANCH   2   3
BRANCH   1  14
HETATM   14  C   UNK N   1      26.973  25.030  -7.839  0.00  0.00     0.027 C 
BRANCH  14  15
HETATM   15  C   UNK N   1      26.328  26.343  -8.204  0.00  0.00     0.004 C 
BRANCH  15  16
HETATM   16  C   UNK N   1      25.477  26.702  -7.000  0.00  0.00     0.000 C 
BRANCH  16  17
HETATM   17  C   UNK N   1      26.263  27.426  -5.931  0.00  0.00     0.001 C 
BRANCH  17  18
HETATM   18  C   UNK N   1      25.321  27.724  -4.780  0.00  0.00     0.010 C 
BRANCH  18  19
HETATM   19  C   UNK N   1      26.093  27.778  -3.473  0.00  0.00     0.110 C 
BRANCH  19  20
HETATM   20  C   UNK N   1      26.542  29.167  -3.117  0.00  0.00     0.139 C 
HETATM   21  O   UNK N   1      27.379  29.355  -2.245  0.00  0.00    -0.650 OA
BRANCH  20  22
HETATM   22  O   UNK N   1      26.016  30.219  -3.767  0.00  0.00    -0.776 OA
HETATM   23  H   UNK N   1      25.128  30.190  -4.064  0.00  0.00     0.167 HD
ENDBRANCH  20  22
ENDBRANCH  19  20
ENDBRANCH  18  19
ENDBRANCH  17  18
ENDBRANCH  16  17
ENDBRANCH  15  16
ENDBRANCH  14  15
ENDBRANCH   1  14
TORSDOF 16
ENDMDL
