MODEL 1
REMARK VINA RESULT:      -6.5      0.000      0.000
REMARK  4 active torsions:
REMARK  status: ('A' for Active; 'I' for Inactive)
REMARK    1  A    between atoms: N_1  and  C_8 
REMARK    2  A    between atoms: C_8  and  C_9 
REMARK    3  A    between atoms: C_10  and  C_11 
REMARK    4  A    between atoms: C_10  and  C_12 
ROOT
HETATM    1  C   UNK N   1      33.191  17.461   8.764  0.00  0.00     0.017 C 
HETATM    2  C   UNK N   1      32.252  17.220   7.812  0.00  0.00    -0.001 C 
ENDROOT
BRANCH   2   3
HETATM    3  C   UNK N   1      32.607  16.650   6.449  0.00  0.00    -0.024 A 
HETATM    4  C   UNK N   1      32.712  15.261   6.254  0.00  0.00     0.013 A 
HETATM    5  C   UNK N   1      33.038  14.726   5.005  0.00  0.00     0.007 A 
HETATM    6  C   UNK N   1      33.270  15.574   3.923  0.00  0.00    -0.062 A 
HETATM    7  C   UNK N   1      33.178  16.956   4.092  0.00  0.00     0.007 A 
HETATM    8  C   UNK N   1      33.613  15.008   2.592  0.00  0.00     0.048 C 
HETATM    9  C   UNK N   1      32.850  17.485   5.342  0.00  0.00     0.013 A 
ENDBRANCH   2   3
BRANCH   2  10
HETATM   10  C   UNK N   1      30.834  17.595   8.159  0.00  0.00     0.042 A 
HETATM   11  N   UNK N   1      30.533  18.168   9.361  0.00  0.00    -0.365 N 
HETATM   12  C   UNK N   1      29.258  18.485   9.715  0.00  0.00     0.088 A 
ATOM     13  HN  UNK N   1      31.289  18.365  10.016  1.00  0.00     0.165 HD
HETATM   14  C   UNK N   1      28.203  18.228   8.841  0.00  0.00     0.017 A 
HETATM   15  C   UNK N   1      28.473  17.648   7.603  0.00  0.00     0.004 A 
HETATM   16  C   UNK N   1      29.786  17.327   7.259  0.00  0.00     0.030 A 
ENDBRANCH   2  10
BRANCH   1  17
HETATM   17  C   UNK N   1      34.679  17.265   8.643  0.00  0.00     0.300 C 
BRANCH  17  18
HETATM   18  N   UNK N   1      35.154  16.111   9.400  0.00  0.00     0.091 N 
HETATM   19  C   UNK N   1      34.020  15.293   9.812  0.00  0.00     0.273 C 
HETATM   20  C   UNK N   1      34.388  14.668  11.136  0.00  0.00     0.032 C 
HETATM   21  C   UNK N   1      35.399  15.614  11.736  0.00  0.00     0.032 C 
HETATM   22  C   UNK N   1      35.698  16.627  10.648  0.00  0.00     0.273 C 
ENDBRANCH  17  18
ENDBRANCH   1  17
TORSDOF 4
ENDMDL
MODEL 2
REMARK VINA RESULT:      -6.5     15.061     17.703
REMARK  4 active torsions:
REMARK  status: ('A' for Active; 'I' for Inactive)
REMARK    1  A    between atoms: N_1  and  C_8 
REMARK    2  A    between atoms: C_8  and  C_9 
REMARK    3  A    between atoms: C_10  and  C_11 
REMARK    4  A    between atoms: C_10  and  C_12 
ROOT
HETATM    1  C   UNK N   1      25.443  27.052  -5.175  0.00  0.00     0.017 C 
HETATM    2  C   UNK N   1      26.092  25.931  -5.586  0.00  0.00    -0.001 C 
ENDROOT
BRANCH   2   3
HETATM    3  C   UNK N   1      27.073  25.190  -4.694  0.00  0.00    -0.024 A 
HETATM    4  C   UNK N   1      28.461  25.361  -4.854  0.00  0.00     0.013 A 
HETATM    5  C   UNK N   1      29.374  24.685  -4.039  0.00  0.00     0.007 A 
HETATM    6  C   UNK N   1      28.913  23.819  -3.047  0.00  0.00    -0.062 A 
HETATM    7  C   UNK N   1      27.543  23.629  -2.873  0.00  0.00     0.007 A 
HETATM    8  C   UNK N   1      29.881  23.102  -2.177  0.00  0.00     0.048 C 
HETATM    9  C   UNK N   1      26.635  24.309  -3.689  0.00  0.00     0.013 A 
ENDBRANCH   2   3
BRANCH   2  10
HETATM   10  C   UNK N   1      25.825  25.482  -6.999  0.00  0.00     0.042 A 
HETATM   11  N   UNK N   1      25.466  24.193  -7.271  0.00  0.00    -0.365 N 
HETATM   12  C   UNK N   1      25.252  23.751  -8.541  0.00  0.00     0.088 A 
ATOM     13  HN  UNK N   1      25.354  23.539  -6.498  1.00  0.00     0.165 HD
HETATM   14  C   UNK N   1      25.398  24.622  -9.619  0.00  0.00     0.017 A 
HETATM   15  C   UNK N   1      25.759  25.946  -9.380  0.00  0.00     0.004 A 
HETATM   16  C   UNK N   1      25.977  26.379  -8.072  0.00  0.00     0.030 A 
ENDBRANCH   2  10
BRANCH   1  17
HETATM   17  C   UNK N   1      25.596  27.758  -3.854  0.00  0.00     0.300 C 
BRANCH  17  18
HETATM   18  N   UNK N   1      26.484  28.913  -3.938  0.00  0.00     0.091 N 
HETATM   19  C   UNK N   1      26.984  29.052  -5.300  0.00  0.00     0.273 C 
HETATM   20  C   UNK N   1      28.373  29.634  -5.201  0.00  0.00     0.032 C 
HETATM   21  C   UNK N   1      28.863  29.221  -3.835  0.00  0.00     0.032 C 
HETATM   22  C   UNK N   1      27.666  28.588  -3.152  0.00  0.00     0.273 C 
ENDBRANCH  17  18
ENDBRANCH   1  17
TORSDOF 4
ENDMDL
MODEL 3
REMARK VINA RESULT:      -6.5      3.440      6.377
REMARK  4 active torsions:
REMARK  status: ('A' for Active; 'I' for Inactive)
REMARK    1  A    between atoms: N_1  and  C_8 
REMARK    2  A    between atoms: C_8  and  C_9 
REMARK    3  A    between atoms: C_10  and  C_11 
REMARK    4  A    between atoms: C_10  and  C_12 
ROOT
HETATM    1  C   UNK N   1      29.671  16.716   4.845  0.00  0.00     0.017 C 
HETATM    2  C   UNK N   1      28.788  17.516   5.496  0.00  0.00    -0.001 C 
ENDROOT
BRANCH   2   3
HETATM    3  C   UNK N   1      27.711  18.299   4.764  0.00  0.00    -0.024 A 
HETATM    4  C   UNK N   1      27.867  19.674   4.509  0.00  0.00     0.013 A 
HETATM    5  C   UNK N   1      26.884  20.404   3.837  0.00  0.00     0.007 A 
HETATM    6  C   UNK N   1      25.718  19.770   3.407  0.00  0.00    -0.062 A 
HETATM    7  C   UNK N   1      25.537  18.409   3.653  0.00  0.00     0.007 A 
HETATM    8  C   UNK N   1      24.672  20.543   2.688  0.00  0.00     0.048 C 
HETATM    9  C   UNK N   1      26.524  17.684   4.324  0.00  0.00     0.013 A 
ENDBRANCH   2   3
BRANCH   2  10
HETATM   10  C   UNK N   1      28.961  17.630   6.989  0.00  0.00     0.042 A 
HETATM   11  N   UNK N   1      27.885  17.816   7.809  0.00  0.00    -0.365 N 
HETATM   12  C   UNK N   1      28.014  17.957   9.156  0.00  0.00     0.088 A 
ATOM     13  HN  UNK N   1      26.952  17.852   7.398  1.00  0.00     0.165 HD
HETATM   14  C   UNK N   1      29.275  17.912   9.747  0.00  0.00     0.017 A 
HETATM   15  C   UNK N   1      30.396  17.719   8.943  0.00  0.00     0.004 A 
HETATM   16  C   UNK N   1      30.244  17.580   7.563  0.00  0.00     0.030 A 
ENDBRANCH   2  10
BRANCH   1  17
HETATM   17  C   UNK N   1      29.776  16.498   3.358  0.00  0.00     0.300 C 
BRANCH  17  18
HETATM   18  N   UNK N   1      31.160  16.436   2.899  0.00  0.00     0.091 N 
HETATM   19  C   UNK N   1      31.715  15.120   3.188  0.00  0.00     0.273 C 
HETATM   20  C   UNK N   1      33.187  15.315   3.463  0.00  0.00     0.032 C 
HETATM   21  C   UNK N   1      33.298  16.741   3.947  0.00  0.00     0.032 C 
HETATM   22  C   UNK N   1      31.921  17.343   3.747  0.00  0.00     0.273 C 
ENDBRANCH  17  18
ENDBRANCH   1  17
TORSDOF 4
ENDMDL
MODEL 4
REMARK VINA RESULT:      -6.4      1.394      5.170
REMARK  4 active torsions:
REMARK  status: ('A' for Active; 'I' for Inactive)
REMARK    1  A    between atoms: N_1  and  C_8 
REMARK    2  A    between atoms: C_8  and  C_9 
REMARK    3  A    between atoms: C_10  and  C_11 
REMARK    4  A    between atoms: C_10  and  C_12 
ROOT
HETATM    1  C   UNK N   1      32.610  17.186   6.539  0.00  0.00     0.017 C 
HETATM    2  C   UNK N   1      32.286  17.083   7.854  0.00  0.00    -0.001 C 
ENDROOT
BRANCH   2   3
HETATM    3  C   UNK N   1      33.240  16.497   8.881  0.00  0.00    -0.024 A 
HETATM    4  C   UNK N   1      34.366  17.223   9.315  0.00  0.00     0.013 A 
HETATM    5  C   UNK N   1      35.250  16.694  10.259  0.00  0.00     0.007 A 
HETATM    6  C   UNK N   1      35.027  15.423  10.786  0.00  0.00    -0.062 A 
HETATM    7  C   UNK N   1      33.922  14.682  10.368  0.00  0.00     0.007 A 
HETATM    8  C   UNK N   1      35.964  14.860  11.793  0.00  0.00     0.048 C 
HETATM    9  C   UNK N   1      33.040  15.216   9.426  0.00  0.00     0.013 A 
ENDBRANCH   2   3
BRANCH   2  10
HETATM   10  C   UNK N   1      30.902  17.536   8.240  0.00  0.00     0.042 A 
HETATM   11  N   UNK N   1      30.664  18.107   9.458  0.00  0.00    -0.365 N 
HETATM   12  C   UNK N   1      29.418  18.494   9.848  0.00  0.00     0.088 A 
ATOM     13  HN  UNK N   1      31.445  18.247  10.098  1.00  0.00     0.165 HD
HETATM   14  C   UNK N   1      28.331  18.315   8.995  0.00  0.00     0.017 A 
HETATM   15  C   UNK N   1      28.536  17.741   7.743  0.00  0.00     0.004 A 
HETATM   16  C   UNK N   1      29.819  17.347   7.362  0.00  0.00     0.030 A 
ENDBRANCH   2  10
BRANCH   1  17
HETATM   17  C   UNK N   1      33.883  16.726   5.878  0.00  0.00     0.300 C 
BRANCH  17  18
HETATM   18  N   UNK N   1      33.700  16.426   4.461  0.00  0.00     0.091 N 
HETATM   19  C   UNK N   1      32.820  17.418   3.858  0.00  0.00     0.273 C 
HETATM   20  C   UNK N   1      32.049  16.716   2.766  0.00  0.00     0.032 C 
HETATM   21  C   UNK N   1      32.028  15.267   3.187  0.00  0.00     0.032 C 
HETATM   22  C   UNK N   1      32.943  15.184   4.394  0.00  0.00     0.273 C 
ENDBRANCH  17  18
ENDBRANCH   1  17
TORSDOF 4
ENDMDL
MODEL 5
REMARK VINA RESULT:      -6.4      4.770      9.047
REMARK  4 active torsions:
REMARK  status: ('A' for Active; 'I' for Inactive)
REMARK    1  A    between atoms: N_1  and  C_8 
REMARK    2  A    between atoms: C_8  and  C_9 
REMARK    3  A    between atoms: C_10  and  C_11 
REMARK    4  A    between atoms: C_10  and  C_12 
ROOT
HETATM    1  C   UNK N   1      37.175  12.452  12.297  0.00  0.00     0.017 C 
HETATM    2  C   UNK N   1      36.368  13.413  12.818  0.00  0.00    -0.001 C 
ENDROOT
BRANCH   2   3
HETATM    3  C   UNK N   1      36.052  13.490  14.301  0.00  0.00    -0.024 A 
HETATM    4  C   UNK N   1      34.939  12.817  14.837  0.00  0.00     0.013 A 
HETATM    5  C   UNK N   1      34.639  12.880  16.200  0.00  0.00     0.007 A 
HETATM    6  C   UNK N   1      35.449  13.625  17.057  0.00  0.00    -0.062 A 
HETATM    7  C   UNK N   1      36.555  14.306  16.550  0.00  0.00     0.007 A 
HETATM    8  C   UNK N   1      35.134  13.692  18.508  0.00  0.00     0.048 C 
HETATM    9  C   UNK N   1      36.851  14.238  15.187  0.00  0.00     0.013 A 
ENDBRANCH   2   3
BRANCH   2  10
HETATM   10  C   UNK N   1      35.756  14.378  11.835  0.00  0.00     0.042 A 
HETATM   11  N   UNK N   1      36.280  15.625  11.655  0.00  0.00    -0.365 N 
HETATM   12  C   UNK N   1      35.728  16.529  10.801  0.00  0.00     0.088 A 
ATOM     13  HN  UNK N   1      37.114  15.890  12.179  1.00  0.00     0.165 HD
HETATM   14  C   UNK N   1      34.588  16.198  10.071  0.00  0.00     0.017 A 
HETATM   15  C   UNK N   1      34.027  14.932  10.226  0.00  0.00     0.004 A 
HETATM   16  C   UNK N   1      34.605  14.020  11.108  0.00  0.00     0.030 A 
ENDBRANCH   2  10
BRANCH   1  17
HETATM   17  C   UNK N   1      37.837  11.321  13.040  0.00  0.00     0.300 C 
BRANCH  17  18
HETATM   18  N   UNK N   1      37.096  10.068  12.924  0.00  0.00     0.091 N 
HETATM   19  C   UNK N   1      35.853  10.298  12.200  0.00  0.00     0.273 C 
HETATM   20  C   UNK N   1      34.835   9.332  12.758  0.00  0.00     0.032 C 
HETATM   21  C   UNK N   1      35.311   9.047  14.162  0.00  0.00     0.032 C 
HETATM   22  C   UNK N   1      36.669   9.712  14.270  0.00  0.00     0.273 C 
ENDBRANCH  17  18
ENDBRANCH   1  17
TORSDOF 4
ENDMDL
MODEL 6
REMARK VINA RESULT:      -6.2      3.653      6.473
REMARK  4 active torsions:
REMARK  status: ('A' for Active; 'I' for Inactive)
REMARK    1  A    between atoms: N_1  and  C_8 
REMARK    2  A    between atoms: C_8  and  C_9 
REMARK    3  A    between atoms: C_10  and  C_11 
REMARK    4  A    between atoms: C_10  and  C_12 
ROOT
HETATM    1  C   UNK N   1      27.601  16.518   5.570  0.00  0.00     0.017 C 
HETATM    2  C   UNK N   1      28.428  17.576   5.771  0.00  0.00    -0.001 C 
ENDROOT
BRANCH   2   3
HETATM    3  C   UNK N   1      29.929  17.411   5.941  0.00  0.00    -0.024 A 
HETATM    4  C   UNK N   1      30.786  17.430   4.826  0.00  0.00     0.013 A 
HETATM    5  C   UNK N   1      32.168  17.280   4.970  0.00  0.00     0.007 A 
HETATM    6  C   UNK N   1      32.720  17.104   6.238  0.00  0.00    -0.062 A 
HETATM    7  C   UNK N   1      31.891  17.076   7.359  0.00  0.00     0.007 A 
HETATM    8  C   UNK N   1      34.190  16.947   6.396  0.00  0.00     0.048 C 
HETATM    9  C   UNK N   1      30.511  17.229   7.209  0.00  0.00     0.013 A 
ENDBRANCH   2   3
BRANCH   2  10
HETATM   10  C   UNK N   1      27.773  18.929   5.869  0.00  0.00     0.042 A 
HETATM   11  N   UNK N   1      27.398  19.443   7.077  0.00  0.00    -0.365 N 
HETATM   12  C   UNK N   1      26.773  20.647   7.192  0.00  0.00     0.088 A 
ATOM     13  HN  UNK N   1      27.591  18.907   7.922  1.00  0.00     0.165 HD
HETATM   14  C   UNK N   1      26.495  21.403   6.055  0.00  0.00     0.017 A 
HETATM   15  C   UNK N   1      26.867  20.913   4.805  0.00  0.00     0.004 A 
HETATM   16  C   UNK N   1      27.503  19.676   4.707  0.00  0.00     0.030 A 
ENDBRANCH   2  10
BRANCH   1  17
HETATM   17  C   UNK N   1      27.983  15.061   5.524  0.00  0.00     0.300 C 
BRANCH  17  18
HETATM   18  N   UNK N   1      27.708  14.452   4.226  0.00  0.00     0.091 N 
HETATM   19  C   UNK N   1      28.826  14.693   3.323  0.00  0.00     0.273 C 
HETATM   20  C   UNK N   1      28.250  14.802   1.931  0.00  0.00     0.032 C 
HETATM   21  C   UNK N   1      26.826  15.254   2.143  0.00  0.00     0.032 C 
HETATM   22  C   UNK N   1      26.604  15.201   3.642  0.00  0.00     0.273 C 
ENDBRANCH  17  18
ENDBRANCH   1  17
TORSDOF 4
ENDMDL
MODEL 7
REMARK VINA RESULT:      -6.2     13.859     17.002
REMARK  4 active torsions:
REMARK  status: ('A' for Active; 'I' for Inactive)
REMARK    1  A    between atoms: N_1  and  C_8 
REMARK    2  A    between atoms: C_8  and  C_9 
REMARK    3  A    between atoms: C_10  and  C_11 
REMARK    4  A    between atoms: C_10  and  C_12 
ROOT
HETATM    1  C   UNK N   1      27.158  23.523  -5.887  0.00  0.00     0.017 C 
HETATM    2  C   UNK N   1      27.795  24.233  -4.920  0.00  0.00    -0.001 C 
ENDROOT
BRANCH   2   3
HETATM    3  C   UNK N   1      27.429  25.671  -4.596  0.00  0.00    -0.024 A 
HETATM    4  C   UNK N   1      28.094  26.742  -5.221  0.00  0.00     0.013 A 
HETATM    5  C   UNK N   1      27.765  28.069  -4.931  0.00  0.00     0.007 A 
HETATM    6  C   UNK N   1      26.763  28.351  -4.002  0.00  0.00    -0.062 A 
HETATM    7  C   UNK N   1      26.094  27.307  -3.365  0.00  0.00     0.007 A 
HETATM    8  C   UNK N   1      26.409  29.761  -3.694  0.00  0.00     0.048 C 
HETATM    9  C   UNK N   1      26.425  25.982  -3.660  0.00  0.00     0.013 A 
ENDBRANCH   2   3
BRANCH   2  10
HETATM   10  C   UNK N   1      28.927  23.534  -4.213  0.00  0.00     0.042 A 
HETATM   11  N   UNK N   1      29.846  22.802  -4.909  0.00  0.00    -0.365 N 
HETATM   12  C   UNK N   1      30.858  22.132  -4.293  0.00  0.00     0.088 A 
ATOM     13  HN  UNK N   1      29.771  22.755  -5.925  1.00  0.00     0.165 HD
HETATM   14  C   UNK N   1      30.987  22.178  -2.906  0.00  0.00     0.017 A 
HETATM   15  C   UNK N   1      30.070  22.918  -2.163  0.00  0.00     0.004 A 
HETATM   16  C   UNK N   1      29.038  23.595  -2.811  0.00  0.00     0.030 A 
ENDBRANCH   2  10
BRANCH   1  17
HETATM   17  C   UNK N   1      26.062  24.010  -6.799  0.00  0.00     0.300 C 
BRANCH  17  18
HETATM   18  N   UNK N   1      25.751  23.055  -7.858  0.00  0.00     0.091 N 
HETATM   19  C   UNK N   1      25.118  21.874  -7.286  0.00  0.00     0.273 C 
HETATM   20  C   UNK N   1      25.529  20.698  -8.139  0.00  0.00     0.032 C 
HETATM   21  C   UNK N   1      26.845  21.113  -8.750  0.00  0.00     0.032 C 
HETATM   22  C   UNK N   1      27.026  22.570  -8.367  0.00  0.00     0.273 C 
ENDBRANCH  17  18
ENDBRANCH   1  17
TORSDOF 4
ENDMDL
MODEL 8
REMARK VINA RESULT:      -6.2      3.593      7.530
REMARK  4 active torsions:
REMARK  status: ('A' for Active; 'I' for Inactive)
REMARK    1  A    between atoms: N_1  and  C_8 
REMARK    2  A    between atoms: C_8  and  C_9 
REMARK    3  A    between atoms: C_10  and  C_11 
REMARK    4  A    between atoms: C_10  and  C_12 
ROOT
HETATM    1  C   UNK N   1      29.003  15.669   5.625  0.00  0.00     0.017 C 
HETATM    2  C   UNK N   1      29.576  16.895   5.747  0.00  0.00    -0.001 C 
ENDROOT
BRANCH   2   3
HETATM    3  C   UNK N   1      28.753  18.161   5.908  0.00  0.00    -0.024 A 
HETATM    4  C   UNK N   1      28.376  18.618   7.184  0.00  0.00     0.013 A 
HETATM    5  C   UNK N   1      27.620  19.782   7.345  0.00  0.00     0.007 A 
HETATM    6  C   UNK N   1      27.221  20.512   6.225  0.00  0.00    -0.062 A 
HETATM    7  C   UNK N   1      27.577  20.078   4.949  0.00  0.00     0.007 A 
HETATM    8  C   UNK N   1      26.419  21.753   6.393  0.00  0.00     0.048 C 
HETATM    9  C   UNK N   1      28.335  18.914   4.795  0.00  0.00     0.013 A 
ENDBRANCH   2   3
BRANCH   2  10
HETATM   10  C   UNK N   1      31.079  16.943   5.663  0.00  0.00     0.042 A 
HETATM   11  N   UNK N   1      31.854  16.588   6.731  0.00  0.00    -0.365 N 
HETATM   12  C   UNK N   1      33.213  16.655   6.696  0.00  0.00     0.088 A 
ATOM     13  HN  UNK N   1      31.400  16.263   7.583  1.00  0.00     0.165 HD
HETATM   14  C   UNK N   1      33.864  17.095   5.545  0.00  0.00     0.017 A 
HETATM   15  C   UNK N   1      33.106  17.461   4.434  0.00  0.00     0.004 A 
HETATM   16  C   UNK N   1      31.714  17.390   4.490  0.00  0.00     0.030 A 
ENDBRANCH   2  10
BRANCH   1  17
HETATM   17  C   UNK N   1      27.530  15.354   5.584  0.00  0.00     0.300 C 
BRANCH  17  18
HETATM   18  N   UNK N   1      27.119  14.772   4.310  0.00  0.00     0.091 N 
HETATM   19  C   UNK N   1      28.282  14.604   3.448  0.00  0.00     0.273 C 
HETATM   20  C   UNK N   1      27.805  14.789   2.027  0.00  0.00     0.032 C 
HETATM   21  C   UNK N   1      26.581  15.663   2.147  0.00  0.00     0.032 C 
HETATM   22  C   UNK N   1      26.312  15.778   3.635  0.00  0.00     0.273 C 
ENDBRANCH  17  18
ENDBRANCH   1  17
TORSDOF 4
ENDMDL
MODEL 9
REMARK VINA RESULT:      -6.1      1.356      4.825
REMARK  4 active torsions:
REMARK  status: ('A' for Active; 'I' for Inactive)
REMARK    1  A    between atoms: N_1  and  C_8 
REMARK    2  A    between atoms: C_8  and  C_9 
REMARK    3  A    between atoms: C_10  and  C_11 
REMARK    4  A    between atoms: C_10  and  C_12 
ROOT
HETATM    1  C   UNK N   1      32.502  17.212   6.331  0.00  0.00     0.017 C 
HETATM    2  C   UNK N   1      32.219  17.108   7.656  0.00  0.00    -0.001 C 
ENDROOT
BRANCH   2   3
HETATM    3  C   UNK N   1      33.201  16.511   8.649  0.00  0.00    -0.024 A 
HETATM    4  C   UNK N   1      33.053  15.186   9.102  0.00  0.00     0.013 A 
HETATM    5  C   UNK N   1      33.950  14.627  10.015  0.00  0.00     0.007 A 
HETATM    6  C   UNK N   1      35.015  15.386  10.499  0.00  0.00    -0.062 A 
HETATM    7  C   UNK N   1      35.181  16.703  10.071  0.00  0.00     0.007 A 
HETATM    8  C   UNK N   1      35.973  14.792  11.468  0.00  0.00     0.048 C 
HETATM    9  C   UNK N   1      34.282  17.256   9.156  0.00  0.00     0.013 A 
ENDBRANCH   2   3
BRANCH   2  10
HETATM   10  C   UNK N   1      30.853  17.573   8.088  0.00  0.00     0.042 A 
HETATM   11  N   UNK N   1      30.658  18.138   9.316  0.00  0.00    -0.365 N 
HETATM   12  C   UNK N   1      29.430  18.535   9.747  0.00  0.00     0.088 A 
ATOM     13  HN  UNK N   1      31.460  18.267   9.932  1.00  0.00     0.165 HD
HETATM   14  C   UNK N   1      28.314  18.372   8.927  0.00  0.00     0.017 A 
HETATM   15  C   UNK N   1      28.475  17.803   7.666  0.00  0.00     0.004 A 
HETATM   16  C   UNK N   1      29.741  17.400   7.243  0.00  0.00     0.030 A 
ENDBRANCH   2  10
BRANCH   1  17
HETATM   17  C   UNK N   1      33.749  16.742   5.628  0.00  0.00     0.300 C 
BRANCH  17  18
HETATM   18  N   UNK N   1      33.550  15.480   4.922  0.00  0.00     0.091 N 
HETATM   19  C   UNK N   1      34.780  14.700   4.954  0.00  0.00     0.273 C 
HETATM   20  C   UNK N   1      34.830  13.906   3.670  0.00  0.00     0.032 C 
HETATM   21  C   UNK N   1      34.003  14.707   2.695  0.00  0.00     0.032 C 
HETATM   22  C   UNK N   1      33.371  15.815   3.516  0.00  0.00     0.273 C 
ENDBRANCH  17  18
ENDBRANCH   1  17
TORSDOF 4
ENDMDL
