MODEL 1
REMARK VINA RESULT:      -5.6      0.000      0.000
REMARK  6 active torsions:
REMARK  status: ('A' for Active; 'I' for Inactive)
REMARK    1  A    between atoms: C_3  and  O_1 
REMARK    2  A    between atoms: O_1  and  C_7 
REMARK    3  A    between atoms: N_2  and  C_6 
REMARK    4  A    between atoms: C_3  and  C_4 
REMARK    5  A    between atoms: C_3  and  C_5 
REMARK    6  A    between atoms: C_4  and  C_6 
ROOT
HETATM    1  C   UNK N   1      30.165  16.563   5.727  0.00  0.00     0.163 C 
ENDROOT
BRANCH   1   2
HETATM    2  O   UNK N   1      29.060  17.054   6.398  0.00  0.00    -0.341 OA
BRANCH   2   3
HETATM    3  C   UNK N   1      28.476  18.241   6.096  0.00  0.00     0.075 A 
HETATM    4  C   UNK N   1      28.030  19.084   7.129  0.00  0.00    -0.029 A 
HETATM    5  C   UNK N   1      27.437  20.313   6.824  0.00  0.00     0.009 A 
HETATM    6  C   UNK N   1      28.187  18.687   8.557  0.00  0.00     0.051 C 
HETATM    7  C   UNK N   1      27.282  20.709   5.494  0.00  0.00     0.001 A 
HETATM    8  C   UNK N   1      27.719  19.878   4.461  0.00  0.00     0.003 A 
HETATM    9  C   UNK N   1      28.314  18.652   4.759  0.00  0.00     0.037 A 
ENDBRANCH   2   3
ENDBRANCH   1   2
BRANCH   1  10
HETATM   10  C   UNK N   1      30.061  15.051   5.568  0.00  0.00     0.056 C 
BRANCH  10  11
HETATM   11  C   UNK N   1      28.937  14.743   4.597  0.00  0.00     0.116 C 
BRANCH  11  12
HETATM   12  N   UNK N   1      27.694  14.536   5.313  0.00  0.00    -0.425 N 
HETATM   13  C   UNK N   1      26.662  15.196   4.534  0.00  0.00     0.139 C 
HETATM   14  H   UNK N   1      27.569  14.029   6.189  0.00  0.00     0.152 HD
ENDBRANCH  11  12
ENDBRANCH  10  11
ENDBRANCH   1  10
BRANCH   1  15
HETATM   15  C   UNK N   1      31.453  17.009   6.375  0.00  0.00    -0.029 A 
HETATM   16  C   UNK N   1      32.621  17.120   5.606  0.00  0.00     0.010 A 
HETATM   17  C   UNK N   1      33.813  17.563   6.188  0.00  0.00     0.001 A 
HETATM   18  C   UNK N   1      33.842  17.913   7.540  0.00  0.00     0.000 A 
HETATM   19  C   UNK N   1      32.682  17.813   8.313  0.00  0.00     0.001 A 
HETATM   20  C   UNK N   1      31.492  17.360   7.734  0.00  0.00     0.010 A 
ENDBRANCH   1  15
TORSDOF 6
ENDMDL
MODEL 2
REMARK VINA RESULT:      -5.6     11.416     14.246
REMARK  6 active torsions:
REMARK  status: ('A' for Active; 'I' for Inactive)
REMARK    1  A    between atoms: C_3  and  O_1 
REMARK    2  A    between atoms: O_1  and  C_7 
REMARK    3  A    between atoms: N_2  and  C_6 
REMARK    4  A    between atoms: C_3  and  C_4 
REMARK    5  A    between atoms: C_3  and  C_5 
REMARK    6  A    between atoms: C_4  and  C_6 
ROOT
HETATM    1  C   UNK N   1      26.774  24.083  -5.550  0.00  0.00     0.163 C 
ENDROOT
BRANCH   1   2
HETATM    2  O   UNK N   1      28.148  24.029  -5.693  0.00  0.00    -0.341 OA
BRANCH   2   3
HETATM    3  C   UNK N   1      28.931  23.160  -5.005  0.00  0.00     0.075 A 
HETATM    4  C   UNK N   1      29.486  22.048  -5.662  0.00  0.00    -0.029 A 
HETATM    5  C   UNK N   1      30.303  21.155  -4.961  0.00  0.00     0.009 A 
HETATM    6  C   UNK N   1      29.221  21.807  -7.109  0.00  0.00     0.051 C 
HETATM    7  C   UNK N   1      30.570  21.362  -3.606  0.00  0.00     0.001 A 
HETATM    8  C   UNK N   1      30.022  22.462  -2.944  0.00  0.00     0.003 A 
HETATM    9  C   UNK N   1      29.209  23.358  -3.639  0.00  0.00     0.037 A 
ENDBRANCH   2   3
ENDBRANCH   1   2
BRANCH   1  10
HETATM   10  C   UNK N   1      26.088  23.659  -6.843  0.00  0.00     0.056 C 
BRANCH  10  11
HETATM   11  C   UNK N   1      25.350  22.356  -6.595  0.00  0.00     0.116 C 
BRANCH  11  12
HETATM   12  N   UNK N   1      24.575  21.985  -7.762  0.00  0.00    -0.425 N 
HETATM   13  C   UNK N   1      25.440  21.150  -8.575  0.00  0.00     0.139 C 
HETATM   14  H   UNK N   1      23.615  22.258  -7.971  0.00  0.00     0.152 HD
ENDBRANCH  11  12
ENDBRANCH  10  11
ENDBRANCH   1  10
BRANCH   1  15
HETATM   15  C   UNK N   1      26.318  25.431  -5.046  0.00  0.00    -0.029 A 
HETATM   16  C   UNK N   1      25.486  26.231  -5.843  0.00  0.00     0.010 A 
HETATM   17  C   UNK N   1      25.031  27.467  -5.375  0.00  0.00     0.001 A 
HETATM   18  C   UNK N   1      25.392  27.906  -4.099  0.00  0.00     0.000 A 
HETATM   19  C   UNK N   1      26.214  27.112  -3.294  0.00  0.00     0.001 A 
HETATM   20  C   UNK N   1      26.678  25.881  -3.766  0.00  0.00     0.010 A 
ENDBRANCH   1  15
TORSDOF 6
ENDMDL
MODEL 3
REMARK VINA RESULT:      -5.5      1.035      4.941
REMARK  6 active torsions:
REMARK  status: ('A' for Active; 'I' for Inactive)
REMARK    1  A    between atoms: C_3  and  O_1 
REMARK    2  A    between atoms: O_1  and  C_7 
REMARK    3  A    between atoms: N_2  and  C_6 
REMARK    4  A    between atoms: C_3  and  C_4 
REMARK    5  A    between atoms: C_3  and  C_5 
REMARK    6  A    between atoms: C_4  and  C_6 
ROOT
HETATM    1  C   UNK N   1      28.846  17.094   6.216  0.00  0.00     0.163 C 
ENDROOT
BRANCH   1   2
HETATM    2  O   UNK N   1      30.048  16.894   5.562  0.00  0.00    -0.341 OA
BRANCH   2   3
HETATM    3  C   UNK N   1      31.253  17.162   6.126  0.00  0.00     0.075 A 
HETATM    4  C   UNK N   1      32.388  17.315   5.310  0.00  0.00    -0.029 A 
HETATM    5  C   UNK N   1      33.630  17.603   5.885  0.00  0.00     0.009 A 
HETATM    6  C   UNK N   1      32.285  17.181   3.829  0.00  0.00     0.051 C 
HETATM    7  C   UNK N   1      33.751  17.737   7.270  0.00  0.00     0.001 A 
HETATM    8  C   UNK N   1      32.631  17.585   8.088  0.00  0.00     0.003 A 
HETATM    9  C   UNK N   1      31.388  17.301   7.521  0.00  0.00     0.037 A 
ENDBRANCH   2   3
ENDBRANCH   1   2
BRANCH   1  10
HETATM   10  C   UNK N   1      27.881  15.954   5.914  0.00  0.00     0.056 C 
BRANCH  10  11
HETATM   11  C   UNK N   1      28.502  15.062   4.855  0.00  0.00     0.116 C 
BRANCH  11  12
HETATM   12  N   UNK N   1      27.984  15.398   3.545  0.00  0.00    -0.425 N 
HETATM   13  C   UNK N   1      29.110  15.324   2.632  0.00  0.00     0.139 C 
HETATM   14  H   UNK N   1      27.021  15.639   3.310  0.00  0.00     0.152 HD
ENDBRANCH  11  12
ENDBRANCH  10  11
ENDBRANCH   1  10
BRANCH   1  15
HETATM   15  C   UNK N   1      28.271  18.458   5.921  0.00  0.00    -0.029 A 
HETATM   16  C   UNK N   1      28.023  18.841   4.594  0.00  0.00     0.010 A 
HETATM   17  C   UNK N   1      27.461  20.088   4.311  0.00  0.00     0.001 A 
HETATM   18  C   UNK N   1      27.128  20.958   5.352  0.00  0.00     0.000 A 
HETATM   19  C   UNK N   1      27.363  20.582   6.677  0.00  0.00     0.001 A 
HETATM   20  C   UNK N   1      27.935  19.339   6.962  0.00  0.00     0.010 A 
ENDBRANCH   1  15
TORSDOF 6
ENDMDL
MODEL 4
REMARK VINA RESULT:      -5.5      8.562     11.258
REMARK  6 active torsions:
REMARK  status: ('A' for Active; 'I' for Inactive)
REMARK    1  A    between atoms: C_3  and  O_1 
REMARK    2  A    between atoms: O_1  and  C_7 
REMARK    3  A    between atoms: N_2  and  C_6 
REMARK    4  A    between atoms: C_3  and  C_4 
REMARK    5  A    between atoms: C_3  and  C_5 
REMARK    6  A    between atoms: C_4  and  C_6 
ROOT
HETATM    1  C   UNK N   1      35.322  12.537  14.476  0.00  0.00     0.163 C 
ENDROOT
BRANCH   1   2
HETATM    2  O   UNK N   1      35.065  13.209  13.296  0.00  0.00    -0.341 OA
BRANCH   2   3
HETATM    3  C   UNK N   1      35.962  13.297  12.282  0.00  0.00     0.075 A 
HETATM    4  C   UNK N   1      35.784  14.258  11.271  0.00  0.00    -0.029 A 
HETATM    5  C   UNK N   1      36.711  14.360  10.229  0.00  0.00     0.009 A 
HETATM    6  C   UNK N   1      34.615  15.183  11.296  0.00  0.00     0.051 C 
HETATM    7  C   UNK N   1      37.817  13.508  10.185  0.00  0.00     0.001 A 
HETATM    8  C   UNK N   1      38.001  12.549  11.182  0.00  0.00     0.003 A 
HETATM    9  C   UNK N   1      37.081  12.444  12.226  0.00  0.00     0.037 A 
ENDBRANCH   2   3
ENDBRANCH   1   2
BRANCH   1  10
HETATM   10  C   UNK N   1      34.142  11.648  14.848  0.00  0.00     0.056 C 
BRANCH  10  11
HETATM   11  C   UNK N   1      34.230  10.365  14.041  0.00  0.00     0.116 C 
BRANCH  11  12
HETATM   12  N   UNK N   1      33.637  10.552  12.732  0.00  0.00    -0.425 N 
HETATM   13  C   UNK N   1      34.339   9.650  11.837  0.00  0.00     0.139 C 
HETATM   14  H   UNK N   1      32.880  11.190  12.487  0.00  0.00     0.152 HD
ENDBRANCH  11  12
ENDBRANCH  10  11
ENDBRANCH   1  10
BRANCH   1  15
HETATM   15  C   UNK N   1      35.728  13.484  15.579  0.00  0.00    -0.029 A 
HETATM   16  C   UNK N   1      35.090  13.418  16.828  0.00  0.00     0.010 A 
HETATM   17  C   UNK N   1      35.479  14.267  17.867  0.00  0.00     0.001 A 
HETATM   18  C   UNK N   1      36.520  15.179  17.673  0.00  0.00     0.000 A 
HETATM   19  C   UNK N   1      37.167  15.246  16.436  0.00  0.00     0.001 A 
HETATM   20  C   UNK N   1      36.772  14.404  15.392  0.00  0.00     0.010 A 
ENDBRANCH   1  15
TORSDOF 6
ENDMDL
MODEL 5
REMARK VINA RESULT:      -5.5     10.381     13.010
REMARK  6 active torsions:
REMARK  status: ('A' for Active; 'I' for Inactive)
REMARK    1  A    between atoms: C_3  and  O_1 
REMARK    2  A    between atoms: O_1  and  C_7 
REMARK    3  A    between atoms: N_2  and  C_6 
REMARK    4  A    between atoms: C_3  and  C_4 
REMARK    5  A    between atoms: C_3  and  C_5 
REMARK    6  A    between atoms: C_4  and  C_6 
ROOT
HETATM    1  C   UNK N   1      35.813  12.621  15.202  0.00  0.00     0.163 C 
ENDROOT
BRANCH   1   2
HETATM    2  O   UNK N   1      36.406  11.528  14.598  0.00  0.00    -0.341 OA
BRANCH   2   3
HETATM    3  C   UNK N   1      35.741  10.692  13.762  0.00  0.00     0.075 A 
HETATM    4  C   UNK N   1      36.270   9.420  13.477  0.00  0.00    -0.029 A 
HETATM    5  C   UNK N   1      35.584   8.551  12.624  0.00  0.00     0.009 A 
HETATM    6  C   UNK N   1      37.559   8.979  14.082  0.00  0.00     0.051 C 
HETATM    7  C   UNK N   1      34.372   8.939  12.048  0.00  0.00     0.001 A 
HETATM    8  C   UNK N   1      33.840  10.200  12.323  0.00  0.00     0.003 A 
HETATM    9  C   UNK N   1      34.518  11.072  13.176  0.00  0.00     0.037 A 
ENDBRANCH   2   3
ENDBRANCH   1   2
BRANCH   1  10
HETATM   10  C   UNK N   1      36.595  13.890  14.887  0.00  0.00     0.056 C 
BRANCH  10  11
HETATM   11  C   UNK N   1      36.202  14.369  13.501  0.00  0.00     0.116 C 
BRANCH  11  12
HETATM   12  N   UNK N   1      37.064  13.776  12.499  0.00  0.00    -0.425 N 
HETATM   13  C   UNK N   1      36.311  13.786  11.258  0.00  0.00     0.139 C 
HETATM   14  H   UNK N   1      38.011  13.421  12.637  0.00  0.00     0.152 HD
ENDBRANCH  11  12
ENDBRANCH  10  11
ENDBRANCH   1  10
BRANCH   1  15
HETATM   15  C   UNK N   1      35.608  12.398  16.681  0.00  0.00    -0.029 A 
HETATM   16  C   UNK N   1      35.825  11.127  17.234  0.00  0.00     0.010 A 
HETATM   17  C   UNK N   1      35.670  10.916  18.607  0.00  0.00     0.001 A 
HETATM   18  C   UNK N   1      35.311  11.978  19.441  0.00  0.00     0.000 A 
HETATM   19  C   UNK N   1      35.101  13.250  18.901  0.00  0.00     0.001 A 
HETATM   20  C   UNK N   1      35.245  13.460  17.526  0.00  0.00     0.010 A 
ENDBRANCH   1  15
TORSDOF 6
ENDMDL
MODEL 6
REMARK VINA RESULT:      -5.5      8.052     10.973
REMARK  6 active torsions:
REMARK  status: ('A' for Active; 'I' for Inactive)
REMARK    1  A    between atoms: C_3  and  O_1 
REMARK    2  A    between atoms: O_1  and  C_7 
REMARK    3  A    between atoms: N_2  and  C_6 
REMARK    4  A    between atoms: C_3  and  C_4 
REMARK    5  A    between atoms: C_3  and  C_5 
REMARK    6  A    between atoms: C_4  and  C_6 
ROOT
HETATM    1  C   UNK N   1      35.449  13.221  12.310  0.00  0.00     0.163 C 
ENDROOT
BRANCH   1   2
HETATM    2  O   UNK N   1      34.887  13.424  13.557  0.00  0.00    -0.341 OA
BRANCH   2   3
HETATM    3  C   UNK N   1      34.895  12.484  14.536  0.00  0.00     0.075 A 
HETATM    4  C   UNK N   1      35.618  12.715  15.720  0.00  0.00    -0.029 A 
HETATM    5  C   UNK N   1      35.621  11.754  16.737  0.00  0.00     0.009 A 
HETATM    6  C   UNK N   1      36.381  13.980  15.914  0.00  0.00     0.051 C 
HETATM    7  C   UNK N   1      34.910  10.562  16.582  0.00  0.00     0.001 A 
HETATM    8  C   UNK N   1      34.192  10.323  15.409  0.00  0.00     0.003 A 
HETATM    9  C   UNK N   1      34.182  11.279  14.392  0.00  0.00     0.037 A 
ENDBRANCH   2   3
ENDBRANCH   1   2
BRANCH   1  10
HETATM   10  C   UNK N   1      36.930  12.890  12.443  0.00  0.00     0.056 C 
BRANCH  10  11
HETATM   11  C   UNK N   1      37.479  12.568  11.065  0.00  0.00     0.116 C 
BRANCH  11  12
HETATM   12  N   UNK N   1      38.674  13.346  10.804  0.00  0.00    -0.425 N 
HETATM   13  C   UNK N   1      38.432  14.055   9.561  0.00  0.00     0.139 C 
HETATM   14  H   UNK N   1      39.516  13.387  11.378  0.00  0.00     0.152 HD
ENDBRANCH  11  12
ENDBRANCH  10  11
ENDBRANCH   1  10
BRANCH   1  15
HETATM   15  C   UNK N   1      35.176  14.378  11.380  0.00  0.00    -0.029 A 
HETATM   16  C   UNK N   1      34.330  14.203  10.275  0.00  0.00     0.010 A 
HETATM   17  C   UNK N   1      34.044  15.275   9.425  0.00  0.00     0.001 A 
HETATM   18  C   UNK N   1      34.589  16.535   9.682  0.00  0.00     0.000 A 
HETATM   19  C   UNK N   1      35.426  16.722  10.786  0.00  0.00     0.001 A 
HETATM   20  C   UNK N   1      35.722  15.647  11.630  0.00  0.00     0.010 A 
ENDBRANCH   1  15
TORSDOF 6
ENDMDL
MODEL 7
REMARK VINA RESULT:      -5.4     14.699     17.034
REMARK  6 active torsions:
REMARK  status: ('A' for Active; 'I' for Inactive)
REMARK    1  A    between atoms: C_3  and  O_1 
REMARK    2  A    between atoms: O_1  and  C_7 
REMARK    3  A    between atoms: N_2  and  C_6 
REMARK    4  A    between atoms: C_3  and  C_4 
REMARK    5  A    between atoms: C_3  and  C_5 
REMARK    6  A    between atoms: C_4  and  C_6 
ROOT
HETATM    1  C   UNK N   1      33.966   9.798  20.707  0.00  0.00     0.163 C 
ENDROOT
BRANCH   1   2
HETATM    2  O   UNK N   1      34.990   9.960  19.792  0.00  0.00    -0.341 OA
BRANCH   2   3
HETATM    3  C   UNK N   1      35.091  11.040  18.977  0.00  0.00     0.075 A 
HETATM    4  C   UNK N   1      35.126  10.862  17.582  0.00  0.00    -0.029 A 
HETATM    5  C   UNK N   1      35.220  11.972  16.737  0.00  0.00     0.009 A 
HETATM    6  C   UNK N   1      35.056   9.498  16.986  0.00  0.00     0.051 C 
HETATM    7  C   UNK N   1      35.283  13.261  17.272  0.00  0.00     0.001 A 
HETATM    8  C   UNK N   1      35.252  13.447  18.654  0.00  0.00     0.003 A 
HETATM    9  C   UNK N   1      35.155  12.344  19.503  0.00  0.00     0.037 A 
ENDBRANCH   2   3
ENDBRANCH   1   2
BRANCH   1  10
HETATM   10  C   UNK N   1      34.533   9.602  22.108  0.00  0.00     0.056 C 
BRANCH  10  11
HETATM   11  C   UNK N   1      35.997   9.220  21.989  0.00  0.00     0.116 C 
BRANCH  11  12
HETATM   12  N   UNK N   1      36.815  10.100  22.797  0.00  0.00    -0.425 N 
HETATM   13  C   UNK N   1      37.933  10.497  21.961  0.00  0.00     0.139 C 
HETATM   14  H   UNK N   1      36.642  10.385  23.762  0.00  0.00     0.152 HD
ENDBRANCH  11  12
ENDBRANCH  10  11
ENDBRANCH   1  10
BRANCH   1  15
HETATM   15  C   UNK N   1      33.013   8.704  20.291  0.00  0.00    -0.029 A 
HETATM   16  C   UNK N   1      33.510   7.519  19.729  0.00  0.00     0.010 A 
HETATM   17  C   UNK N   1      32.641   6.486  19.369  0.00  0.00     0.001 A 
HETATM   18  C   UNK N   1      31.267   6.623  19.582  0.00  0.00     0.000 A 
HETATM   19  C   UNK N   1      30.762   7.796  20.150  0.00  0.00     0.001 A 
HETATM   20  C   UNK N   1      31.630   8.835  20.500  0.00  0.00     0.010 A 
ENDBRANCH   1  15
TORSDOF 6
ENDMDL
MODEL 8
REMARK VINA RESULT:      -5.3     13.020     15.305
REMARK  6 active torsions:
REMARK  status: ('A' for Active; 'I' for Inactive)
REMARK    1  A    between atoms: C_3  and  O_1 
REMARK    2  A    between atoms: O_1  and  C_7 
REMARK    3  A    between atoms: N_2  and  C_6 
REMARK    4  A    between atoms: C_3  and  C_4 
REMARK    5  A    between atoms: C_3  and  C_5 
REMARK    6  A    between atoms: C_4  and  C_6 
ROOT
HETATM    1  C   UNK N   1      26.367  24.068  -7.334  0.00  0.00     0.163 C 
ENDROOT
BRANCH   1   2
HETATM    2  O   UNK N   1      25.669  24.207  -6.148  0.00  0.00    -0.341 OA
BRANCH   2   3
HETATM    3  C   UNK N   1      25.678  25.348  -5.413  0.00  0.00     0.075 A 
HETATM    4  C   UNK N   1      26.275  25.355  -4.140  0.00  0.00    -0.029 A 
HETATM    5  C   UNK N   1      26.296  26.530  -3.382  0.00  0.00     0.009 A 
HETATM    6  C   UNK N   1      26.899  24.121  -3.584  0.00  0.00     0.051 C 
HETATM    7  C   UNK N   1      25.722  27.701  -3.882  0.00  0.00     0.001 A 
HETATM    8  C   UNK N   1      25.124  27.703  -5.144  0.00  0.00     0.003 A 
HETATM    9  C   UNK N   1      25.103  26.535  -5.906  0.00  0.00     0.037 A 
ENDBRANCH   2   3
ENDBRANCH   1   2
BRANCH   1  10
HETATM   10  C   UNK N   1      25.408  24.077  -8.518  0.00  0.00     0.056 C 
BRANCH  10  11
HETATM   11  C   UNK N   1      26.027  24.898  -9.635  0.00  0.00     0.116 C 
BRANCH  11  12
HETATM   12  N   UNK N   1      25.284  26.127  -9.829  0.00  0.00    -0.425 N 
HETATM   13  C   UNK N   1      24.485  25.933 -11.025  0.00  0.00     0.139 C 
HETATM   14  H   UNK N   1      25.316  26.962  -9.243  0.00  0.00     0.152 HD
ENDBRANCH  11  12
ENDBRANCH  10  11
ENDBRANCH   1  10
BRANCH   1  15
HETATM   15  C   UNK N   1      27.273  22.861  -7.308  0.00  0.00    -0.029 A 
HETATM   16  C   UNK N   1      26.966  21.739  -8.093  0.00  0.00     0.010 A 
HETATM   17  C   UNK N   1      27.815  20.629  -8.103  0.00  0.00     0.001 A 
HETATM   18  C   UNK N   1      28.986  20.637  -7.341  0.00  0.00     0.000 A 
HETATM   19  C   UNK N   1      29.305  21.753  -6.563  0.00  0.00     0.001 A 
HETATM   20  C   UNK N   1      28.451  22.860  -6.544  0.00  0.00     0.010 A 
ENDBRANCH   1  15
TORSDOF 6
ENDMDL
MODEL 9
REMARK VINA RESULT:      -5.3     10.367     13.000
REMARK  6 active torsions:
REMARK  status: ('A' for Active; 'I' for Inactive)
REMARK    1  A    between atoms: C_3  and  O_1 
REMARK    2  A    between atoms: O_1  and  C_7 
REMARK    3  A    between atoms: N_2  and  C_6 
REMARK    4  A    between atoms: C_3  and  C_4 
REMARK    5  A    between atoms: C_3  and  C_5 
REMARK    6  A    between atoms: C_4  and  C_6 
ROOT
HETATM    1  C   UNK N   1      35.929  12.577  14.367  0.00  0.00     0.163 C 
ENDROOT
BRANCH   1   2
HETATM    2  O   UNK N   1      34.910  12.216  15.228  0.00  0.00    -0.341 OA
BRANCH   2   3
HETATM    3  C   UNK N   1      35.032  12.255  16.579  0.00  0.00     0.075 A 
HETATM    4  C   UNK N   1      35.107  11.056  17.309  0.00  0.00    -0.029 A 
HETATM    5  C   UNK N   1      35.244  11.090  18.701  0.00  0.00     0.009 A 
HETATM    6  C   UNK N   1      35.050   9.737  16.617  0.00  0.00     0.051 C 
HETATM    7  C   UNK N   1      35.304  12.313  19.372  0.00  0.00     0.001 A 
HETATM    8  C   UNK N   1      35.228  13.509  18.657  0.00  0.00     0.003 A 
HETATM    9  C   UNK N   1      35.094  13.481  17.268  0.00  0.00     0.037 A 
ENDBRANCH   2   3
ENDBRANCH   1   2
BRANCH   1  10
HETATM   10  C   UNK N   1      35.370  13.345  13.175  0.00  0.00     0.056 C 
BRANCH  10  11
HETATM   11  C   UNK N   1      36.128  14.653  13.043  0.00  0.00     0.116 C 
BRANCH  11  12
HETATM   12  N   UNK N   1      36.607  14.824  11.686  0.00  0.00    -0.425 N 
HETATM   13  C   UNK N   1      35.889  15.963  11.143  0.00  0.00     0.139 C 
HETATM   14  H   UNK N   1      37.306  14.257  11.207  0.00  0.00     0.152 HD
ENDBRANCH  11  12
ENDBRANCH  10  11
ENDBRANCH   1  10
BRANCH   1  15
HETATM   15  C   UNK N   1      36.771  11.389  13.970  0.00  0.00    -0.029 A 
HETATM   16  C   UNK N   1      37.925  11.073  14.702  0.00  0.00     0.010 A 
HETATM   17  C   UNK N   1      38.695   9.957  14.364  0.00  0.00     0.001 A 
HETATM   18  C   UNK N   1      38.308   9.137  13.300  0.00  0.00     0.000 A 
HETATM   19  C   UNK N   1      37.155   9.438  12.570  0.00  0.00     0.001 A 
HETATM   20  C   UNK N   1      36.390  10.561  12.901  0.00  0.00     0.010 A 
ENDBRANCH   1  15
TORSDOF 6
ENDMDL
