REMARK  10 active torsions:
REMARK  status: ('A' for Active; 'I' for Inactive)
REMARK    1  A    between atoms: Gd_1  and  Gd_1 
REMARK    2  A    between atoms: O_2  and  C_22 
REMARK    3  A    between atoms: N_9  and  C_21 
REMARK    4  A    between atoms: N_10  and  C_23 
REMARK    5  A    between atoms: N_11  and  C_24 
REMARK    6  A    between atoms: N_12  and  C_25 
REMARK    7  A    between atoms: C_21  and  C_22 
REMARK    8  A    between atoms: C_23  and  C_28 
REMARK    9  A    between atoms: C_24  and  C_27 
REMARK   10  A    between atoms: C_25  and  C_29 
ROOT
HETATM    1 Gd   UNK N   1      -1.162   5.232   0.283  0.00  0.00     0.000 Gd
ENDROOT
TORSDOF 10
