MODEL 1
REMARK VINA RESULT:      -1.2      0.000      0.000
REMARK  1 active torsions:
REMARK  status: ('A' for Active; 'I' for Inactive)
REMARK    1  A    between atoms: Ca_1  and  Ca_1 
ROOT
HETATM    1 Ca   UNK N   1      39.964  21.073  13.075  0.00  0.00     0.000 Ca
ENDROOT
TORSDOF 1
ENDMDL
MODEL 2
REMARK VINA RESULT:      -1.2      4.352      4.352
REMARK  1 active torsions:
REMARK  status: ('A' for Active; 'I' for Inactive)
REMARK    1  A    between atoms: Ca_1  and  Ca_1 
ROOT
HETATM    1 Ca   UNK N   1      35.636  21.382  12.738  0.00  0.00     0.000 Ca
ENDROOT
TORSDOF 1
ENDMDL
MODEL 3
REMARK VINA RESULT:      -1.2     26.829     26.829
REMARK  1 active torsions:
REMARK  status: ('A' for Active; 'I' for Inactive)
REMARK    1  A    between atoms: Ca_1  and  Ca_1 
ROOT
HETATM    1 Ca   UNK N   1      21.453  21.778  -6.332  0.00  0.00     0.000 Ca
ENDROOT
TORSDOF 1
ENDMDL
MODEL 4
REMARK VINA RESULT:      -1.1      9.592      9.592
REMARK  1 active torsions:
REMARK  status: ('A' for Active; 'I' for Inactive)
REMARK    1  A    between atoms: Ca_1  and  Ca_1 
ROOT
HETATM    1 Ca   UNK N   1      43.320  25.304   5.147  0.00  0.00     0.000 Ca
ENDROOT
TORSDOF 1
ENDMDL
MODEL 5
REMARK VINA RESULT:      -1.0      9.125      9.125
REMARK  1 active torsions:
REMARK  status: ('A' for Active; 'I' for Inactive)
REMARK    1  A    between atoms: Ca_1  and  Ca_1 
ROOT
HETATM    1 Ca   UNK N   1      41.691  21.639  22.017  0.00  0.00     0.000 Ca
ENDROOT
TORSDOF 1
ENDMDL
MODEL 6
REMARK VINA RESULT:      -1.0     24.041     24.041
REMARK  1 active torsions:
REMARK  status: ('A' for Active; 'I' for Inactive)
REMARK    1  A    between atoms: Ca_1  and  Ca_1 
ROOT
HETATM    1 Ca   UNK N   1      17.303  25.079   6.117  0.00  0.00     0.000 Ca
ENDROOT
TORSDOF 1
ENDMDL
MODEL 7
REMARK VINA RESULT:      -0.9     22.644     22.644
REMARK  1 active torsions:
REMARK  status: ('A' for Active; 'I' for Inactive)
REMARK    1  A    between atoms: Ca_1  and  Ca_1 
ROOT
HETATM    1 Ca   UNK N   1      17.465  20.397  10.609  0.00  0.00     0.000 Ca
ENDROOT
TORSDOF 1
ENDMDL
MODEL 8
REMARK VINA RESULT:      -0.9      4.911      4.911
REMARK  1 active torsions:
REMARK  status: ('A' for Active; 'I' for Inactive)
REMARK    1  A    between atoms: Ca_1  and  Ca_1 
ROOT
HETATM    1 Ca   UNK N   1      36.345  19.944   9.954  0.00  0.00     0.000 Ca
ENDROOT
TORSDOF 1
ENDMDL
MODEL 9
REMARK VINA RESULT:      -0.9      8.030      8.030
REMARK  1 active torsions:
REMARK  status: ('A' for Active; 'I' for Inactive)
REMARK    1  A    between atoms: Ca_1  and  Ca_1 
ROOT
HETATM    1 Ca   UNK N   1      44.765  23.323   7.044  0.00  0.00     0.000 Ca
ENDROOT
TORSDOF 1
ENDMDL
