MODEL 1
REMARK VINA RESULT:      -1.3      0.000      0.000
REMARK  24 active torsions:
REMARK  status: ('A' for Active; 'I' for Inactive)
REMARK    1  A    between atoms: Ca_1  and  Ca_1 
REMARK    2  A    between atoms: C_19  and  O_3 
REMARK    3  A    between atoms: C_20  and  O_4 
REMARK    4  A    between atoms: C_21  and  O_5 
REMARK    5  A    between atoms: C_22  and  O_6 
REMARK    6  A    between atoms: C_23  and  O_7 
REMARK    7  A    between atoms: C_24  and  O_8 
REMARK    8  A    between atoms: C_25  and  O_9 
REMARK    9  A    between atoms: O_10  and  C_26 
REMARK   10  A    between atoms: O_11  and  C_27 
REMARK   11  A    between atoms: O_12  and  C_28 
REMARK   12  A    between atoms: O_13  and  C_29 
REMARK   13  A    between atoms: C_18  and  C_19 
REMARK   14  A    between atoms: C_18  and  C_22 
REMARK   15  A    between atoms: C_19  and  C_24 
REMARK   16  A    between atoms: C_20  and  C_21 
REMARK   17  A    between atoms: C_20  and  C_23 
REMARK   18  A    between atoms: C_21  and  C_25 
REMARK   19  A    between atoms: C_22  and  C_26 
REMARK   20  A    between atoms: C_23  and  C_27 
REMARK   21  A    between atoms: C_24  and  C_28 
REMARK   22  A    between atoms: C_25  and  C_29 
REMARK   23  A    between atoms: C_26  and  C_30 
REMARK   24  A    between atoms: C_27  and  C_31 
ROOT
HETATM    1 Ca   UNK N   1      38.596  29.706  19.362  0.00  0.00     0.000 Ca
ENDROOT
TORSDOF 24
ENDMDL
MODEL 2
REMARK VINA RESULT:      -1.2     10.767     10.767
REMARK  24 active torsions:
REMARK  status: ('A' for Active; 'I' for Inactive)
REMARK    1  A    between atoms: Ca_1  and  Ca_1 
REMARK    2  A    between atoms: C_19  and  O_3 
REMARK    3  A    between atoms: C_20  and  O_4 
REMARK    4  A    between atoms: C_21  and  O_5 
REMARK    5  A    between atoms: C_22  and  O_6 
REMARK    6  A    between atoms: C_23  and  O_7 
REMARK    7  A    between atoms: C_24  and  O_8 
REMARK    8  A    between atoms: C_25  and  O_9 
REMARK    9  A    between atoms: O_10  and  C_26 
REMARK   10  A    between atoms: O_11  and  C_27 
REMARK   11  A    between atoms: O_12  and  C_28 
REMARK   12  A    between atoms: O_13  and  C_29 
REMARK   13  A    between atoms: C_18  and  C_19 
REMARK   14  A    between atoms: C_18  and  C_22 
REMARK   15  A    between atoms: C_19  and  C_24 
REMARK   16  A    between atoms: C_20  and  C_21 
REMARK   17  A    between atoms: C_20  and  C_23 
REMARK   18  A    between atoms: C_21  and  C_25 
REMARK   19  A    between atoms: C_22  and  C_26 
REMARK   20  A    between atoms: C_23  and  C_27 
REMARK   21  A    between atoms: C_24  and  C_28 
REMARK   22  A    between atoms: C_25  and  C_29 
REMARK   23  A    between atoms: C_26  and  C_30 
REMARK   24  A    between atoms: C_27  and  C_31 
ROOT
HETATM    1 Ca   UNK N   1      39.964  21.073  13.075  0.00  0.00     0.000 Ca
ENDROOT
TORSDOF 24
ENDMDL
MODEL 3
REMARK VINA RESULT:      -1.2     11.042     11.042
REMARK  24 active torsions:
REMARK  status: ('A' for Active; 'I' for Inactive)
REMARK    1  A    between atoms: Ca_1  and  Ca_1 
REMARK    2  A    between atoms: C_19  and  O_3 
REMARK    3  A    between atoms: C_20  and  O_4 
REMARK    4  A    between atoms: C_21  and  O_5 
REMARK    5  A    between atoms: C_22  and  O_6 
REMARK    6  A    between atoms: C_23  and  O_7 
REMARK    7  A    between atoms: C_24  and  O_8 
REMARK    8  A    between atoms: C_25  and  O_9 
REMARK    9  A    between atoms: O_10  and  C_26 
REMARK   10  A    between atoms: O_11  and  C_27 
REMARK   11  A    between atoms: O_12  and  C_28 
REMARK   12  A    between atoms: O_13  and  C_29 
REMARK   13  A    between atoms: C_18  and  C_19 
REMARK   14  A    between atoms: C_18  and  C_22 
REMARK   15  A    between atoms: C_19  and  C_24 
REMARK   16  A    between atoms: C_20  and  C_21 
REMARK   17  A    between atoms: C_20  and  C_23 
REMARK   18  A    between atoms: C_21  and  C_25 
REMARK   19  A    between atoms: C_22  and  C_26 
REMARK   20  A    between atoms: C_23  and  C_27 
REMARK   21  A    between atoms: C_24  and  C_28 
REMARK   22  A    between atoms: C_25  and  C_29 
REMARK   23  A    between atoms: C_26  and  C_30 
REMARK   24  A    between atoms: C_27  and  C_31 
ROOT
HETATM    1 Ca   UNK N   1      35.636  21.382  12.738  0.00  0.00     0.000 Ca
ENDROOT
TORSDOF 24
ENDMDL
MODEL 4
REMARK VINA RESULT:      -1.2     31.889     31.889
REMARK  24 active torsions:
REMARK  status: ('A' for Active; 'I' for Inactive)
REMARK    1  A    between atoms: Ca_1  and  Ca_1 
REMARK    2  A    between atoms: C_19  and  O_3 
REMARK    3  A    between atoms: C_20  and  O_4 
REMARK    4  A    between atoms: C_21  and  O_5 
REMARK    5  A    between atoms: C_22  and  O_6 
REMARK    6  A    between atoms: C_23  and  O_7 
REMARK    7  A    between atoms: C_24  and  O_8 
REMARK    8  A    between atoms: C_25  and  O_9 
REMARK    9  A    between atoms: O_10  and  C_26 
REMARK   10  A    between atoms: O_11  and  C_27 
REMARK   11  A    between atoms: O_12  and  C_28 
REMARK   12  A    between atoms: O_13  and  C_29 
REMARK   13  A    between atoms: C_18  and  C_19 
REMARK   14  A    between atoms: C_18  and  C_22 
REMARK   15  A    between atoms: C_19  and  C_24 
REMARK   16  A    between atoms: C_20  and  C_21 
REMARK   17  A    between atoms: C_20  and  C_23 
REMARK   18  A    between atoms: C_21  and  C_25 
REMARK   19  A    between atoms: C_22  and  C_26 
REMARK   20  A    between atoms: C_23  and  C_27 
REMARK   21  A    between atoms: C_24  and  C_28 
REMARK   22  A    between atoms: C_25  and  C_29 
REMARK   23  A    between atoms: C_26  and  C_30 
REMARK   24  A    between atoms: C_27  and  C_31 
ROOT
HETATM    1 Ca   UNK N   1      21.453  21.778  -6.332  0.00  0.00     0.000 Ca
ENDROOT
TORSDOF 24
ENDMDL
MODEL 5
REMARK VINA RESULT:      -1.1     15.613     15.613
REMARK  24 active torsions:
REMARK  status: ('A' for Active; 'I' for Inactive)
REMARK    1  A    between atoms: Ca_1  and  Ca_1 
REMARK    2  A    between atoms: C_19  and  O_3 
REMARK    3  A    between atoms: C_20  and  O_4 
REMARK    4  A    between atoms: C_21  and  O_5 
REMARK    5  A    between atoms: C_22  and  O_6 
REMARK    6  A    between atoms: C_23  and  O_7 
REMARK    7  A    between atoms: C_24  and  O_8 
REMARK    8  A    between atoms: C_25  and  O_9 
REMARK    9  A    between atoms: O_10  and  C_26 
REMARK   10  A    between atoms: O_11  and  C_27 
REMARK   11  A    between atoms: O_12  and  C_28 
REMARK   12  A    between atoms: O_13  and  C_29 
REMARK   13  A    between atoms: C_18  and  C_19 
REMARK   14  A    between atoms: C_18  and  C_22 
REMARK   15  A    between atoms: C_19  and  C_24 
REMARK   16  A    between atoms: C_20  and  C_21 
REMARK   17  A    between atoms: C_20  and  C_23 
REMARK   18  A    between atoms: C_21  and  C_25 
REMARK   19  A    between atoms: C_22  and  C_26 
REMARK   20  A    between atoms: C_23  and  C_27 
REMARK   21  A    between atoms: C_24  and  C_28 
REMARK   22  A    between atoms: C_25  and  C_29 
REMARK   23  A    between atoms: C_26  and  C_30 
REMARK   24  A    between atoms: C_27  and  C_31 
ROOT
HETATM    1 Ca   UNK N   1      43.320  25.304   5.147  0.00  0.00     0.000 Ca
ENDROOT
TORSDOF 24
ENDMDL
MODEL 6
REMARK VINA RESULT:      -1.0      9.040      9.040
REMARK  24 active torsions:
REMARK  status: ('A' for Active; 'I' for Inactive)
REMARK    1  A    between atoms: Ca_1  and  Ca_1 
REMARK    2  A    between atoms: C_19  and  O_3 
REMARK    3  A    between atoms: C_20  and  O_4 
REMARK    4  A    between atoms: C_21  and  O_5 
REMARK    5  A    between atoms: C_22  and  O_6 
REMARK    6  A    between atoms: C_23  and  O_7 
REMARK    7  A    between atoms: C_24  and  O_8 
REMARK    8  A    between atoms: C_25  and  O_9 
REMARK    9  A    between atoms: O_10  and  C_26 
REMARK   10  A    between atoms: O_11  and  C_27 
REMARK   11  A    between atoms: O_12  and  C_28 
REMARK   12  A    between atoms: O_13  and  C_29 
REMARK   13  A    between atoms: C_18  and  C_19 
REMARK   14  A    between atoms: C_18  and  C_22 
REMARK   15  A    between atoms: C_19  and  C_24 
REMARK   16  A    between atoms: C_20  and  C_21 
REMARK   17  A    between atoms: C_20  and  C_23 
REMARK   18  A    between atoms: C_21  and  C_25 
REMARK   19  A    between atoms: C_22  and  C_26 
REMARK   20  A    between atoms: C_23  and  C_27 
REMARK   21  A    between atoms: C_24  and  C_28 
REMARK   22  A    between atoms: C_25  and  C_29 
REMARK   23  A    between atoms: C_26  and  C_30 
REMARK   24  A    between atoms: C_27  and  C_31 
ROOT
HETATM    1 Ca   UNK N   1      41.691  21.639  22.017  0.00  0.00     0.000 Ca
ENDROOT
TORSDOF 24
ENDMDL
MODEL 7
REMARK VINA RESULT:      -1.0     25.523     25.523
REMARK  24 active torsions:
REMARK  status: ('A' for Active; 'I' for Inactive)
REMARK    1  A    between atoms: Ca_1  and  Ca_1 
REMARK    2  A    between atoms: C_19  and  O_3 
REMARK    3  A    between atoms: C_20  and  O_4 
REMARK    4  A    between atoms: C_21  and  O_5 
REMARK    5  A    between atoms: C_22  and  O_6 
REMARK    6  A    between atoms: C_23  and  O_7 
REMARK    7  A    between atoms: C_24  and  O_8 
REMARK    8  A    between atoms: C_25  and  O_9 
REMARK    9  A    between atoms: O_10  and  C_26 
REMARK   10  A    between atoms: O_11  and  C_27 
REMARK   11  A    between atoms: O_12  and  C_28 
REMARK   12  A    between atoms: O_13  and  C_29 
REMARK   13  A    between atoms: C_18  and  C_19 
REMARK   14  A    between atoms: C_18  and  C_22 
REMARK   15  A    between atoms: C_19  and  C_24 
REMARK   16  A    between atoms: C_20  and  C_21 
REMARK   17  A    between atoms: C_20  and  C_23 
REMARK   18  A    between atoms: C_21  and  C_25 
REMARK   19  A    between atoms: C_22  and  C_26 
REMARK   20  A    between atoms: C_23  and  C_27 
REMARK   21  A    between atoms: C_24  and  C_28 
REMARK   22  A    between atoms: C_25  and  C_29 
REMARK   23  A    between atoms: C_26  and  C_30 
REMARK   24  A    between atoms: C_27  and  C_31 
ROOT
HETATM    1 Ca   UNK N   1      17.313  25.062   6.062  0.00  0.00     0.000 Ca
ENDROOT
TORSDOF 24
ENDMDL
MODEL 8
REMARK VINA RESULT:      -1.0     10.229     10.229
REMARK  24 active torsions:
REMARK  status: ('A' for Active; 'I' for Inactive)
REMARK    1  A    between atoms: Ca_1  and  Ca_1 
REMARK    2  A    between atoms: C_19  and  O_3 
REMARK    3  A    between atoms: C_20  and  O_4 
REMARK    4  A    between atoms: C_21  and  O_5 
REMARK    5  A    between atoms: C_22  and  O_6 
REMARK    6  A    between atoms: C_23  and  O_7 
REMARK    7  A    between atoms: C_24  and  O_8 
REMARK    8  A    between atoms: C_25  and  O_9 
REMARK    9  A    between atoms: O_10  and  C_26 
REMARK   10  A    between atoms: O_11  and  C_27 
REMARK   11  A    between atoms: O_12  and  C_28 
REMARK   12  A    between atoms: O_13  and  C_29 
REMARK   13  A    between atoms: C_18  and  C_19 
REMARK   14  A    between atoms: C_18  and  C_22 
REMARK   15  A    between atoms: C_19  and  C_24 
REMARK   16  A    between atoms: C_20  and  C_21 
REMARK   17  A    between atoms: C_20  and  C_23 
REMARK   18  A    between atoms: C_21  and  C_25 
REMARK   19  A    between atoms: C_22  and  C_26 
REMARK   20  A    between atoms: C_23  and  C_27 
REMARK   21  A    between atoms: C_24  and  C_28 
REMARK   22  A    between atoms: C_25  and  C_29 
REMARK   23  A    between atoms: C_26  and  C_30 
REMARK   24  A    between atoms: C_27  and  C_31 
ROOT
HETATM    1 Ca   UNK N   1      46.722  23.986  16.936  0.00  0.00     0.000 Ca
ENDROOT
TORSDOF 24
ENDMDL
MODEL 9
REMARK VINA RESULT:      -0.9     24.674     24.674
REMARK  24 active torsions:
REMARK  status: ('A' for Active; 'I' for Inactive)
REMARK    1  A    between atoms: Ca_1  and  Ca_1 
REMARK    2  A    between atoms: C_19  and  O_3 
REMARK    3  A    between atoms: C_20  and  O_4 
REMARK    4  A    between atoms: C_21  and  O_5 
REMARK    5  A    between atoms: C_22  and  O_6 
REMARK    6  A    between atoms: C_23  and  O_7 
REMARK    7  A    between atoms: C_24  and  O_8 
REMARK    8  A    between atoms: C_25  and  O_9 
REMARK    9  A    between atoms: O_10  and  C_26 
REMARK   10  A    between atoms: O_11  and  C_27 
REMARK   11  A    between atoms: O_12  and  C_28 
REMARK   12  A    between atoms: O_13  and  C_29 
REMARK   13  A    between atoms: C_18  and  C_19 
REMARK   14  A    between atoms: C_18  and  C_22 
REMARK   15  A    between atoms: C_19  and  C_24 
REMARK   16  A    between atoms: C_20  and  C_21 
REMARK   17  A    between atoms: C_20  and  C_23 
REMARK   18  A    between atoms: C_21  and  C_25 
REMARK   19  A    between atoms: C_22  and  C_26 
REMARK   20  A    between atoms: C_23  and  C_27 
REMARK   21  A    between atoms: C_24  and  C_28 
REMARK   22  A    between atoms: C_25  and  C_29 
REMARK   23  A    between atoms: C_26  and  C_30 
REMARK   24  A    between atoms: C_27  and  C_31 
ROOT
HETATM    1 Ca   UNK N   1      17.492  20.393  10.603  0.00  0.00     0.000 Ca
ENDROOT
TORSDOF 24
ENDMDL
