MODEL 1
REMARK VINA RESULT:      -5.8      0.000      0.000
REMARK  18 active torsions:
REMARK  status: ('A' for Active; 'I' for Inactive)
REMARK    1  A    between atoms: P_1  and  O_3 
REMARK    2  A    between atoms: P_1  and  O_5 
REMARK    3  A    between atoms: P_1  and  O_6 
REMARK    4  A    between atoms: C_13  and  O_2 
REMARK    5  A    between atoms: O_2  and  C_17 
REMARK    6  A    between atoms: O_3  and  C_14 
REMARK    7  A    between atoms: O_4  and  C_15 
REMARK    8  A    between atoms: O_4  and  C_22 
REMARK    9  A    between atoms: O_5  and  C_19 
REMARK   10  A    between atoms: O_10  and  C_24 
REMARK   11  A    between atoms: C_20  and  N_12 
REMARK   12  A    between atoms: C_13  and  C_14 
REMARK   13  A    between atoms: C_13  and  C_15 
REMARK   14  A    between atoms: C_16  and  C_17 
REMARK   15  A    between atoms: C_16  and  C_18 
REMARK   16  A    between atoms: C_19  and  C_20 
REMARK   17  A    between atoms: C_20  and  C_24 
REMARK   18  A    between atoms: C_22  and  C_23 
ROOT
HETATM    1  O   UNK N   1      36.148  14.710  11.019  0.00  0.00    -0.294 OA
ENDROOT
BRANCH   1   2
HETATM    2  P   UNK N   1      34.815  15.599  10.324  0.00  0.00     0.393 P 
HETATM    3  O   UNK N   1      35.012  17.116  10.605  0.00  0.00    -0.631 OA
BRANCH   2   4
HETATM    4  O   UNK N   1      34.806  15.447   8.588  0.00  0.00    -0.294 OA
BRANCH   4   5
HETATM    5  C   UNK N   1      33.473  15.426   8.156  0.00  0.00     0.216 C 
BRANCH   5   6
HETATM    6  C   UNK N   1      32.948  16.820   7.768  0.00  0.00     0.198 C 
BRANCH   6   7
HETATM    7  N   UNK N   1      32.300  17.451   8.904  0.00  0.00    -0.416 N 
HETATM    8  H   UNK N   1      31.805  17.273   9.778  0.00  0.00     0.150 HD
HETATM    9  H   UNK N   1      32.364  18.462   8.780  0.00  0.00     0.150 HD
ENDBRANCH   6   7
BRANCH   6  10
HETATM   10  C   UNK N   1      33.959  17.765   7.168  0.00  0.00     0.165 C 
HETATM   11  O   UNK N   1      34.116  17.844   5.960  0.00  0.00    -0.648 OA
BRANCH  10  12
HETATM   12  O   UNK N   1      34.710  18.530   7.982  0.00  0.00    -0.775 OA
HETATM   13  H   UNK N   1      34.744  19.467   8.011  0.00  0.00     0.167 HD
ENDBRANCH  10  12
ENDBRANCH   6  10
ENDBRANCH   5   6
ENDBRANCH   4   5
ENDBRANCH   2   4
BRANCH   2  14
HETATM   14  O   UNK N   1      33.314  15.141  11.069  0.00  0.00    -0.307 OA
HETATM   15  H   UNK N   1      32.511  15.668  10.930  0.00  0.00     0.222 HD
ENDBRANCH   2  14
ENDBRANCH   1   2
BRANCH   1  16
HETATM   16  C   UNK N   1      36.089  14.933  12.397  0.00  0.00     0.215 C 
BRANCH  16  17
HETATM   17  C   UNK N   1      36.097  13.620  13.162  0.00  0.00     0.180 C 
BRANCH  17  18
HETATM   18  O   UNK N   1      35.612  13.812  14.436  0.00  0.00    -0.312 OA
BRANCH  18  19
HETATM   19  C   UNK N   1      36.402  13.690  15.531  0.00  0.00     0.259 C 
HETATM   20  O   UNK N   1      37.410  14.370  15.654  0.00  0.00    -0.265 OA
BRANCH  19  21
HETATM   21  C   UNK N   1      36.019  12.720  16.604  0.00  0.00     0.111 C 
BRANCH  21  22
HETATM   22  C   UNK N   1      34.858  13.239  17.436  0.00  0.00     0.005 C 
HETATM   23  C   UNK N   1      35.171  13.097  18.914  0.00  0.00     0.005 C 
ENDBRANCH  21  22
ENDBRANCH  19  21
ENDBRANCH  18  19
ENDBRANCH  17  18
BRANCH  17  24
HETATM   24  C   UNK N   1      35.296  12.537  12.455  0.00  0.00     0.213 C 
BRANCH  24  25
HETATM   25  O   UNK N   1      35.893  11.326  12.719  0.00  0.00    -0.319 OA
BRANCH  25  26
HETATM   26  C   UNK N   1      35.193  10.209  13.021  0.00  0.00     0.258 C 
HETATM   27  O   UNK N   1      34.939   9.374  12.164  0.00  0.00    -0.265 OA
BRANCH  26  28
HETATM   28  C   UNK N   1      34.761   9.991  14.433  0.00  0.00     0.106 C 
HETATM   29  C   UNK N   1      33.517  10.795  14.748  0.00  0.00     0.015 C 
ENDBRANCH  26  28
ENDBRANCH  25  26
ENDBRANCH  24  25
ENDBRANCH  17  24
ENDBRANCH  16  17
ENDBRANCH   1  16
TORSDOF 18
ENDMDL
MODEL 2
REMARK VINA RESULT:      -5.4      3.915      9.545
REMARK  18 active torsions:
REMARK  status: ('A' for Active; 'I' for Inactive)
REMARK    1  A    between atoms: P_1  and  O_3 
REMARK    2  A    between atoms: P_1  and  O_5 
REMARK    3  A    between atoms: P_1  and  O_6 
REMARK    4  A    between atoms: C_13  and  O_2 
REMARK    5  A    between atoms: O_2  and  C_17 
REMARK    6  A    between atoms: O_3  and  C_14 
REMARK    7  A    between atoms: O_4  and  C_15 
REMARK    8  A    between atoms: O_4  and  C_22 
REMARK    9  A    between atoms: O_5  and  C_19 
REMARK   10  A    between atoms: O_10  and  C_24 
REMARK   11  A    between atoms: C_20  and  N_12 
REMARK   12  A    between atoms: C_13  and  C_14 
REMARK   13  A    between atoms: C_13  and  C_15 
REMARK   14  A    between atoms: C_16  and  C_17 
REMARK   15  A    between atoms: C_16  and  C_18 
REMARK   16  A    between atoms: C_19  and  C_20 
REMARK   17  A    between atoms: C_20  and  C_24 
REMARK   18  A    between atoms: C_22  and  C_23 
ROOT
HETATM    1  O   UNK N   1      32.366  18.342   8.300  0.00  0.00    -0.294 OA
ENDROOT
BRANCH   1   2
HETATM    2  P   UNK N   1      34.005  17.939   7.853  0.00  0.00     0.393 P 
HETATM    3  O   UNK N   1      34.971  19.006   8.441  0.00  0.00    -0.631 OA
BRANCH   2   4
HETATM    4  O   UNK N   1      34.490  16.428   8.574  0.00  0.00    -0.294 OA
BRANCH   4   5
HETATM    5  C   UNK N   1      35.130  16.707   9.789  0.00  0.00     0.216 C 
BRANCH   5   6
HETATM    6  C   UNK N   1      35.521  15.435  10.564  0.00  0.00     0.198 C 
BRANCH   6   7
HETATM    7  N   UNK N   1      36.636  15.708  11.454  0.00  0.00    -0.416 N 
HETATM    8  H   UNK N   1      37.197  15.330  12.218  0.00  0.00     0.150 HD
HETATM    9  H   UNK N   1      37.000  16.633  11.226  0.00  0.00     0.150 HD
ENDBRANCH   6   7
BRANCH   6  10
HETATM   10  C   UNK N   1      34.412  14.758  11.330  0.00  0.00     0.165 C 
HETATM   11  O   UNK N   1      34.651  13.956  12.218  0.00  0.00    -0.648 OA
BRANCH  10  12
HETATM   12  O   UNK N   1      33.132  15.038  11.020  0.00  0.00    -0.775 OA
HETATM   13  H   UNK N   1      32.367  14.816  11.514  0.00  0.00     0.167 HD
ENDBRANCH  10  12
ENDBRANCH   6  10
ENDBRANCH   5   6
ENDBRANCH   4   5
ENDBRANCH   2   4
BRANCH   2  14
HETATM   14  O   UNK N   1      34.202  17.980   6.127  0.00  0.00    -0.307 OA
HETATM   15  H   UNK N   1      34.491  18.791   5.681  0.00  0.00     0.222 HD
ENDBRANCH   2  14
ENDBRANCH   1   2
BRANCH   1  16
HETATM   16  C   UNK N   1      31.659  17.137   8.317  0.00  0.00     0.215 C 
BRANCH  16  17
HETATM   17  C   UNK N   1      30.642  17.086   7.189  0.00  0.00     0.180 C 
BRANCH  17  18
HETATM   18  O   UNK N   1      30.549  15.805   6.693  0.00  0.00    -0.312 OA
BRANCH  18  19
HETATM   19  C   UNK N   1      31.646  15.041   6.466  0.00  0.00     0.259 C 
HETATM   20  O   UNK N   1      31.975  14.168   7.256  0.00  0.00    -0.265 OA
BRANCH  19  21
HETATM   21  C   UNK N   1      32.448  15.267   5.224  0.00  0.00     0.111 C 
BRANCH  21  22
HETATM   22  C   UNK N   1      31.561  15.627   4.044  0.00  0.00     0.005 C 
HETATM   23  C   UNK N   1      31.925  17.003   3.518  0.00  0.00     0.005 C 
ENDBRANCH  21  22
ENDBRANCH  19  21
ENDBRANCH  18  19
ENDBRANCH  17  18
BRANCH  17  24
HETATM   24  C   UNK N   1      29.271  17.578   7.627  0.00  0.00     0.213 C 
BRANCH  24  25
HETATM   25  O   UNK N   1      28.932  18.654   6.839  0.00  0.00    -0.319 OA
BRANCH  25  26
HETATM   26  C   UNK N   1      28.190  18.539   5.715  0.00  0.00     0.258 C 
HETATM   27  O   UNK N   1      27.729  17.459   5.372  0.00  0.00    -0.265 OA
BRANCH  26  28
HETATM   28  C   UNK N   1      27.907  19.765   4.911  0.00  0.00     0.106 C 
HETATM   29  C   UNK N   1      27.512  20.920   5.808  0.00  0.00     0.015 C 
ENDBRANCH  26  28
ENDBRANCH  25  26
ENDBRANCH  24  25
ENDBRANCH  17  24
ENDBRANCH  16  17
ENDBRANCH   1  16
TORSDOF 18
ENDMDL
MODEL 3
REMARK VINA RESULT:      -5.3      5.002      9.830
REMARK  18 active torsions:
REMARK  status: ('A' for Active; 'I' for Inactive)
REMARK    1  A    between atoms: P_1  and  O_3 
REMARK    2  A    between atoms: P_1  and  O_5 
REMARK    3  A    between atoms: P_1  and  O_6 
REMARK    4  A    between atoms: C_13  and  O_2 
REMARK    5  A    between atoms: O_2  and  C_17 
REMARK    6  A    between atoms: O_3  and  C_14 
REMARK    7  A    between atoms: O_4  and  C_15 
REMARK    8  A    between atoms: O_4  and  C_22 
REMARK    9  A    between atoms: O_5  and  C_19 
REMARK   10  A    between atoms: O_10  and  C_24 
REMARK   11  A    between atoms: C_20  and  N_12 
REMARK   12  A    between atoms: C_13  and  C_14 
REMARK   13  A    between atoms: C_13  and  C_15 
REMARK   14  A    between atoms: C_16  and  C_17 
REMARK   15  A    between atoms: C_16  and  C_18 
REMARK   16  A    between atoms: C_19  and  C_20 
REMARK   17  A    between atoms: C_20  and  C_24 
REMARK   18  A    between atoms: C_22  and  C_23 
ROOT
HETATM    1  O   UNK N   1      32.619  18.642   8.352  0.00  0.00    -0.294 OA
ENDROOT
BRANCH   1   2
HETATM    2  P   UNK N   1      34.240  18.028   8.143  0.00  0.00     0.393 P 
HETATM    3  O   UNK N   1      35.259  19.160   8.459  0.00  0.00    -0.631 OA
BRANCH   2   4
HETATM    4  O   UNK N   1      34.579  16.766   9.297  0.00  0.00    -0.294 OA
BRANCH   4   5
HETATM    5  C   UNK N   1      34.568  15.538   8.620  0.00  0.00     0.216 C 
BRANCH   5   6
HETATM    6  C   UNK N   1      33.870  14.422   9.418  0.00  0.00     0.198 C 
BRANCH   6   7
HETATM    7  N   UNK N   1      33.202  14.975  10.583  0.00  0.00    -0.416 N 
HETATM    8  H   UNK N   1      32.654  15.764  10.925  0.00  0.00     0.150 HD
HETATM    9  H   UNK N   1      33.330  14.322  11.356  0.00  0.00     0.150 HD
ENDBRANCH   6   7
BRANCH   6  10
HETATM   10  C   UNK N   1      32.910  13.555   8.643  0.00  0.00     0.165 C 
HETATM   11  O   UNK N   1      32.787  12.365   8.890  0.00  0.00    -0.648 OA
BRANCH  10  12
HETATM   12  O   UNK N   1      32.181  14.102   7.653  0.00  0.00    -0.775 OA
HETATM   13  H   UNK N   1      32.447  14.774   7.055  0.00  0.00     0.167 HD
ENDBRANCH  10  12
ENDBRANCH   6  10
ENDBRANCH   5   6
ENDBRANCH   4   5
ENDBRANCH   2   4
BRANCH   2  14
HETATM   14  O   UNK N   1      34.512  17.553   6.494  0.00  0.00    -0.307 OA
HETATM   15  H   UNK N   1      35.337  17.114   6.234  0.00  0.00     0.222 HD
ENDBRANCH   2  14
ENDBRANCH   1   2
BRANCH   1  16
HETATM   16  C   UNK N   1      31.779  17.526   8.374  0.00  0.00     0.215 C 
BRANCH  16  17
HETATM   17  C   UNK N   1      30.956  17.437   7.100  0.00  0.00     0.180 C 
BRANCH  17  18
HETATM   18  O   UNK N   1      31.484  16.481   6.261  0.00  0.00    -0.312 OA
BRANCH  18  19
HETATM   19  C   UNK N   1      31.617  16.690   4.928  0.00  0.00     0.259 C 
HETATM   20  O   UNK N   1      32.240  17.654   4.505  0.00  0.00    -0.265 OA
BRANCH  19  21
HETATM   21  C   UNK N   1      31.005  15.716   3.971  0.00  0.00     0.111 C 
BRANCH  21  22
HETATM   22  C   UNK N   1      30.177  16.421   2.910  0.00  0.00     0.005 C 
HETATM   23  C   UNK N   1      28.741  15.937   2.961  0.00  0.00     0.005 C 
ENDBRANCH  21  22
ENDBRANCH  19  21
ENDBRANCH  18  19
ENDBRANCH  17  18
BRANCH  17  24
HETATM   24  C   UNK N   1      29.492  17.137   7.379  0.00  0.00     0.213 C 
BRANCH  24  25
HETATM   25  O   UNK N   1      28.880  18.310   7.756  0.00  0.00    -0.319 OA
BRANCH  25  26
HETATM   26  C   UNK N   1      27.986  18.958   6.976  0.00  0.00     0.258 C 
HETATM   27  O   UNK N   1      27.464  20.000   7.349  0.00  0.00    -0.265 OA
BRANCH  26  28
HETATM   28  C   UNK N   1      27.669  18.400   5.628  0.00  0.00     0.106 C 
HETATM   29  C   UNK N   1      28.116  19.347   4.534  0.00  0.00     0.015 C 
ENDBRANCH  26  28
ENDBRANCH  25  26
ENDBRANCH  24  25
ENDBRANCH  17  24
ENDBRANCH  16  17
ENDBRANCH   1  16
TORSDOF 18
ENDMDL
MODEL 4
REMARK VINA RESULT:      -5.2     13.212     15.521
REMARK  18 active torsions:
REMARK  status: ('A' for Active; 'I' for Inactive)
REMARK    1  A    between atoms: P_1  and  O_3 
REMARK    2  A    between atoms: P_1  and  O_5 
REMARK    3  A    between atoms: P_1  and  O_6 
REMARK    4  A    between atoms: C_13  and  O_2 
REMARK    5  A    between atoms: O_2  and  C_17 
REMARK    6  A    between atoms: O_3  and  C_14 
REMARK    7  A    between atoms: O_4  and  C_15 
REMARK    8  A    between atoms: O_4  and  C_22 
REMARK    9  A    between atoms: O_5  and  C_19 
REMARK   10  A    between atoms: O_10  and  C_24 
REMARK   11  A    between atoms: C_20  and  N_12 
REMARK   12  A    between atoms: C_13  and  C_14 
REMARK   13  A    between atoms: C_13  and  C_15 
REMARK   14  A    between atoms: C_16  and  C_17 
REMARK   15  A    between atoms: C_16  and  C_18 
REMARK   16  A    between atoms: C_19  and  C_20 
REMARK   17  A    between atoms: C_20  and  C_24 
REMARK   18  A    between atoms: C_22  and  C_23 
ROOT
HETATM    1  O   UNK N   1      22.949  16.023   5.942  0.00  0.00    -0.294 OA
ENDROOT
BRANCH   1   2
HETATM    2  P   UNK N   1      22.696  17.674   5.435  0.00  0.00     0.393 P 
HETATM    3  O   UNK N   1      24.075  18.377   5.281  0.00  0.00    -0.631 OA
BRANCH   2   4
HETATM    4  O   UNK N   1      21.967  17.733   3.853  0.00  0.00    -0.294 OA
BRANCH   4   5
HETATM    5  C   UNK N   1      21.123  18.850   3.800  0.00  0.00     0.216 C 
BRANCH   5   6
HETATM    6  C   UNK N   1      20.653  19.177   2.371  0.00  0.00     0.198 C 
BRANCH   6   7
HETATM    7  N   UNK N   1      19.203  19.156   2.297  0.00  0.00    -0.416 N 
HETATM    8  H   UNK N   1      18.385  19.651   1.941  0.00  0.00     0.150 HD
HETATM    9  H   UNK N   1      18.876  18.325   2.792  0.00  0.00     0.150 HD
ENDBRANCH   6   7
BRANCH   6  10
HETATM   10  C   UNK N   1      21.175  20.463   1.780  0.00  0.00     0.165 C 
HETATM   11  O   UNK N   1      21.330  20.592   0.575  0.00  0.00    -0.648 OA
BRANCH  10  12
HETATM   12  O   UNK N   1      21.484  21.486   2.598  0.00  0.00    -0.775 OA
HETATM   13  H   UNK N   1      21.735  22.355   2.351  0.00  0.00     0.167 HD
ENDBRANCH  10  12
ENDBRANCH   6  10
ENDBRANCH   5   6
ENDBRANCH   4   5
ENDBRANCH   2   4
BRANCH   2  14
HETATM   14  O   UNK N   1      21.812  18.560   6.640  0.00  0.00    -0.307 OA
HETATM   15  H   UNK N   1      21.948  19.514   6.753  0.00  0.00     0.222 HD
ENDBRANCH   2  14
ENDBRANCH   1   2
BRANCH   1  16
HETATM   16  C   UNK N   1      21.942  15.269   5.333  0.00  0.00     0.215 C 
BRANCH  16  17
HETATM   17  C   UNK N   1      20.942  14.765   6.360  0.00  0.00     0.180 C 
BRANCH  17  18
HETATM   18  O   UNK N   1      21.565  14.568   7.571  0.00  0.00    -0.312 OA
BRANCH  18  19
HETATM   19  C   UNK N   1      21.759  13.329   8.087  0.00  0.00     0.259 C 
HETATM   20  O   UNK N   1      20.851  12.510   8.104  0.00  0.00    -0.265 OA
BRANCH  19  21
HETATM   21  C   UNK N   1      23.107  12.964   8.622  0.00  0.00     0.111 C 
BRANCH  21  22
HETATM   22  C   UNK N   1      23.116  12.938  10.141  0.00  0.00     0.005 C 
HETATM   23  C   UNK N   1      22.966  11.513  10.640  0.00  0.00     0.005 C 
ENDBRANCH  21  22
ENDBRANCH  19  21
ENDBRANCH  18  19
ENDBRANCH  17  18
BRANCH  17  24
HETATM   24  C   UNK N   1      19.761  15.709   6.526  0.00  0.00     0.213 C 
BRANCH  24  25
HETATM   25  O   UNK N   1      19.444  15.763   7.864  0.00  0.00    -0.319 OA
BRANCH  25  26
HETATM   26  C   UNK N   1      19.159  16.918   8.507  0.00  0.00     0.258 C 
HETATM   27  O   UNK N   1      20.034  17.740   8.741  0.00  0.00    -0.265 OA
BRANCH  26  28
HETATM   28  C   UNK N   1      17.744  17.194   8.897  0.00  0.00     0.106 C 
HETATM   29  C   UNK N   1      17.685  17.991  10.183  0.00  0.00     0.015 C 
ENDBRANCH  26  28
ENDBRANCH  25  26
ENDBRANCH  24  25
ENDBRANCH  17  24
ENDBRANCH  16  17
ENDBRANCH   1  16
TORSDOF 18
ENDMDL
MODEL 5
REMARK VINA RESULT:      -5.2     17.684     22.854
REMARK  18 active torsions:
REMARK  status: ('A' for Active; 'I' for Inactive)
REMARK    1  A    between atoms: P_1  and  O_3 
REMARK    2  A    between atoms: P_1  and  O_5 
REMARK    3  A    between atoms: P_1  and  O_6 
REMARK    4  A    between atoms: C_13  and  O_2 
REMARK    5  A    between atoms: O_2  and  C_17 
REMARK    6  A    between atoms: O_3  and  C_14 
REMARK    7  A    between atoms: O_4  and  C_15 
REMARK    8  A    between atoms: O_4  and  C_22 
REMARK    9  A    between atoms: O_5  and  C_19 
REMARK   10  A    between atoms: O_10  and  C_24 
REMARK   11  A    between atoms: C_20  and  N_12 
REMARK   12  A    between atoms: C_13  and  C_14 
REMARK   13  A    between atoms: C_13  and  C_15 
REMARK   14  A    between atoms: C_16  and  C_17 
REMARK   15  A    between atoms: C_16  and  C_18 
REMARK   16  A    between atoms: C_19  and  C_20 
REMARK   17  A    between atoms: C_20  and  C_24 
REMARK   18  A    between atoms: C_22  and  C_23 
ROOT
HETATM    1  O   UNK N   1      26.830  23.523  -4.970  0.00  0.00    -0.294 OA
ENDROOT
BRANCH   1   2
HETATM    2  P   UNK N   1      27.528  24.471  -3.681  0.00  0.00     0.393 P 
HETATM    3  O   UNK N   1      27.231  23.780  -2.320  0.00  0.00    -0.631 OA
BRANCH   2   4
HETATM    4  O   UNK N   1      29.266  24.510  -3.810  0.00  0.00    -0.294 OA
BRANCH   4   5
HETATM    5  C   UNK N   1      29.673  23.416  -4.586  0.00  0.00     0.216 C 
BRANCH   5   6
HETATM    6  C   UNK N   1      30.003  22.173  -3.740  0.00  0.00     0.198 C 
BRANCH   6   7
HETATM    7  N   UNK N   1      30.689  21.179  -4.546  0.00  0.00    -0.416 N 
HETATM    8  H   UNK N   1      30.882  20.182  -4.643  0.00  0.00     0.150 HD
HETATM    9  H   UNK N   1      31.158  21.665  -5.311  0.00  0.00     0.150 HD
ENDBRANCH   6   7
BRANCH   6  10
HETATM   10  C   UNK N   1      30.778  22.422  -2.470  0.00  0.00     0.165 C 
HETATM   11  O   UNK N   1      31.926  22.028  -2.338  0.00  0.00    -0.648 OA
BRANCH  10  12
HETATM   12  O   UNK N   1      30.188  23.086  -1.458  0.00  0.00    -0.775 OA
HETATM   13  H   UNK N   1      30.603  23.627  -0.815  0.00  0.00     0.167 HD
ENDBRANCH  10  12
ENDBRANCH   6  10
ENDBRANCH   5   6
ENDBRANCH   4   5
ENDBRANCH   2   4
BRANCH   2  14
HETATM   14  O   UNK N   1      26.802  26.049  -3.612  0.00  0.00    -0.307 OA
HETATM   15  H   UNK N   1      26.327  26.341  -2.819  0.00  0.00     0.222 HD
ENDBRANCH   2  14
ENDBRANCH   1   2
BRANCH   1  16
HETATM   16  C   UNK N   1      25.745  24.259  -5.451  0.00  0.00     0.215 C 
BRANCH  16  17
HETATM   17  C   UNK N   1      25.926  24.601  -6.920  0.00  0.00     0.180 C 
BRANCH  17  18
HETATM   18  O   UNK N   1      25.012  23.911  -7.684  0.00  0.00    -0.312 OA
BRANCH  18  19
HETATM   19  C   UNK N   1      25.378  22.881  -8.486  0.00  0.00     0.259 C 
HETATM   20  O   UNK N   1      25.556  23.053  -9.683  0.00  0.00    -0.265 OA
BRANCH  19  21
HETATM   21  C   UNK N   1      25.580  21.525  -7.887  0.00  0.00     0.111 C 
BRANCH  21  22
HETATM   22  C   UNK N   1      26.887  20.902  -8.346  0.00  0.00     0.005 C 
HETATM   23  C   UNK N   1      28.057  21.570  -7.648  0.00  0.00     0.005 C 
ENDBRANCH  21  22
ENDBRANCH  19  21
ENDBRANCH  18  19
ENDBRANCH  17  18
BRANCH  17  24
HETATM   24  C   UNK N   1      25.806  26.094  -7.183  0.00  0.00     0.213 C 
BRANCH  24  25
HETATM   25  O   UNK N   1      26.912  26.712  -6.648  0.00  0.00    -0.319 OA
BRANCH  25  26
HETATM   26  C   UNK N   1      27.630  27.644  -7.314  0.00  0.00     0.258 C 
HETATM   27  O   UNK N   1      28.009  27.446  -8.460  0.00  0.00    -0.265 OA
BRANCH  26  28
HETATM   28  C   UNK N   1      27.923  28.944  -6.641  0.00  0.00     0.106 C 
HETATM   29  C   UNK N   1      27.152  29.066  -5.343  0.00  0.00     0.015 C 
ENDBRANCH  26  28
ENDBRANCH  25  26
ENDBRANCH  24  25
ENDBRANCH  17  24
ENDBRANCH  16  17
ENDBRANCH   1  16
TORSDOF 18
ENDMDL
MODEL 6
REMARK VINA RESULT:      -5.1      2.436      3.614
REMARK  18 active torsions:
REMARK  status: ('A' for Active; 'I' for Inactive)
REMARK    1  A    between atoms: P_1  and  O_3 
REMARK    2  A    between atoms: P_1  and  O_5 
REMARK    3  A    between atoms: P_1  and  O_6 
REMARK    4  A    between atoms: C_13  and  O_2 
REMARK    5  A    between atoms: O_2  and  C_17 
REMARK    6  A    between atoms: O_3  and  C_14 
REMARK    7  A    between atoms: O_4  and  C_15 
REMARK    8  A    between atoms: O_4  and  C_22 
REMARK    9  A    between atoms: O_5  and  C_19 
REMARK   10  A    between atoms: O_10  and  C_24 
REMARK   11  A    between atoms: C_20  and  N_12 
REMARK   12  A    between atoms: C_13  and  C_14 
REMARK   13  A    between atoms: C_13  and  C_15 
REMARK   14  A    between atoms: C_16  and  C_17 
REMARK   15  A    between atoms: C_16  and  C_18 
REMARK   16  A    between atoms: C_19  and  C_20 
REMARK   17  A    between atoms: C_20  and  C_24 
REMARK   18  A    between atoms: C_22  and  C_23 
ROOT
HETATM    1  O   UNK N   1      34.644  14.634  11.796  0.00  0.00    -0.294 OA
ENDROOT
BRANCH   1   2
HETATM    2  P   UNK N   1      35.356  15.397  10.396  0.00  0.00     0.393 P 
HETATM    3  O   UNK N   1      35.607  14.321   9.301  0.00  0.00    -0.631 OA
BRANCH   2   4
HETATM    4  O   UNK N   1      34.248  16.537   9.680  0.00  0.00    -0.294 OA
BRANCH   4   5
HETATM    5  C   UNK N   1      33.616  15.912   8.596  0.00  0.00     0.216 C 
BRANCH   5   6
HETATM    6  C   UNK N   1      32.109  15.694   8.829  0.00  0.00     0.198 C 
BRANCH   6   7
HETATM    7  N   UNK N   1      31.872  15.191  10.170  0.00  0.00    -0.416 N 
HETATM    8  H   UNK N   1      31.366  14.492  10.715  0.00  0.00     0.150 HD
HETATM    9  H   UNK N   1      32.425  15.753  10.818  0.00  0.00     0.150 HD
ENDBRANCH   6   7
BRANCH   6  10
HETATM   10  C   UNK N   1      31.219  16.882   8.564  0.00  0.00     0.165 C 
HETATM   11  O   UNK N   1      30.197  16.775   7.904  0.00  0.00    -0.648 OA
BRANCH  10  12
HETATM   12  O   UNK N   1      31.563  18.085   9.058  0.00  0.00    -0.775 OA
HETATM   13  H   UNK N   1      31.057  18.632   9.627  0.00  0.00     0.167 HD
ENDBRANCH  10  12
ENDBRANCH   6  10
ENDBRANCH   5   6
ENDBRANCH   4   5
ENDBRANCH   2   4
BRANCH   2  14
HETATM   14  O   UNK N   1      36.903  16.084  10.787  0.00  0.00    -0.307 OA
HETATM   15  H   UNK N   1      37.449  15.706  11.495  0.00  0.00     0.222 HD
ENDBRANCH   2  14
ENDBRANCH   1   2
BRANCH   1  16
HETATM   16  C   UNK N   1      35.679  14.475  12.721  0.00  0.00     0.215 C 
BRANCH  16  17
HETATM   17  C   UNK N   1      35.795  13.026  13.166  0.00  0.00     0.180 C 
BRANCH  17  18
HETATM   18  O   UNK N   1      34.548  12.519  13.456  0.00  0.00    -0.312 OA
BRANCH  18  19
HETATM   19  C   UNK N   1      34.214  12.103  14.702  0.00  0.00     0.259 C 
HETATM   20  O   UNK N   1      34.180  12.891  15.636  0.00  0.00    -0.265 OA
BRANCH  19  21
HETATM   21  C   UNK N   1      33.869  10.665  14.924  0.00  0.00     0.111 C 
BRANCH  21  22
HETATM   22  C   UNK N   1      34.789  10.021  15.947  0.00  0.00     0.005 C 
HETATM   23  C   UNK N   1      36.218  10.023  15.439  0.00  0.00     0.005 C 
ENDBRANCH  21  22
ENDBRANCH  19  21
ENDBRANCH  18  19
ENDBRANCH  17  18
BRANCH  17  24
HETATM   24  C   UNK N   1      36.484  12.158  12.124  0.00  0.00     0.213 C 
BRANCH  24  25
HETATM   25  O   UNK N   1      37.724  12.697  11.873  0.00  0.00    -0.319 OA
BRANCH  25  26
HETATM   26  C   UNK N   1      38.288  12.706  10.644  0.00  0.00     0.258 C 
HETATM   27  O   UNK N   1      38.776  13.728  10.182  0.00  0.00    -0.265 OA
BRANCH  26  28
HETATM   28  C   UNK N   1      38.342  11.431   9.867  0.00  0.00     0.106 C 
HETATM   29  C   UNK N   1      39.598  11.365   9.025  0.00  0.00     0.015 C 
ENDBRANCH  26  28
ENDBRANCH  25  26
ENDBRANCH  24  25
ENDBRANCH  17  24
ENDBRANCH  16  17
ENDBRANCH   1  16
TORSDOF 18
ENDMDL
MODEL 7
REMARK VINA RESULT:      -5.1      5.972     10.343
REMARK  18 active torsions:
REMARK  status: ('A' for Active; 'I' for Inactive)
REMARK    1  A    between atoms: P_1  and  O_3 
REMARK    2  A    between atoms: P_1  and  O_5 
REMARK    3  A    between atoms: P_1  and  O_6 
REMARK    4  A    between atoms: C_13  and  O_2 
REMARK    5  A    between atoms: O_2  and  C_17 
REMARK    6  A    between atoms: O_3  and  C_14 
REMARK    7  A    between atoms: O_4  and  C_15 
REMARK    8  A    between atoms: O_4  and  C_22 
REMARK    9  A    between atoms: O_5  and  C_19 
REMARK   10  A    between atoms: O_10  and  C_24 
REMARK   11  A    between atoms: C_20  and  N_12 
REMARK   12  A    between atoms: C_13  and  C_14 
REMARK   13  A    between atoms: C_13  and  C_15 
REMARK   14  A    between atoms: C_16  and  C_17 
REMARK   15  A    between atoms: C_16  and  C_18 
REMARK   16  A    between atoms: C_19  and  C_20 
REMARK   17  A    between atoms: C_20  and  C_24 
REMARK   18  A    between atoms: C_22  and  C_23 
ROOT
HETATM    1  O   UNK N   1      30.259  16.324   7.198  0.00  0.00    -0.294 OA
ENDROOT
BRANCH   1   2
HETATM    2  P   UNK N   1      31.787  15.481   7.222  0.00  0.00     0.393 P 
HETATM    3  O   UNK N   1      32.783  16.201   6.269  0.00  0.00    -0.631 OA
BRANCH   2   4
HETATM    4  O   UNK N   1      32.517  15.564   8.803  0.00  0.00    -0.294 OA
BRANCH   4   5
HETATM    5  C   UNK N   1      33.860  15.935   8.648  0.00  0.00     0.216 C 
BRANCH   5   6
HETATM    6  C   UNK N   1      34.162  17.335   9.214  0.00  0.00     0.198 C 
BRANCH   6   7
HETATM    7  N   UNK N   1      35.023  17.233  10.379  0.00  0.00    -0.416 N 
HETATM    8  H   UNK N   1      35.034  17.156  11.396  0.00  0.00     0.150 HD
HETATM    9  H   UNK N   1      35.991  17.242  10.055  0.00  0.00     0.150 HD
ENDBRANCH   6   7
BRANCH   6  10
HETATM   10  C   UNK N   1      34.736  18.334   8.241  0.00  0.00     0.165 C 
HETATM   11  O   UNK N   1      35.382  19.296   8.625  0.00  0.00    -0.648 OA
BRANCH  10  12
HETATM   12  O   UNK N   1      34.524  18.165   6.922  0.00  0.00    -0.775 OA
HETATM   13  H   UNK N   1      33.808  17.717   6.514  0.00  0.00     0.167 HD
ENDBRANCH  10  12
ENDBRANCH   6  10
ENDBRANCH   5   6
ENDBRANCH   4   5
ENDBRANCH   2   4
BRANCH   2  14
HETATM   14  O   UNK N   1      31.606  13.859   6.626  0.00  0.00    -0.307 OA
HETATM   15  H   UNK N   1      31.393  13.129   7.230  0.00  0.00     0.222 HD
ENDBRANCH   2  14
ENDBRANCH   1   2
BRANCH   1  16
HETATM   16  C   UNK N   1      30.257  17.094   6.032  0.00  0.00     0.215 C 
BRANCH  16  17
HETATM   17  C   UNK N   1      29.024  16.808   5.191  0.00  0.00     0.180 C 
BRANCH  17  18
HETATM   18  O   UNK N   1      28.805  17.838   4.305  0.00  0.00    -0.312 OA
BRANCH  18  19
HETATM   19  C   UNK N   1      27.614  18.482   4.231  0.00  0.00     0.259 C 
HETATM   20  O   UNK N   1      26.565  17.855   4.202  0.00  0.00    -0.265 OA
BRANCH  19  21
HETATM   21  C   UNK N   1      27.593  19.977   4.204  0.00  0.00     0.111 C 
BRANCH  21  22
HETATM   22  C   UNK N   1      26.676  20.542   5.275  0.00  0.00     0.005 C 
HETATM   23  C   UNK N   1      27.485  21.317   6.299  0.00  0.00     0.005 C 
ENDBRANCH  21  22
ENDBRANCH  19  21
ENDBRANCH  18  19
ENDBRANCH  17  18
BRANCH  17  24
HETATM   24  C   UNK N   1      29.130  15.488   4.443  0.00  0.00     0.213 C 
BRANCH  24  25
HETATM   25  O   UNK N   1      30.073  15.634   3.452  0.00  0.00    -0.319 OA
BRANCH  25  26
HETATM   26  C   UNK N   1      31.195  14.884   3.386  0.00  0.00     0.258 C 
HETATM   27  O   UNK N   1      31.173  13.692   3.663  0.00  0.00    -0.265 OA
BRANCH  26  28
HETATM   28  C   UNK N   1      32.465  15.524   2.931  0.00  0.00     0.106 C 
HETATM   29  C   UNK N   1      32.337  17.033   2.926  0.00  0.00     0.015 C 
ENDBRANCH  26  28
ENDBRANCH  25  26
ENDBRANCH  24  25
ENDBRANCH  17  24
ENDBRANCH  16  17
ENDBRANCH   1  16
TORSDOF 18
ENDMDL
MODEL 8
REMARK VINA RESULT:      -5.1     17.836     21.824
REMARK  18 active torsions:
REMARK  status: ('A' for Active; 'I' for Inactive)
REMARK    1  A    between atoms: P_1  and  O_3 
REMARK    2  A    between atoms: P_1  and  O_5 
REMARK    3  A    between atoms: P_1  and  O_6 
REMARK    4  A    between atoms: C_13  and  O_2 
REMARK    5  A    between atoms: O_2  and  C_17 
REMARK    6  A    between atoms: O_3  and  C_14 
REMARK    7  A    between atoms: O_4  and  C_15 
REMARK    8  A    between atoms: O_4  and  C_22 
REMARK    9  A    between atoms: O_5  and  C_19 
REMARK   10  A    between atoms: O_10  and  C_24 
REMARK   11  A    between atoms: C_20  and  N_12 
REMARK   12  A    between atoms: C_13  and  C_14 
REMARK   13  A    between atoms: C_13  and  C_15 
REMARK   14  A    between atoms: C_16  and  C_17 
REMARK   15  A    between atoms: C_16  and  C_18 
REMARK   16  A    between atoms: C_19  and  C_20 
REMARK   17  A    between atoms: C_20  and  C_24 
REMARK   18  A    between atoms: C_22  and  C_23 
ROOT
HETATM    1  O   UNK N   1      27.296  26.606  -4.304  0.00  0.00    -0.294 OA
ENDROOT
BRANCH   1   2
HETATM    2  P   UNK N   1      26.038  27.804  -4.474  0.00  0.00     0.393 P 
HETATM    3  O   UNK N   1      25.329  27.997  -3.103  0.00  0.00    -0.631 OA
BRANCH   2   4
HETATM    4  O   UNK N   1      26.713  29.362  -4.868  0.00  0.00    -0.294 OA
BRANCH   4   5
HETATM    5  C   UNK N   1      26.576  30.196  -3.750  0.00  0.00     0.216 C 
BRANCH   5   6
HETATM    6  C   UNK N   1      27.864  30.289  -2.912  0.00  0.00     0.198 C 
BRANCH   6   7
HETATM    7  N   UNK N   1      27.731  29.513  -1.692  0.00  0.00    -0.416 N 
HETATM    8  H   UNK N   1      28.111  29.371  -0.756  0.00  0.00     0.150 HD
HETATM    9  H   UNK N   1      26.959  28.858  -1.820  0.00  0.00     0.150 HD
ENDBRANCH   6   7
BRANCH   6  10
HETATM   10  C   UNK N   1      29.143  29.913  -3.618  0.00  0.00     0.165 C 
HETATM   11  O   UNK N   1      29.872  30.762  -4.107  0.00  0.00    -0.648 OA
BRANCH  10  12
HETATM   12  O   UNK N   1      29.482  28.614  -3.720  0.00  0.00    -0.775 OA
HETATM   13  H   UNK N   1      29.590  28.114  -4.505  0.00  0.00     0.167 HD
ENDBRANCH  10  12
ENDBRANCH   6  10
ENDBRANCH   5   6
ENDBRANCH   4   5
ENDBRANCH   2   4
BRANCH   2  14
HETATM   14  O   UNK N   1      24.824  27.270  -5.596  0.00  0.00    -0.307 OA
HETATM   15  H   UNK N   1      24.359  26.429  -5.461  0.00  0.00     0.222 HD
ENDBRANCH   2  14
ENDBRANCH   1   2
BRANCH   1  16
HETATM   16  C   UNK N   1      26.968  25.853  -3.175  0.00  0.00     0.215 C 
BRANCH  16  17
HETATM   17  C   UNK N   1      26.921  24.370  -3.502  0.00  0.00     0.180 C 
BRANCH  17  18
HETATM   18  O   UNK N   1      27.230  24.168  -4.829  0.00  0.00    -0.312 OA
BRANCH  18  19
HETATM   19  C   UNK N   1      26.297  23.782  -5.733  0.00  0.00     0.259 C 
HETATM   20  O   UNK N   1      25.204  24.330  -5.777  0.00  0.00    -0.265 OA
BRANCH  19  21
HETATM   21  C   UNK N   1      26.623  22.684  -6.695  0.00  0.00     0.111 C 
BRANCH  21  22
HETATM   22  C   UNK N   1      25.373  22.145  -7.370  0.00  0.00     0.005 C 
HETATM   23  C   UNK N   1      25.711  20.909  -8.184  0.00  0.00     0.005 C 
ENDBRANCH  21  22
ENDBRANCH  19  21
ENDBRANCH  18  19
ENDBRANCH  17  18
BRANCH  17  24
HETATM   24  C   UNK N   1      27.851  23.555  -2.618  0.00  0.00     0.213 C 
BRANCH  24  25
HETATM   25  O   UNK N   1      29.006  23.312  -3.325  0.00  0.00    -0.319 OA
BRANCH  25  26
HETATM   26  C   UNK N   1      30.109  22.762  -2.768  0.00  0.00     0.258 C 
HETATM   27  O   UNK N   1      30.419  23.008  -1.610  0.00  0.00    -0.265 OA
BRANCH  26  28
HETATM   28  C   UNK N   1      30.928  21.813  -3.579  0.00  0.00     0.106 C 
HETATM   29  C   UNK N   1      32.255  21.532  -2.905  0.00  0.00     0.015 C 
ENDBRANCH  26  28
ENDBRANCH  25  26
ENDBRANCH  24  25
ENDBRANCH  17  24
ENDBRANCH  16  17
ENDBRANCH   1  16
TORSDOF 18
ENDMDL
MODEL 9
REMARK VINA RESULT:      -5.0     17.552     21.098
REMARK  18 active torsions:
REMARK  status: ('A' for Active; 'I' for Inactive)
REMARK    1  A    between atoms: P_1  and  O_3 
REMARK    2  A    between atoms: P_1  and  O_5 
REMARK    3  A    between atoms: P_1  and  O_6 
REMARK    4  A    between atoms: C_13  and  O_2 
REMARK    5  A    between atoms: O_2  and  C_17 
REMARK    6  A    between atoms: O_3  and  C_14 
REMARK    7  A    between atoms: O_4  and  C_15 
REMARK    8  A    between atoms: O_4  and  C_22 
REMARK    9  A    between atoms: O_5  and  C_19 
REMARK   10  A    between atoms: O_10  and  C_24 
REMARK   11  A    between atoms: C_20  and  N_12 
REMARK   12  A    between atoms: C_13  and  C_14 
REMARK   13  A    between atoms: C_13  and  C_15 
REMARK   14  A    between atoms: C_16  and  C_17 
REMARK   15  A    between atoms: C_16  and  C_18 
REMARK   16  A    between atoms: C_19  and  C_20 
REMARK   17  A    between atoms: C_20  and  C_24 
REMARK   18  A    between atoms: C_22  and  C_23 
ROOT
HETATM    1  O   UNK N   1      28.051  25.340  -4.974  0.00  0.00    -0.294 OA
ENDROOT
BRANCH   1   2
HETATM    2  P   UNK N   1      26.540  25.129  -4.127  0.00  0.00     0.393 P 
HETATM    3  O   UNK N   1      26.136  26.475  -3.460  0.00  0.00    -0.631 OA
BRANCH   2   4
HETATM    4  O   UNK N   1      25.251  24.758  -5.240  0.00  0.00    -0.294 OA
BRANCH   4   5
HETATM    5  C   UNK N   1      25.742  23.859  -6.197  0.00  0.00     0.216 C 
BRANCH   5   6
HETATM    6  C   UNK N   1      25.839  24.477  -7.604  0.00  0.00     0.198 C 
BRANCH   6   7
HETATM    7  N   UNK N   1      27.229  24.643  -7.988  0.00  0.00    -0.416 N 
HETATM    8  H   UNK N   1      28.014  25.296  -7.994  0.00  0.00     0.150 HD
HETATM    9  H   UNK N   1      27.542  23.773  -8.417  0.00  0.00     0.150 HD
ENDBRANCH   6   7
BRANCH   6  10
HETATM   10  C   UNK N   1      25.090  23.756  -8.697  0.00  0.00     0.165 C 
HETATM   11  O   UNK N   1      24.444  22.746  -8.465  0.00  0.00    -0.648 OA
BRANCH  10  12
HETATM   12  O   UNK N   1      25.142  24.232  -9.955  0.00  0.00    -0.775 OA
HETATM   13  H   UNK N   1      25.887  24.592 -10.396  0.00  0.00     0.167 HD
ENDBRANCH  10  12
ENDBRANCH   6  10
ENDBRANCH   5   6
ENDBRANCH   4   5
ENDBRANCH   2   4
BRANCH   2  14
HETATM   14  O   UNK N   1      26.707  23.965  -2.847  0.00  0.00    -0.307 OA
HETATM   15  H   UNK N   1      26.466  24.193  -1.935  0.00  0.00     0.222 HD
ENDBRANCH   2  14
ENDBRANCH   1   2
BRANCH   1  16
HETATM   16  C   UNK N   1      29.060  25.081  -4.043  0.00  0.00     0.215 C 
BRANCH  16  17
HETATM   17  C   UNK N   1      30.000  23.998  -4.544  0.00  0.00     0.180 C 
BRANCH  17  18
HETATM   18  O   UNK N   1      29.931  22.894  -3.725  0.00  0.00    -0.312 OA
BRANCH  18  19
HETATM   19  C   UNK N   1      31.002  22.452  -3.022  0.00  0.00     0.259 C 
HETATM   20  O   UNK N   1      31.081  22.640  -1.816  0.00  0.00    -0.265 OA
BRANCH  19  21
HETATM   21  C   UNK N   1      32.089  21.712  -3.736  0.00  0.00     0.111 C 
BRANCH  21  22
HETATM   22  C   UNK N   1      33.093  21.119  -2.762  0.00  0.00     0.005 C 
HETATM   23  C   UNK N   1      34.317  20.624  -3.510  0.00  0.00     0.005 C 
ENDBRANCH  21  22
ENDBRANCH  19  21
ENDBRANCH  18  19
ENDBRANCH  17  18
BRANCH  17  24
HETATM   24  C   UNK N   1      29.707  23.600  -5.983  0.00  0.00     0.213 C 
BRANCH  24  25
HETATM   25  O   UNK N   1      28.853  22.522  -5.962  0.00  0.00    -0.319 OA
BRANCH  25  26
HETATM   26  C   UNK N   1      28.838  21.576  -6.927  0.00  0.00     0.258 C 
HETATM   27  O   UNK N   1      28.072  21.658  -7.878  0.00  0.00    -0.265 OA
BRANCH  26  28
HETATM   28  C   UNK N   1      29.801  20.439  -6.836  0.00  0.00     0.106 C 
HETATM   29  C   UNK N   1      29.316  19.253  -7.644  0.00  0.00     0.015 C 
ENDBRANCH  26  28
ENDBRANCH  25  26
ENDBRANCH  24  25
ENDBRANCH  17  24
ENDBRANCH  16  17
ENDBRANCH   1  16
TORSDOF 18
ENDMDL
