MODEL 1
REMARK VINA RESULT:      -7.0      0.000      0.000
REMARK  7 active torsions:
REMARK  status: ('A' for Active; 'I' for Inactive)
REMARK    1  A    between atoms: C_8  and  O_2 
REMARK    2  A    between atoms: C_18  and  O_3 
REMARK    3  A    between atoms: O_4  and  C_27 
REMARK    4  A    between atoms: N_5  and  C_22 
REMARK    5  A    between atoms: C_10  and  C_18 
REMARK    6  A    between atoms: C_18  and  C_23 
REMARK    7  A    between atoms: C_22  and  C_24 
ROOT
HETATM    1  O   UNK N   1      27.523  25.009  -3.264  0.00  0.00    -0.338 OA
HETATM    2  N   UNK N   1      27.219  23.984  -8.395  0.00  0.00     0.094 N 
HETATM    3  C   UNK N   1      28.739  24.854  -6.555  0.00  0.00     0.006 C 
HETATM    4  C   UNK N   1      27.677  24.441  -5.538  0.00  0.00     0.031 C 
HETATM    5  C   UNK N   1      29.785  24.337  -4.138  0.00  0.00     0.094 C 
HETATM    6  C   UNK N   1      28.227  24.140  -4.116  0.00  0.00     0.178 C 
HETATM    7  C   UNK N   1      30.329  23.369  -5.256  0.00  0.00     0.058 C 
HETATM    8  C   UNK N   1      29.751  23.709  -6.657  0.00  0.00     0.023 C 
HETATM    9  C   UNK N   1      27.933  25.173  -7.874  0.00  0.00     0.236 C 
HETATM   10  C   UNK N   1      29.548  26.070  -6.025  0.00  0.00     0.016 C 
HETATM   11  C   UNK N   1      30.145  25.775  -4.620  0.00  0.00     0.042 C 
HETATM   12  C   UNK N   1      26.850  23.240  -6.035  0.00  0.00     0.048 C 
HETATM   13  C   UNK N   1      26.856  25.620  -5.284  0.00  0.00    -0.003 C 
HETATM   14  C   UNK N   1      26.865  26.321  -7.682  0.00  0.00     0.076 C 
HETATM   15  C   UNK N   1      26.240  23.469  -7.425  0.00  0.00     0.274 C 
HETATM   16  C   UNK N   1      26.369  26.481  -6.253  0.00  0.00    -0.046 C 
HETATM   17  C   UNK N   1      26.765  25.862  -3.968  0.00  0.00     0.110 C 
HETATM   18  C   UNK N   1      25.613  27.587  -5.829  0.00  0.00     0.011 C 
HETATM   19  C   UNK N   1      26.016  26.944  -3.497  0.00  0.00     0.099 C 
HETATM   20  C   UNK N   1      25.400  27.795  -4.442  0.00  0.00     0.040 C 
ENDROOT
BRANCH   7  21
HETATM   21  C   UNK N   1      31.831  22.928  -5.313  0.00  0.00     0.067 C 
HETATM   22  C   UNK N   1      32.730  23.895  -4.543  0.00  0.00     0.047 C 
BRANCH  21  23
HETATM   23  O   UNK N   1      32.279  22.944  -6.643  0.00  0.00    -0.389 OA
HETATM   24  H   UNK N   1      32.594  22.174  -7.141  0.00  0.00     0.210 HD
ENDBRANCH  21  23
BRANCH  21  25
HETATM   25  C   UNK N   1      31.979  21.474  -4.776  0.00  0.00    -0.020 C 
HETATM   26  C   UNK N   1      32.663  21.461  -3.416  0.00  0.00     0.017 C 
HETATM   27  C   UNK N   1      30.634  20.780  -4.628  0.00  0.00     0.017 C 
HETATM   28  C   UNK N   1      32.834  20.637  -5.720  0.00  0.00     0.017 C 
ENDBRANCH  21  25
ENDBRANCH   7  21
BRANCH   5  29
HETATM   29  O   UNK N   1      30.363  23.991  -2.890  0.00  0.00    -0.382 OA
HETATM   30  C   UNK N   1      29.571  23.039  -2.228  0.00  0.00     0.202 C 
ENDBRANCH   5  29
BRANCH   2  31
HETATM   31  C   UNK N   1      28.087  22.886  -8.838  0.00  0.00     0.277 C 
BRANCH  31  32
HETATM   32  C   UNK N   1      27.365  21.546  -8.852  0.00  0.00     0.014 A 
HETATM   33  C   UNK N   1      28.230  20.486  -8.212  0.00  0.00     0.007 A 
HETATM   34  C   UNK N   1      28.140  20.582  -9.722  0.00  0.00     0.007 A 
ENDBRANCH  31  32
ENDBRANCH   2  31
BRANCH  19  35
HETATM   35  O   UNK N   1      25.903  27.187  -2.180  0.00  0.00    -0.358 OA
HETATM   36  H   UNK N   1      25.068  27.393  -1.809  0.00  0.00     0.217 HD
ENDBRANCH  19  35
TORSDOF 7
ENDMDL
MODEL 2
REMARK VINA RESULT:      -6.7      2.144      5.956
REMARK  7 active torsions:
REMARK  status: ('A' for Active; 'I' for Inactive)
REMARK    1  A    between atoms: C_8  and  O_2 
REMARK    2  A    between atoms: C_18  and  O_3 
REMARK    3  A    between atoms: O_4  and  C_27 
REMARK    4  A    between atoms: N_5  and  C_22 
REMARK    5  A    between atoms: C_10  and  C_18 
REMARK    6  A    between atoms: C_18  and  C_23 
REMARK    7  A    between atoms: C_22  and  C_24 
ROOT
HETATM    1  O   UNK N   1      29.577  23.344  -6.279  0.00  0.00    -0.338 OA
HETATM    2  N   UNK N   1      25.868  24.539  -9.784  0.00  0.00     0.094 N 
HETATM    3  C   UNK N   1      26.352  24.285  -7.303  0.00  0.00     0.006 C 
HETATM    4  C   UNK N   1      27.828  24.103  -7.651  0.00  0.00     0.031 C 
HETATM    5  C   UNK N   1      27.974  25.016  -5.293  0.00  0.00     0.094 C 
HETATM    6  C   UNK N   1      28.813  24.501  -6.517  0.00  0.00     0.178 C 
HETATM    7  C   UNK N   1      27.104  26.211  -5.837  0.00  0.00     0.058 C 
HETATM    8  C   UNK N   1      26.136  25.764  -6.967  0.00  0.00     0.023 C 
HETATM    9  C   UNK N   1      25.570  23.750  -8.566  0.00  0.00     0.236 C 
HETATM   10  C   UNK N   1      26.007  23.514  -5.999  0.00  0.00     0.016 C 
HETATM   11  C   UNK N   1      26.953  23.929  -4.838  0.00  0.00     0.042 C 
HETATM   12  C   UNK N   1      28.204  24.849  -8.945  0.00  0.00     0.048 C 
HETATM   13  C   UNK N   1      28.064  22.666  -7.745  0.00  0.00    -0.003 C 
HETATM   14  C   UNK N   1      25.885  22.237  -8.890  0.00  0.00     0.076 C 
HETATM   15  C   UNK N   1      27.297  24.487 -10.129  0.00  0.00     0.274 C 
HETATM   16  C   UNK N   1      27.240  21.759  -8.392  0.00  0.00    -0.046 C 
HETATM   17  C   UNK N   1      29.104  22.304  -6.980  0.00  0.00     0.110 C 
HETATM   18  C   UNK N   1      27.606  20.403  -8.363  0.00  0.00     0.011 C 
HETATM   19  C   UNK N   1      29.512  20.967  -6.926  0.00  0.00     0.099 C 
HETATM   20  C   UNK N   1      28.774  20.012  -7.660  0.00  0.00     0.040 C 
ENDROOT
BRANCH   7  21
HETATM   21  C   UNK N   1      26.463  27.273  -4.880  0.00  0.00     0.067 C 
HETATM   22  C   UNK N   1      26.318  26.734  -3.457  0.00  0.00     0.047 C 
BRANCH  21  23
HETATM   23  O   UNK N   1      25.169  27.587  -5.319  0.00  0.00    -0.389 OA
HETATM   24  H   UNK N   1      24.708  28.426  -5.164  0.00  0.00     0.210 HD
ENDBRANCH  21  23
BRANCH  21  25
HETATM   25  C   UNK N   1      27.306  28.583  -4.902  0.00  0.00    -0.020 C 
HETATM   26  C   UNK N   1      26.489  29.766  -4.399  0.00  0.00     0.017 C 
HETATM   27  C   UNK N   1      28.552  28.477  -4.038  0.00  0.00     0.017 C 
HETATM   28  C   UNK N   1      27.749  28.913  -6.322  0.00  0.00     0.017 C 
ENDBRANCH  21  25
ENDBRANCH   7  21
BRANCH   5  29
HETATM   29  O   UNK N   1      28.818  25.479  -4.252  0.00  0.00    -0.382 OA
HETATM   30  C   UNK N   1      29.154  24.426  -3.386  0.00  0.00     0.202 C 
ENDBRANCH   5  29
BRANCH   2  31
HETATM   31  C   UNK N   1      25.430  25.939  -9.738  0.00  0.00     0.277 C 
BRANCH  31  32
HETATM   32  C   UNK N   1      25.273  26.543 -11.126  0.00  0.00     0.014 A 
HETATM   33  C   UNK N   1      23.837  26.950 -11.354  0.00  0.00     0.007 A 
HETATM   34  C   UNK N   1      24.362  25.657 -11.946  0.00  0.00     0.007 A 
ENDBRANCH  31  32
ENDBRANCH   2  31
BRANCH  19  35
HETATM   35  O   UNK N   1      30.563  20.594  -6.177  0.00  0.00    -0.358 OA
HETATM   36  H   UNK N   1      30.624  20.864  -5.282  0.00  0.00     0.217 HD
ENDBRANCH  19  35
TORSDOF 7
ENDMDL
MODEL 3
REMARK VINA RESULT:      -6.7     20.061     24.250
REMARK  7 active torsions:
REMARK  status: ('A' for Active; 'I' for Inactive)
REMARK    1  A    between atoms: C_8  and  O_2 
REMARK    2  A    between atoms: C_18  and  O_3 
REMARK    3  A    between atoms: O_4  and  C_27 
REMARK    4  A    between atoms: N_5  and  C_22 
REMARK    5  A    between atoms: C_10  and  C_18 
REMARK    6  A    between atoms: C_18  and  C_23 
REMARK    7  A    between atoms: C_22  and  C_24 
ROOT
HETATM    1  O   UNK N   1      34.512   9.485  11.172  0.00  0.00    -0.338 OA
HETATM    2  N   UNK N   1      35.491  11.504  15.909  0.00  0.00     0.094 N 
HETATM    3  C   UNK N   1      36.334  11.361  13.517  0.00  0.00     0.006 C 
HETATM    4  C   UNK N   1      35.036  10.649  13.144  0.00  0.00     0.031 C 
HETATM    5  C   UNK N   1      35.687  11.697  10.933  0.00  0.00     0.094 C 
HETATM    6  C   UNK N   1      34.619  10.801  11.655  0.00  0.00     0.178 C 
HETATM    7  C   UNK N   1      35.726  13.055  11.732  0.00  0.00     0.058 C 
HETATM    8  C   UNK N   1      36.147  12.850  13.213  0.00  0.00     0.023 C 
HETATM    9  C   UNK N   1      36.574  10.997  15.034  0.00  0.00     0.236 C 
HETATM   10  C   UNK N   1      37.488  10.895  12.586  0.00  0.00     0.016 C 
HETATM   11  C   UNK N   1      37.110  11.080  11.090  0.00  0.00     0.042 C 
HETATM   12  C   UNK N   1      33.869  11.082  14.053  0.00  0.00     0.048 C 
HETATM   13  C   UNK N   1      35.304   9.216  13.222  0.00  0.00    -0.003 C 
HETATM   14  C   UNK N   1      36.698   9.442  15.283  0.00  0.00     0.076 C 
HETATM   15  C   UNK N   1      34.187  10.930  15.546  0.00  0.00     0.274 C 
HETATM   16  C   UNK N   1      35.992   8.584  14.244  0.00  0.00    -0.046 C 
HETATM   17  C   UNK N   1      34.937   8.602  12.087  0.00  0.00     0.110 C 
HETATM   18  C   UNK N   1      36.183   7.196  14.146  0.00  0.00     0.011 C 
HETATM   19  C   UNK N   1      35.098   7.220  11.947  0.00  0.00     0.099 C 
HETATM   20  C   UNK N   1      35.694   6.504  13.008  0.00  0.00     0.040 C 
ENDROOT
BRANCH   7  21
HETATM   21  C   UNK N   1      36.318  14.366  11.112  0.00  0.00     0.067 C 
HETATM   22  C   UNK N   1      37.497  14.068  10.187  0.00  0.00     0.047 C 
BRANCH  21  23
HETATM   23  O   UNK N   1      36.813  15.191  12.132  0.00  0.00    -0.389 OA
HETATM   24  H   UNK N   1      36.630  15.089  13.079  0.00  0.00     0.210 HD
ENDBRANCH  21  23
BRANCH  21  25
HETATM   25  C   UNK N   1      35.199  15.151  10.364  0.00  0.00    -0.020 C 
HETATM   26  C   UNK N   1      33.818  14.705  10.824  0.00  0.00     0.017 C 
HETATM   27  C   UNK N   1      35.304  16.651  10.590  0.00  0.00     0.017 C 
HETATM   28  C   UNK N   1      35.278  14.898   8.863  0.00  0.00     0.017 C 
ENDBRANCH  21  25
ENDBRANCH   7  21
BRANCH   5  29
HETATM   29  O   UNK N   1      35.319  11.950   9.588  0.00  0.00    -0.382 OA
HETATM   30  C   UNK N   1      36.066  11.143   8.714  0.00  0.00     0.202 C 
ENDBRANCH   5  29
BRANCH   2  31
HETATM   31  C   UNK N   1      35.380  12.966  15.971  0.00  0.00     0.277 C 
BRANCH  31  32
HETATM   32  C   UNK N   1      34.618  13.437  17.201  0.00  0.00     0.014 A 
HETATM   33  C   UNK N   1      35.485  14.360  18.025  0.00  0.00     0.007 A 
HETATM   34  C   UNK N   1      35.312  12.911  18.438  0.00  0.00     0.007 A 
ENDBRANCH  31  32
ENDBRANCH   2  31
BRANCH  19  35
HETATM   35  O   UNK N   1      34.720   6.590  10.822  0.00  0.00    -0.358 OA
HETATM   36  H   UNK N   1      33.813   6.418  10.660  0.00  0.00     0.217 HD
ENDBRANCH  19  35
TORSDOF 7
ENDMDL
MODEL 4
REMARK VINA RESULT:      -6.7     14.965     17.562
REMARK  7 active torsions:
REMARK  status: ('A' for Active; 'I' for Inactive)
REMARK    1  A    between atoms: C_8  and  O_2 
REMARK    2  A    between atoms: C_18  and  O_3 
REMARK    3  A    between atoms: O_4  and  C_27 
REMARK    4  A    between atoms: N_5  and  C_22 
REMARK    5  A    between atoms: C_10  and  C_18 
REMARK    6  A    between atoms: C_18  and  C_23 
REMARK    7  A    between atoms: C_22  and  C_24 
ROOT
HETATM    1  O   UNK N   1      20.220  14.194   7.810  0.00  0.00    -0.338 OA
HETATM    2  N   UNK N   1      25.117  13.654   6.022  0.00  0.00     0.094 N 
HETATM    3  C   UNK N   1      22.731  12.815   5.778  0.00  0.00     0.006 C 
HETATM    4  C   UNK N   1      22.287  13.927   6.726  0.00  0.00     0.031 C 
HETATM    5  C   UNK N   1      20.176  13.537   5.381  0.00  0.00     0.094 C 
HETATM    6  C   UNK N   1      20.810  14.377   6.547  0.00  0.00     0.178 C 
HETATM    7  C   UNK N   1      21.084  13.794   4.119  0.00  0.00     0.058 C 
HETATM    8  C   UNK N   1      22.548  13.329   4.346  0.00  0.00     0.023 C 
HETATM    9  C   UNK N   1      24.216  12.491   6.203  0.00  0.00     0.236 C 
HETATM   10  C   UNK N   1      21.780  11.593   5.899  0.00  0.00     0.016 C 
HETATM   11  C   UNK N   1      20.300  12.013   5.680  0.00  0.00     0.042 C 
HETATM   12  C   UNK N   1      23.213  15.155   6.637  0.00  0.00     0.048 C 
HETATM   13  C   UNK N   1      22.250  13.349   8.065  0.00  0.00    -0.003 C 
HETATM   14  C   UNK N   1      24.339  12.026   7.708  0.00  0.00     0.076 C 
HETATM   15  C   UNK N   1      24.693  14.802   6.837  0.00  0.00     0.274 C 
HETATM   16  C   UNK N   1      23.225  12.532   8.612  0.00  0.00    -0.046 C 
HETATM   17  C   UNK N   1      21.065  13.579   8.649  0.00  0.00     0.110 C 
HETATM   18  C   UNK N   1      23.017  12.040   9.911  0.00  0.00     0.011 C 
HETATM   19  C   UNK N   1      20.814  13.117   9.945  0.00  0.00     0.099 C 
HETATM   20  C   UNK N   1      21.821  12.371  10.597  0.00  0.00     0.040 C 
ENDROOT
BRANCH   7  21
HETATM   21  C   UNK N   1      20.580  13.510   2.663  0.00  0.00     0.067 C 
HETATM   22  C   UNK N   1      19.101  13.128   2.644  0.00  0.00     0.047 C 
BRANCH  21  23
HETATM   23  O   UNK N   1      21.279  12.420   2.124  0.00  0.00    -0.389 OA
HETATM   24  H   UNK N   1      20.987  11.877   1.375  0.00  0.00     0.210 HD
ENDBRANCH  21  23
BRANCH  21  25
HETATM   25  C   UNK N   1      20.853  14.747   1.756  0.00  0.00    -0.020 C 
HETATM   26  C   UNK N   1      19.696  14.985   0.794  0.00  0.00     0.017 C 
HETATM   27  C   UNK N   1      21.053  16.018   2.568  0.00  0.00     0.017 C 
HETATM   28  C   UNK N   1      22.103  14.530   0.913  0.00  0.00     0.017 C 
ENDBRANCH  21  25
ENDBRANCH   7  21
BRANCH   5  29
HETATM   29  O   UNK N   1      18.852  13.961   5.105  0.00  0.00    -0.382 OA
HETATM   30  C   UNK N   1      18.742  15.354   5.243  0.00  0.00     0.202 C 
ENDBRANCH   5  29
BRANCH   2  31
HETATM   31  C   UNK N   1      25.297  14.085   4.630  0.00  0.00     0.277 C 
BRANCH  31  32
HETATM   32  C   UNK N   1      25.804  15.516   4.528  0.00  0.00     0.014 A 
HETATM   33  C   UNK N   1      25.002  16.278   3.500  0.00  0.00     0.007 A 
HETATM   34  C   UNK N   1      26.373  15.736   3.144  0.00  0.00     0.007 A 
ENDBRANCH  31  32
ENDBRANCH   2  31
BRANCH  19  35
HETATM   35  O   UNK N   1      19.637  13.355  10.549  0.00  0.00    -0.358 OA
HETATM   36  H   UNK N   1      19.589  13.946  11.273  0.00  0.00     0.217 HD
ENDBRANCH  19  35
TORSDOF 7
ENDMDL
MODEL 5
REMARK VINA RESULT:      -6.5     14.671     16.977
REMARK  7 active torsions:
REMARK  status: ('A' for Active; 'I' for Inactive)
REMARK    1  A    between atoms: C_8  and  O_2 
REMARK    2  A    between atoms: C_18  and  O_3 
REMARK    3  A    between atoms: O_4  and  C_27 
REMARK    4  A    between atoms: N_5  and  C_22 
REMARK    5  A    between atoms: C_10  and  C_18 
REMARK    6  A    between atoms: C_18  and  C_23 
REMARK    7  A    between atoms: C_22  and  C_24 
ROOT
HETATM    1  O   UNK N   1      22.228  16.578   5.581  0.00  0.00    -0.338 OA
HETATM    2  N   UNK N   1      23.189  11.957   7.860  0.00  0.00     0.094 N 
HETATM    3  C   UNK N   1      21.921  13.103   5.980  0.00  0.00     0.006 C 
HETATM    4  C   UNK N   1      22.670  14.391   6.314  0.00  0.00     0.031 C 
HETATM    5  C   UNK N   1      22.132  14.741   3.864  0.00  0.00     0.094 C 
HETATM    6  C   UNK N   1      22.812  15.383   5.126  0.00  0.00     0.178 C 
HETATM    7  C   UNK N   1      22.855  13.360   3.638  0.00  0.00     0.058 C 
HETATM    8  C   UNK N   1      22.685  12.405   4.851  0.00  0.00     0.023 C 
HETATM    9  C   UNK N   1      21.846  12.313   7.345  0.00  0.00     0.236 C 
HETATM   10  C   UNK N   1      20.523  13.432   5.387  0.00  0.00     0.016 C 
HETATM   11  C   UNK N   1      20.644  14.389   4.168  0.00  0.00     0.042 C 
HETATM   12  C   UNK N   1      24.060  14.102   6.912  0.00  0.00     0.048 C 
HETATM   13  C   UNK N   1      21.816  15.151   7.222  0.00  0.00    -0.003 C 
HETATM   14  C   UNK N   1      21.098  13.116   8.481  0.00  0.00     0.076 C 
HETATM   15  C   UNK N   1      24.006  13.153   8.117  0.00  0.00     0.274 C 
HETATM   16  C   UNK N   1      21.134  14.626   8.307  0.00  0.00    -0.046 C 
HETATM   17  C   UNK N   1      21.644  16.403   6.775  0.00  0.00     0.110 C 
HETATM   18  C   UNK N   1      20.333  15.499   9.063  0.00  0.00     0.011 C 
HETATM   19  C   UNK N   1      20.864  17.311   7.498  0.00  0.00     0.099 C 
HETATM   20  C   UNK N   1      20.232  16.861   8.679  0.00  0.00     0.040 C 
ENDROOT
BRANCH   7  21
HETATM   21  C   UNK N   1      22.796  12.608   2.265  0.00  0.00     0.067 C 
HETATM   22  C   UNK N   1      21.552  12.993   1.465  0.00  0.00     0.047 C 
BRANCH  21  23
HETATM   23  O   UNK N   1      22.713  11.225   2.485  0.00  0.00    -0.389 OA
HETATM   24  H   UNK N   1      22.108  10.787   3.103  0.00  0.00     0.210 HD
ENDBRANCH  21  23
BRANCH  21  25
HETATM   25  C   UNK N   1      24.095  12.885   1.452  0.00  0.00    -0.020 C 
HETATM   26  C   UNK N   1      23.808  13.775   0.250  0.00  0.00     0.017 C 
HETATM   27  C   UNK N   1      25.161  13.569   2.294  0.00  0.00     0.017 C 
HETATM   28  C   UNK N   1      24.684  11.585   0.919  0.00  0.00     0.017 C 
ENDBRANCH  21  25
ENDBRANCH   7  21
BRANCH   5  29
HETATM   29  O   UNK N   1      22.303  15.559   2.719  0.00  0.00    -0.382 OA
HETATM   30  C   UNK N   1      21.150  16.325   2.485  0.00  0.00     0.202 C 
ENDBRANCH   5  29
BRANCH   2  31
HETATM   31  C   UNK N   1      23.946  11.022   7.020  0.00  0.00     0.277 C 
BRANCH  31  32
HETATM   32  C   UNK N   1      23.690   9.569   7.395  0.00  0.00     0.014 A 
HETATM   33  C   UNK N   1      24.428   8.653   6.448  0.00  0.00     0.007 A 
HETATM   34  C   UNK N   1      22.943   8.896   6.265  0.00  0.00     0.007 A 
ENDBRANCH  31  32
ENDBRANCH   2  31
BRANCH  19  35
HETATM   35  O   UNK N   1      20.697  18.574   7.071  0.00  0.00    -0.358 OA
HETATM   36  H   UNK N   1      20.121  18.757   6.356  0.00  0.00     0.217 HD
ENDBRANCH  19  35
TORSDOF 7
ENDMDL
MODEL 6
REMARK VINA RESULT:      -6.4     13.098     17.230
REMARK  7 active torsions:
REMARK  status: ('A' for Active; 'I' for Inactive)
REMARK    1  A    between atoms: C_8  and  O_2 
REMARK    2  A    between atoms: C_18  and  O_3 
REMARK    3  A    between atoms: O_4  and  C_27 
REMARK    4  A    between atoms: N_5  and  C_22 
REMARK    5  A    between atoms: C_10  and  C_18 
REMARK    6  A    between atoms: C_18  and  C_23 
REMARK    7  A    between atoms: C_22  and  C_24 
ROOT
HETATM    1  O   UNK N   1      35.163  16.327   8.897  0.00  0.00    -0.338 OA
HETATM    2  N   UNK N   1      35.099  12.508   5.307  0.00  0.00     0.094 N 
HETATM    3  C   UNK N   1      33.705  13.716   7.054  0.00  0.00     0.006 C 
HETATM    4  C   UNK N   1      34.848  14.715   7.216  0.00  0.00     0.031 C 
HETATM    5  C   UNK N   1      32.855  16.111   7.917  0.00  0.00     0.094 C 
HETATM    6  C   UNK N   1      34.413  16.118   7.725  0.00  0.00     0.178 C 
HETATM    7  C   UNK N   1      32.248  15.719   6.517  0.00  0.00     0.058 C 
HETATM    8  C   UNK N   1      32.711  14.311   6.052  0.00  0.00     0.023 C 
HETATM    9  C   UNK N   1      34.403  12.372   6.608  0.00  0.00     0.236 C 
HETATM   10  C   UNK N   1      32.915  13.582   8.385  0.00  0.00     0.016 C 
HETATM   11  C   UNK N   1      32.432  14.969   8.891  0.00  0.00     0.042 C 
HETATM   12  C   UNK N   1      35.659  14.869   5.915  0.00  0.00     0.048 C 
HETATM   13  C   UNK N   1      35.663  14.245   8.332  0.00  0.00    -0.003 C 
HETATM   14  C   UNK N   1      35.460  11.848   7.659  0.00  0.00     0.076 C 
HETATM   15  C   UNK N   1      36.158  13.528   5.361  0.00  0.00     0.274 C 
HETATM   16  C   UNK N   1      36.059  12.935   8.538  0.00  0.00    -0.046 C 
HETATM   17  C   UNK N   1      35.848  15.224   9.231  0.00  0.00     0.110 C 
HETATM   18  C   UNK N   1      36.823  12.652   9.683  0.00  0.00     0.011 C 
HETATM   19  C   UNK N   1      36.610  14.993  10.381  0.00  0.00     0.099 C 
HETATM   20  C   UNK N   1      37.135  13.699  10.588  0.00  0.00     0.040 C 
ENDROOT
BRANCH   7  21
HETATM   21  C   UNK N   1      30.754  16.015   6.148  0.00  0.00     0.067 C 
HETATM   22  C   UNK N   1      30.030  16.746   7.278  0.00  0.00     0.047 C 
BRANCH  21  23
HETATM   23  O   UNK N   1      30.066  14.808   5.953  0.00  0.00    -0.389 OA
HETATM   24  H   UNK N   1      30.198  14.197   5.211  0.00  0.00     0.210 HD
ENDBRANCH  21  23
BRANCH  21  25
HETATM   25  C   UNK N   1      30.686  16.824   4.819  0.00  0.00    -0.020 C 
HETATM   26  C   UNK N   1      29.573  17.863   4.869  0.00  0.00     0.017 C 
HETATM   27  C   UNK N   1      31.989  17.551   4.525  0.00  0.00     0.017 C 
HETATM   28  C   UNK N   1      30.390  15.902   3.643  0.00  0.00     0.017 C 
ENDBRANCH  21  25
ENDBRANCH   7  21
BRANCH   5  29
HETATM   29  O   UNK N   1      32.380  17.392   8.297  0.00  0.00    -0.382 OA
HETATM   30  C   UNK N   1      33.309  18.385   7.948  0.00  0.00     0.202 C 
ENDBRANCH   5  29
BRANCH   2  31
HETATM   31  C   UNK N   1      34.222  12.778   4.162  0.00  0.00     0.277 C 
BRANCH  31  32
HETATM   32  C   UNK N   1      34.930  13.554   3.060  0.00  0.00     0.014 A 
HETATM   33  C   UNK N   1      34.046  14.674   2.566  0.00  0.00     0.007 A 
HETATM   34  C   UNK N   1      34.157  13.388   1.770  0.00  0.00     0.007 A 
ENDBRANCH  31  32
ENDBRANCH   2  31
BRANCH  19  35
HETATM   35  O   UNK N   1      36.817  15.970  11.280  0.00  0.00    -0.358 OA
HETATM   36  H   UNK N   1      36.104  16.505  11.567  0.00  0.00     0.217 HD
ENDBRANCH  19  35
TORSDOF 7
ENDMDL
MODEL 7
REMARK VINA RESULT:      -6.4     12.237     13.784
REMARK  7 active torsions:
REMARK  status: ('A' for Active; 'I' for Inactive)
REMARK    1  A    between atoms: C_8  and  O_2 
REMARK    2  A    between atoms: C_18  and  O_3 
REMARK    3  A    between atoms: O_4  and  C_27 
REMARK    4  A    between atoms: N_5  and  C_22 
REMARK    5  A    between atoms: C_10  and  C_18 
REMARK    6  A    between atoms: C_18  and  C_23 
REMARK    7  A    between atoms: C_22  and  C_24 
ROOT
HETATM    1  O   UNK N   1      31.042  16.068   7.617  0.00  0.00    -0.338 OA
HETATM    2  N   UNK N   1      28.228  15.640   3.216  0.00  0.00     0.094 N 
HETATM    3  C   UNK N   1      30.478  16.346   4.161  0.00  0.00     0.006 C 
HETATM    4  C   UNK N   1      30.044  15.777   5.510  0.00  0.00     0.031 C 
HETATM    5  C   UNK N   1      32.564  15.589   5.671  0.00  0.00     0.094 C 
HETATM    6  C   UNK N   1      31.214  15.332   6.431  0.00  0.00     0.178 C 
HETATM    7  C   UNK N   1      32.463  14.779   4.323  0.00  0.00     0.058 C 
HETATM    8  C   UNK N   1      31.280  15.260   3.439  0.00  0.00     0.023 C 
HETATM    9  C   UNK N   1      29.136  16.787   3.457  0.00  0.00     0.236 C 
HETATM   10  C   UNK N   1      31.473  17.521   4.368  0.00  0.00     0.016 C 
HETATM   11  C   UNK N   1      32.676  17.086   5.251  0.00  0.00     0.042 C 
HETATM   12  C   UNK N   1      29.049  14.613   5.343  0.00  0.00     0.048 C 
HETATM   13  C   UNK N   1      29.484  16.887   6.275  0.00  0.00    -0.003 C 
HETATM   14  C   UNK N   1      28.330  17.864   4.286  0.00  0.00     0.076 C 
HETATM   15  C   UNK N   1      27.841  14.980   4.471  0.00  0.00     0.274 C 
HETATM   16  C   UNK N   1      28.604  17.836   5.781  0.00  0.00    -0.046 C 
HETATM   17  C   UNK N   1      30.058  16.969   7.484  0.00  0.00     0.110 C 
HETATM   18  C   UNK N   1      28.182  18.855   6.651  0.00  0.00     0.011 C 
HETATM   19  C   UNK N   1      29.664  17.960   8.388  0.00  0.00     0.099 C 
HETATM   20  C   UNK N   1      28.685  18.891   7.977  0.00  0.00     0.040 C 
ENDROOT
BRANCH   7  21
HETATM   21  C   UNK N   1      33.732  14.406   3.483  0.00  0.00     0.067 C 
HETATM   22  C   UNK N   1      35.019  14.631   4.276  0.00  0.00     0.047 C 
BRANCH  21  23
HETATM   23  O   UNK N   1      33.812  15.233   2.353  0.00  0.00    -0.389 OA
HETATM   24  H   UNK N   1      34.631  15.543   1.938  0.00  0.00     0.210 HD
ENDBRANCH  21  23
BRANCH  21  25
HETATM   25  C   UNK N   1      33.626  12.932   2.989  0.00  0.00    -0.020 C 
HETATM   26  C   UNK N   1      32.763  12.102   3.930  0.00  0.00     0.017 C 
HETATM   27  C   UNK N   1      33.022  12.837   1.597  0.00  0.00     0.017 C 
HETATM   28  C   UNK N   1      35.002  12.280   2.946  0.00  0.00     0.017 C 
ENDBRANCH  21  25
ENDBRANCH   7  21
BRANCH   5  29
HETATM   29  O   UNK N   1      33.672  15.122   6.422  0.00  0.00    -0.382 OA
HETATM   30  C   UNK N   1      34.249  16.173   7.154  0.00  0.00     0.202 C 
ENDBRANCH   5  29
BRANCH   2  31
HETATM   31  C   UNK N   1      28.738  14.636   2.275  0.00  0.00     0.277 C 
BRANCH  31  32
HETATM   32  C   UNK N   1      28.127  13.261   2.507  0.00  0.00     0.014 A 
HETATM   33  C   UNK N   1      29.216  12.218   2.590  0.00  0.00     0.007 A 
HETATM   34  C   UNK N   1      28.422  12.386   1.309  0.00  0.00     0.007 A 
ENDBRANCH  31  32
ENDBRANCH   2  31
BRANCH  19  35
HETATM   35  O   UNK N   1      30.219  18.043   9.609  0.00  0.00    -0.358 OA
HETATM   36  H   UNK N   1      29.677  18.069  10.373  0.00  0.00     0.217 HD
ENDBRANCH  19  35
TORSDOF 7
ENDMDL
MODEL 8
REMARK VINA RESULT:      -6.4      2.408      6.472
REMARK  7 active torsions:
REMARK  status: ('A' for Active; 'I' for Inactive)
REMARK    1  A    between atoms: C_8  and  O_2 
REMARK    2  A    between atoms: C_18  and  O_3 
REMARK    3  A    between atoms: O_4  and  C_27 
REMARK    4  A    between atoms: N_5  and  C_22 
REMARK    5  A    between atoms: C_10  and  C_18 
REMARK    6  A    between atoms: C_18  and  C_23 
REMARK    7  A    between atoms: C_22  and  C_24 
ROOT
HETATM    1  O   UNK N   1      29.036  21.790  -6.214  0.00  0.00    -0.338 OA
HETATM    2  N   UNK N   1      27.588  26.224  -3.825  0.00  0.00     0.094 N 
HETATM    3  C   UNK N   1      28.760  25.274  -5.868  0.00  0.00     0.006 C 
HETATM    4  C   UNK N   1      28.314  23.882  -5.427  0.00  0.00     0.031 C 
HETATM    5  C   UNK N   1      28.549  23.566  -7.929  0.00  0.00     0.094 C 
HETATM    6  C   UNK N   1      28.186  22.848  -6.580  0.00  0.00     0.178 C 
HETATM    7  C   UNK N   1      27.562  24.787  -8.048  0.00  0.00     0.058 C 
HETATM    8  C   UNK N   1      27.727  25.791  -6.875  0.00  0.00     0.023 C 
HETATM    9  C   UNK N   1      28.885  26.102  -4.531  0.00  0.00     0.236 C 
HETATM   10  C   UNK N   1      30.094  25.185  -6.660  0.00  0.00     0.016 C 
HETATM   11  C   UNK N   1      29.976  24.188  -7.846  0.00  0.00     0.042 C 
HETATM   12  C   UNK N   1      26.995  23.932  -4.632  0.00  0.00     0.048 C 
HETATM   13  C   UNK N   1      29.412  23.313  -4.653  0.00  0.00    -0.003 C 
HETATM   14  C   UNK N   1      29.922  25.478  -3.515  0.00  0.00     0.076 C 
HETATM   15  C   UNK N   1      27.047  24.909  -3.450  0.00  0.00     0.274 C 
HETATM   16  C   UNK N   1      30.137  23.982  -3.680  0.00  0.00    -0.046 C 
HETATM   17  C   UNK N   1      29.744  22.100  -5.118  0.00  0.00     0.110 C 
HETATM   18  C   UNK N   1      31.183  23.289  -3.048  0.00  0.00     0.011 C 
HETATM   19  C   UNK N   1      30.772  21.368  -4.516  0.00  0.00     0.099 C 
HETATM   20  C   UNK N   1      31.474  21.958  -3.441  0.00  0.00     0.040 C 
ENDROOT
BRANCH   7  21
HETATM   21  C   UNK N   1      27.285  25.499  -9.416  0.00  0.00     0.067 C 
HETATM   22  C   UNK N   1      28.441  25.305 -10.396  0.00  0.00     0.047 C 
BRANCH  21  23
HETATM   23  O   UNK N   1      27.164  26.882  -9.215  0.00  0.00    -0.389 OA
HETATM   24  H   UNK N   1      27.506  27.571  -9.806  0.00  0.00     0.210 HD
ENDBRANCH  21  23
BRANCH  21  25
HETATM   25  C   UNK N   1      25.944  24.986 -10.020  0.00  0.00    -0.020 C 
HETATM   26  C   UNK N   1      25.187  24.125  -9.016  0.00  0.00     0.017 C 
HETATM   27  C   UNK N   1      25.030  26.127 -10.437  0.00  0.00     0.017 C 
HETATM   28  C   UNK N   1      26.203  24.123 -11.249  0.00  0.00     0.017 C 
ENDBRANCH  21  25
ENDBRANCH   7  21
BRANCH   5  29
HETATM   29  O   UNK N   1      28.367  22.699  -9.036  0.00  0.00    -0.382 OA
HETATM   30  C   UNK N   1      29.590  22.122  -9.416  0.00  0.00     0.202 C 
ENDBRANCH   5  29
BRANCH   2  31
HETATM   31  C   UNK N   1      26.561  26.984  -4.546  0.00  0.00     0.277 C 
BRANCH  31  32
HETATM   32  C   UNK N   1      25.937  28.076  -3.688  0.00  0.00     0.014 A 
HETATM   33  C   UNK N   1      26.403  29.433  -4.158  0.00  0.00     0.007 A 
HETATM   34  C   UNK N   1      27.036  28.795  -2.937  0.00  0.00     0.007 A 
ENDBRANCH  31  32
ENDBRANCH   2  31
BRANCH  19  35
HETATM   35  O   UNK N   1      31.103  20.144  -4.962  0.00  0.00    -0.358 OA
HETATM   36  H   UNK N   1      31.476  20.038  -5.814  0.00  0.00     0.217 HD
ENDBRANCH  19  35
TORSDOF 7
ENDMDL
MODEL 9
REMARK VINA RESULT:      -6.2     21.233     25.199
REMARK  7 active torsions:
REMARK  status: ('A' for Active; 'I' for Inactive)
REMARK    1  A    between atoms: C_8  and  O_2 
REMARK    2  A    between atoms: C_18  and  O_3 
REMARK    3  A    between atoms: O_4  and  C_27 
REMARK    4  A    between atoms: N_5  and  C_22 
REMARK    5  A    between atoms: C_10  and  C_18 
REMARK    6  A    between atoms: C_18  and  C_23 
REMARK    7  A    between atoms: C_22  and  C_24 
ROOT
HETATM    1  O   UNK N   1      36.065  12.594  15.882  0.00  0.00    -0.338 OA
HETATM    2  N   UNK N   1      37.968   8.110  13.946  0.00  0.00     0.094 N 
HETATM    3  C   UNK N   1      36.105   9.823  13.724  0.00  0.00     0.006 C 
HETATM    4  C   UNK N   1      36.844  10.698  14.734  0.00  0.00     0.031 C 
HETATM    5  C   UNK N   1      35.538  12.430  13.427  0.00  0.00     0.094 C 
HETATM    6  C   UNK N   1      36.543  12.218  14.614  0.00  0.00     0.178 C 
HETATM    7  C   UNK N   1      36.232  11.810  12.156  0.00  0.00     0.058 C 
HETATM    8  C   UNK N   1      36.511  10.291  12.323  0.00  0.00     0.023 C 
HETATM    9  C   UNK N   1      36.513   8.344  14.095  0.00  0.00     0.236 C 
HETATM   10  C   UNK N   1      34.574  10.075  13.812  0.00  0.00     0.016 C 
HETATM   11  C   UNK N   1      34.247  11.586  13.651  0.00  0.00     0.042 C 
HETATM   12  C   UNK N   1      38.366  10.468  14.679  0.00  0.00     0.048 C 
HETATM   13  C   UNK N   1      36.279  10.396  16.045  0.00  0.00    -0.003 C 
HETATM   14  C   UNK N   1      36.118   7.948  15.573  0.00  0.00     0.076 C 
HETATM   15  C   UNK N   1      38.753   8.991  14.825  0.00  0.00     0.274 C 
HETATM   16  C   UNK N   1      36.007   9.127  16.528  0.00  0.00    -0.046 C 
HETATM   17  C   UNK N   1      35.900  11.521  16.670  0.00  0.00     0.110 C 
HETATM   18  C   UNK N   1      35.438   9.019  17.807  0.00  0.00     0.011 C 
HETATM   19  C   UNK N   1      35.337  11.465  17.949  0.00  0.00     0.099 C 
HETATM   20  C   UNK N   1      35.140  10.197  18.539  0.00  0.00     0.040 C 
ENDROOT
BRANCH   7  21
HETATM   21  C   UNK N   1      35.786  12.184  10.701  0.00  0.00     0.067 C 
HETATM   22  C   UNK N   1      34.468  12.958  10.699  0.00  0.00     0.047 C 
BRANCH  21  23
HETATM   23  O   UNK N   1      35.561  11.015   9.959  0.00  0.00    -0.389 OA
HETATM   24  H   UNK N   1      34.753  10.480   9.980  0.00  0.00     0.210 HD
ENDBRANCH  21  23
BRANCH  21  25
HETATM   25  C   UNK N   1      36.913  12.991   9.991  0.00  0.00    -0.020 C 
HETATM   26  C   UNK N   1      37.215  12.412   8.615  0.00  0.00     0.017 C 
HETATM   27  C   UNK N   1      36.541  14.454   9.810  0.00  0.00     0.017 C 
HETATM   28  C   UNK N   1      38.204  12.935  10.798  0.00  0.00     0.017 C 
ENDBRANCH  21  25
ENDBRANCH   7  21
BRANCH   5  29
HETATM   29  O   UNK N   1      35.289  13.808  13.206  0.00  0.00    -0.382 OA
HETATM   30  C   UNK N   1      36.411  14.574  13.563  0.00  0.00     0.202 C 
ENDBRANCH   5  29
BRANCH   2  31
HETATM   31  C   UNK N   1      38.474   8.219  12.572  0.00  0.00     0.277 C 
BRANCH  31  32
HETATM   32  C   UNK N   1      39.943   7.835  12.463  0.00  0.00     0.014 A 
HETATM   33  C   UNK N   1      40.387   7.894  11.021  0.00  0.00     0.007 A 
HETATM   34  C   UNK N   1      40.056   6.559  11.659  0.00  0.00     0.007 A 
ENDBRANCH  31  32
ENDBRANCH   2  31
BRANCH  19  35
HETATM   35  O   UNK N   1      34.969  12.586  18.592  0.00  0.00    -0.358 OA
HETATM   36  H   UNK N   1      34.529  13.272  18.131  0.00  0.00     0.217 HD
ENDBRANCH  19  35
TORSDOF 7
ENDMDL
