REMARK  9 active torsions:
REMARK  status: ('A' for Active; 'I' for Inactive)
REMARK    1  A    between atoms: C_9  and  O_1 
REMARK    2  A    between atoms: O_1  and  C_13 
REMARK    3  A    between atoms: O_2  and  C_16 
REMARK    4  A    between atoms: O_2  and  C_21 
REMARK    5  A    between atoms: C_7  and  N_5 
REMARK       I    between atoms: N_5  and  C_17 
REMARK    6  A    between atoms: C_8  and  N_6 
REMARK    7  A    between atoms: C_12  and  C_16 
REMARK    8  A    between atoms: C_13  and  C_14 
REMARK    9  A    between atoms: C_13  and  C_15 
ROOT
HETATM    1  C   UNK N   1       5.841   1.308  -0.285  0.00  0.00     0.139 C 
HETATM    2  C   UNK N   1       6.986   0.515   0.366  0.00  0.00     0.103 C 
HETATM    3  C   UNK N   1       4.487   0.538  -0.313  0.00  0.00     0.170 C 
HETATM    4  C   UNK N   1       7.076  -0.889  -0.223  0.00  0.00     0.071 C 
HETATM    5  C   UNK N   1       4.619  -0.952  -0.154  0.00  0.00     0.020 C 
HETATM    6  C   UNK N   1       5.772  -1.616  -0.068  0.00  0.00     0.018 C 
ENDROOT
BRANCH   3   7
HETATM    7  O   UNK N   1       3.534   1.003   0.608  0.00  0.00    -0.375 OA
BRANCH   7   8
HETATM    8  C   UNK N   1       2.296   0.892  -0.057  0.00  0.00     0.121 C 
BRANCH   8   9
HETATM    9  C   UNK N   1       1.399   2.070   0.287  0.00  0.00     0.027 C 
HETATM   10  C   UNK N   1       0.138   2.042  -0.563  0.00  0.00     0.007 C 
ENDBRANCH   8   9
BRANCH   8  11
HETATM   11  C   UNK N   1       1.606  -0.423   0.304  0.00  0.00     0.027 C 
HETATM   12  C   UNK N   1       1.650  -1.373  -0.880  0.00  0.00     0.007 C 
ENDBRANCH   8  11
ENDBRANCH   7   8
ENDBRANCH   3   7
BRANCH   1  13
HETATM   13  N   UNK N   1       5.735   2.603   0.363  0.00  0.00    -0.352 N 
HETATM   14  C   UNK N   1       4.951   3.613  -0.082  0.00  0.00     0.214 C 
HETATM   15  O   UNK N   1       4.267   3.482  -1.085  0.00  0.00    -0.274 OA
HETATM   16  C   UNK N   1       4.925   4.902   0.665  0.00  0.00     0.117 C 
HETATM   17  H   UNK N   1       6.267   2.756   1.178  0.00  0.00     0.163 HD
ENDBRANCH   1  13
BRANCH   2  18
HETATM   18  N   UNK N   1       8.246   1.200   0.128  0.00  0.00    -0.424 N 
HETATM   19  H   UNK N   1       9.104   0.674  -0.040  0.00  0.00     0.150 HD
HETATM   20  H   UNK N   1       8.272   2.220   0.128  0.00  0.00     0.150 HD
ENDBRANCH   2  18
BRANCH   6  21
HETATM   21  C   UNK N   1       5.709  -3.072   0.164  0.00  0.00     0.289 C 
HETATM   22  O   UNK N   1       6.740  -3.734   0.223  0.00  0.00    -0.260 OA
BRANCH  21  23
HETATM   23  O   UNK N   1       4.497  -3.660   0.319  0.00  0.00    -0.318 OA
BRANCH  23  24
HETATM   24  C   UNK N   1       4.319  -5.003   0.540  0.00  0.00     0.174 C 
HETATM   25  C   UNK N   1       2.834  -5.288   0.650  0.00  0.00     0.034 C 
ENDBRANCH  23  24
ENDBRANCH  21  23
ENDBRANCH   6  21
TORSDOF 9
