MODEL 1
REMARK VINA RESULT:      -5.6      0.000      0.000
REMARK  9 active torsions:
REMARK  status: ('A' for Active; 'I' for Inactive)
REMARK    1  A    between atoms: C_9  and  O_1 
REMARK    2  A    between atoms: O_1  and  C_13 
REMARK    3  A    between atoms: O_2  and  C_16 
REMARK    4  A    between atoms: O_2  and  C_21 
REMARK    5  A    between atoms: C_7  and  N_5 
REMARK       I    between atoms: N_5  and  C_17 
REMARK    6  A    between atoms: C_8  and  N_6 
REMARK    7  A    between atoms: C_12  and  C_16 
REMARK    8  A    between atoms: C_13  and  C_14 
REMARK    9  A    between atoms: C_13  and  C_15 
ROOT
HETATM    1  C   UNK N   1      44.313  23.031   2.424  0.00  0.00     0.139 C 
HETATM    2  C   UNK N   1      44.384  22.261   3.753  0.00  0.00     0.103 C 
HETATM    3  C   UNK N   1      42.952  22.868   1.682  0.00  0.00     0.170 C 
HETATM    4  C   UNK N   1      43.942  20.814   3.565  0.00  0.00     0.071 C 
HETATM    5  C   UNK N   1      42.153  21.668   2.111  0.00  0.00     0.020 C 
HETATM    6  C   UNK N   1      42.557  20.750   2.989  0.00  0.00     0.018 C 
ENDROOT
BRANCH   3   7
HETATM    7  O   UNK N   1      42.122  24.000   1.734  0.00  0.00    -0.375 OA
BRANCH   7   8
HETATM    8  C   UNK N   1      41.574  24.113   0.441  0.00  0.00     0.121 C 
BRANCH   8   9
HETATM    9  C   UNK N   1      42.673  24.328  -0.587  0.00  0.00     0.027 C 
HETATM   10  C   UNK N   1      43.097  25.788  -0.612  0.00  0.00     0.007 C 
ENDBRANCH   8   9
BRANCH   8  11
HETATM   11  C   UNK N   1      40.562  25.257   0.382  0.00  0.00     0.027 C 
HETATM   12  C   UNK N   1      39.544  24.992  -0.713  0.00  0.00     0.007 C 
ENDBRANCH   8  11
ENDBRANCH   7   8
ENDBRANCH   3   7
BRANCH   1  13
HETATM   13  N   UNK N   1      44.657  24.421   2.663  0.00  0.00    -0.352 N 
HETATM   14  C   UNK N   1      45.555  25.118   1.928  0.00  0.00     0.214 C 
HETATM   15  O   UNK N   1      46.140  24.597   0.992  0.00  0.00    -0.274 OA
HETATM   16  C   UNK N   1      45.830  26.542   2.270  0.00  0.00     0.117 C 
HETATM   17  H   UNK N   1      44.208  24.885   3.407  0.00  0.00     0.163 HD
ENDBRANCH   1  13
BRANCH   2  18
HETATM   18  N   UNK N   1      45.752  22.269   4.244  0.00  0.00    -0.424 N 
HETATM   19  H   UNK N   1      46.498  22.714   3.709  0.00  0.00     0.150 HD
HETATM   20  H   UNK N   1      45.969  21.824   5.136  0.00  0.00     0.150 HD
ENDBRANCH   2  18
BRANCH   6  21
HETATM   21  C   UNK N   1      41.607  19.680   3.349  0.00  0.00     0.289 C 
HETATM   22  O   UNK N   1      40.549  19.954   3.907  0.00  0.00    -0.260 OA
BRANCH  21  23
HETATM   23  O   UNK N   1      41.918  18.396   3.045  0.00  0.00    -0.318 OA
BRANCH  23  24
HETATM   24  C   UNK N   1      42.617  18.022   1.924  0.00  0.00     0.174 C 
HETATM   25  C   UNK N   1      43.831  17.219   2.349  0.00  0.00     0.034 C 
ENDBRANCH  23  24
ENDBRANCH  21  23
ENDBRANCH   6  21
TORSDOF 9
ENDMDL
MODEL 2
REMARK VINA RESULT:      -5.6     12.368     15.039
REMARK  9 active torsions:
REMARK  status: ('A' for Active; 'I' for Inactive)
REMARK    1  A    between atoms: C_9  and  O_1 
REMARK    2  A    between atoms: O_1  and  C_13 
REMARK    3  A    between atoms: O_2  and  C_16 
REMARK    4  A    between atoms: O_2  and  C_21 
REMARK    5  A    between atoms: C_7  and  N_5 
REMARK       I    between atoms: N_5  and  C_17 
REMARK    6  A    between atoms: C_8  and  N_6 
REMARK    7  A    between atoms: C_12  and  C_16 
REMARK    8  A    between atoms: C_13  and  C_14 
REMARK    9  A    between atoms: C_13  and  C_15 
ROOT
HETATM    1  C   UNK N   1      31.030  17.113   8.246  0.00  0.00     0.139 C 
HETATM    2  C   UNK N   1      30.114  18.285   8.636  0.00  0.00     0.103 C 
HETATM    3  C   UNK N   1      31.013  16.789   6.722  0.00  0.00     0.170 C 
HETATM    4  C   UNK N   1      28.718  18.099   8.051  0.00  0.00     0.071 C 
HETATM    5  C   UNK N   1      29.809  17.318   5.991  0.00  0.00     0.020 C 
HETATM    6  C   UNK N   1      28.781  17.950   6.559  0.00  0.00     0.018 C 
ENDROOT
BRANCH   3   7
HETATM    7  O   UNK N   1      32.167  17.188   6.029  0.00  0.00    -0.375 OA
BRANCH   7   8
HETATM    8  C   UNK N   1      32.412  16.158   5.099  0.00  0.00     0.121 C 
BRANCH   8   9
HETATM    9  C   UNK N   1      33.303  15.089   5.710  0.00  0.00     0.027 C 
HETATM   10  C   UNK N   1      34.712  15.624   5.910  0.00  0.00     0.007 C 
ENDBRANCH   8   9
BRANCH   8  11
HETATM   11  C   UNK N   1      33.051  16.719   3.829  0.00  0.00     0.027 C 
HETATM   12  C   UNK N   1      31.974  17.057   2.813  0.00  0.00     0.007 C 
ENDBRANCH   8  11
ENDBRANCH   7   8
ENDBRANCH   3   7
BRANCH   1  13
HETATM   13  N   UNK N   1      32.368  17.371   8.748  0.00  0.00    -0.352 N 
HETATM   14  C   UNK N   1      33.211  16.410   9.191  0.00  0.00     0.214 C 
HETATM   15  O   UNK N   1      32.880  15.234   9.189  0.00  0.00    -0.274 OA
HETATM   16  C   UNK N   1      34.562  16.795   9.688  0.00  0.00     0.117 C 
HETATM   17  H   UNK N   1      32.681  18.305   8.767  0.00  0.00     0.163 HD
ENDBRANCH   1  13
BRANCH   2  18
HETATM   18  N   UNK N   1      30.005  18.353  10.084  0.00  0.00    -0.424 N 
HETATM   19  H   UNK N   1      29.692  17.546  10.624  0.00  0.00     0.150 HD
HETATM   20  H   UNK N   1      30.247  19.219  10.567  0.00  0.00     0.150 HD
ENDBRANCH   2  18
BRANCH   6  21
HETATM   21  C   UNK N   1      27.721  18.469   5.673  0.00  0.00     0.289 C 
HETATM   22  O   UNK N   1      26.656  17.870   5.566  0.00  0.00    -0.260 OA
BRANCH  21  23
HETATM   23  O   UNK N   1      27.942  19.619   4.990  0.00  0.00    -0.318 OA
BRANCH  23  24
HETATM   24  C   UNK N   1      27.088  20.693   5.000  0.00  0.00     0.174 C 
HETATM   25  C   UNK N   1      27.253  21.437   6.311  0.00  0.00     0.034 C 
ENDBRANCH  23  24
ENDBRANCH  21  23
ENDBRANCH   6  21
TORSDOF 9
ENDMDL
MODEL 3
REMARK VINA RESULT:      -5.5     11.977     14.503
REMARK  9 active torsions:
REMARK  status: ('A' for Active; 'I' for Inactive)
REMARK    1  A    between atoms: C_9  and  O_1 
REMARK    2  A    between atoms: O_1  and  C_13 
REMARK    3  A    between atoms: O_2  and  C_16 
REMARK    4  A    between atoms: O_2  and  C_21 
REMARK    5  A    between atoms: C_7  and  N_5 
REMARK       I    between atoms: N_5  and  C_17 
REMARK    6  A    between atoms: C_8  and  N_6 
REMARK    7  A    between atoms: C_12  and  C_16 
REMARK    8  A    between atoms: C_13  and  C_14 
REMARK    9  A    between atoms: C_13  and  C_15 
ROOT
HETATM    1  C   UNK N   1      31.860  16.121   5.598  0.00  0.00     0.139 C 
HETATM    2  C   UNK N   1      33.262  16.626   5.219  0.00  0.00     0.103 C 
HETATM    3  C   UNK N   1      31.302  16.754   6.907  0.00  0.00     0.170 C 
HETATM    4  C   UNK N   1      34.210  16.536   6.411  0.00  0.00     0.071 C 
HETATM    5  C   UNK N   1      32.354  17.351   7.803  0.00  0.00     0.020 C 
HETATM    6  C   UNK N   1      33.668  17.304   7.581  0.00  0.00     0.018 C 
ENDROOT
BRANCH   3   7
HETATM    7  O   UNK N   1      30.291  17.708   6.708  0.00  0.00    -0.375 OA
BRANCH   7   8
HETATM    8  C   UNK N   1      29.277  17.366   7.625  0.00  0.00     0.121 C 
BRANCH   8   9
HETATM    9  C   UNK N   1      28.088  16.756   6.901  0.00  0.00     0.027 C 
HETATM   10  C   UNK N   1      27.515  17.744   5.896  0.00  0.00     0.007 C 
ENDBRANCH   8   9
BRANCH   8  11
HETATM   11  C   UNK N   1      28.838  18.591   8.426  0.00  0.00     0.027 C 
HETATM   12  C   UNK N   1      29.495  18.577   9.795  0.00  0.00     0.007 C 
ENDBRANCH   8  11
ENDBRANCH   7   8
ENDBRANCH   3   7
BRANCH   1  13
HETATM   13  N   UNK N   1      30.970  16.304   4.465  0.00  0.00    -0.352 N 
HETATM   14  C   UNK N   1      30.023  15.412   4.092  0.00  0.00     0.214 C 
HETATM   15  O   UNK N   1      29.860  14.372   4.711  0.00  0.00    -0.274 OA
HETATM   16  C   UNK N   1      29.168  15.706   2.907  0.00  0.00     0.117 C 
HETATM   17  H   UNK N   1      31.062  17.129   3.935  0.00  0.00     0.163 HD
ENDBRANCH   1  13
BRANCH   2  18
HETATM   18  N   UNK N   1      33.795  15.811   4.140  0.00  0.00    -0.424 N 
HETATM   19  H   UNK N   1      34.720  15.997   3.751  0.00  0.00     0.150 HD
HETATM   20  H   UNK N   1      33.237  15.042   3.767  0.00  0.00     0.150 HD
ENDBRANCH   2  18
BRANCH   6  21
HETATM   21  C   UNK N   1      34.548  18.013   8.530  0.00  0.00     0.289 C 
HETATM   22  O   UNK N   1      35.052  19.088   8.221  0.00  0.00    -0.260 OA
BRANCH  21  23
HETATM   23  O   UNK N   1      34.782  17.461   9.746  0.00  0.00    -0.318 OA
BRANCH  23  24
HETATM   24  C   UNK N   1      34.969  16.117   9.955  0.00  0.00     0.174 C 
HETATM   25  C   UNK N   1      36.069  15.931  10.981  0.00  0.00     0.034 C 
ENDBRANCH  23  24
ENDBRANCH  21  23
ENDBRANCH   6  21
TORSDOF 9
ENDMDL
MODEL 4
REMARK VINA RESULT:      -5.5     12.300     14.442
REMARK  9 active torsions:
REMARK  status: ('A' for Active; 'I' for Inactive)
REMARK    1  A    between atoms: C_9  and  O_1 
REMARK    2  A    between atoms: O_1  and  C_13 
REMARK    3  A    between atoms: O_2  and  C_16 
REMARK    4  A    between atoms: O_2  and  C_21 
REMARK    5  A    between atoms: C_7  and  N_5 
REMARK       I    between atoms: N_5  and  C_17 
REMARK    6  A    between atoms: C_8  and  N_6 
REMARK    7  A    between atoms: C_12  and  C_16 
REMARK    8  A    between atoms: C_13  and  C_14 
REMARK    9  A    between atoms: C_13  and  C_15 
ROOT
HETATM    1  C   UNK N   1      30.546  17.194   6.723  0.00  0.00     0.139 C 
HETATM    2  C   UNK N   1      30.854  17.046   8.222  0.00  0.00     0.103 C 
HETATM    3  C   UNK N   1      31.817  17.184   5.822  0.00  0.00     0.170 C 
HETATM    4  C   UNK N   1      31.934  18.033   8.653  0.00  0.00     0.071 C 
HETATM    5  C   UNK N   1      33.094  17.506   6.550  0.00  0.00     0.020 C 
HETATM    6  C   UNK N   1      33.179  17.849   7.835  0.00  0.00     0.018 C 
ENDROOT
BRANCH   3   7
HETATM    7  O   UNK N   1      32.005  15.999   5.093  0.00  0.00    -0.375 OA
BRANCH   7   8
HETATM    8  C   UNK N   1      31.782  16.355   3.748  0.00  0.00     0.121 C 
BRANCH   8   9
HETATM    9  C   UNK N   1      30.806  15.389   3.095  0.00  0.00     0.027 C 
HETATM   10  C   UNK N   1      29.542  16.120   2.669  0.00  0.00     0.007 C 
ENDBRANCH   8   9
BRANCH   8  11
HETATM   11  C   UNK N   1      33.098  16.384   2.971  0.00  0.00     0.027 C 
HETATM   12  C   UNK N   1      33.709  14.995   2.937  0.00  0.00     0.007 C 
ENDBRANCH   8  11
ENDBRANCH   7   8
ENDBRANCH   3   7
BRANCH   1  13
HETATM   13  N   UNK N   1      29.580  16.181   6.337  0.00  0.00    -0.352 N 
HETATM   14  C   UNK N   1      28.260  16.422   6.155  0.00  0.00     0.214 C 
HETATM   15  O   UNK N   1      27.798  17.541   6.310  0.00  0.00    -0.274 OA
HETATM   16  C   UNK N   1      27.360  15.301   5.761  0.00  0.00     0.117 C 
HETATM   17  H   UNK N   1      29.905  15.262   6.198  0.00  0.00     0.163 HD
ENDBRANCH   1  13
BRANCH   2  18
HETATM   18  N   UNK N   1      29.649  17.311   8.991  0.00  0.00    -0.424 N 
HETATM   19  H   UNK N   1      28.960  17.990   8.668  0.00  0.00     0.150 HD
HETATM   20  H   UNK N   1      29.491  16.810   9.866  0.00  0.00     0.150 HD
ENDBRANCH   2  18
BRANCH   6  21
HETATM   21  C   UNK N   1      34.526  18.054   8.402  0.00  0.00     0.289 C 
HETATM   22  O   UNK N   1      35.059  19.158   8.348  0.00  0.00    -0.260 OA
BRANCH  21  23
HETATM   23  O   UNK N   1      35.158  17.008   8.989  0.00  0.00    -0.318 OA
BRANCH  23  24
HETATM   24  C   UNK N   1      35.194  16.797  10.345  0.00  0.00     0.174 C 
HETATM   25  C   UNK N   1      36.179  15.682  10.640  0.00  0.00     0.034 C 
ENDBRANCH  23  24
ENDBRANCH  21  23
ENDBRANCH   6  21
TORSDOF 9
ENDMDL
MODEL 5
REMARK VINA RESULT:      -5.5     13.631     16.237
REMARK  9 active torsions:
REMARK  status: ('A' for Active; 'I' for Inactive)
REMARK    1  A    between atoms: C_9  and  O_1 
REMARK    2  A    between atoms: O_1  and  C_13 
REMARK    3  A    between atoms: O_2  and  C_16 
REMARK    4  A    between atoms: O_2  and  C_21 
REMARK    5  A    between atoms: C_7  and  N_5 
REMARK       I    between atoms: N_5  and  C_17 
REMARK    6  A    between atoms: C_8  and  N_6 
REMARK    7  A    between atoms: C_12  and  C_16 
REMARK    8  A    between atoms: C_13  and  C_14 
REMARK    9  A    between atoms: C_13  and  C_15 
ROOT
HETATM    1  C   UNK N   1      29.585  26.667  -4.793  0.00  0.00     0.139 C 
HETATM    2  C   UNK N   1      30.607  26.550  -3.650  0.00  0.00     0.103 C 
HETATM    3  C   UNK N   1      28.485  25.564  -4.762  0.00  0.00     0.170 C 
HETATM    4  C   UNK N   1      31.149  25.127  -3.553  0.00  0.00     0.071 C 
HETATM    5  C   UNK N   1      28.853  24.346  -3.959  0.00  0.00     0.020 C 
HETATM    6  C   UNK N   1      30.031  24.143  -3.369  0.00  0.00     0.018 C 
ENDROOT
BRANCH   3   7
HETATM    7  O   UNK N   1      27.223  26.013  -4.339  0.00  0.00    -0.375 OA
BRANCH   7   8
HETATM    8  C   UNK N   1      26.356  25.735  -5.416  0.00  0.00     0.121 C 
BRANCH   8   9
HETATM    9  C   UNK N   1      25.443  26.921  -5.684  0.00  0.00     0.027 C 
HETATM   10  C   UNK N   1      25.404  27.843  -4.475  0.00  0.00     0.007 C 
ENDBRANCH   8   9
BRANCH   8  11
HETATM   11  C   UNK N   1      25.528  24.483  -5.132  0.00  0.00     0.027 C 
HETATM   12  C   UNK N   1      25.883  23.391  -6.126  0.00  0.00     0.007 C 
ENDBRANCH   8  11
ENDBRANCH   7   8
ENDBRANCH   3   7
BRANCH   1  13
HETATM   13  N   UNK N   1      29.031  28.010  -4.795  0.00  0.00    -0.352 N 
HETATM   14  C   UNK N   1      28.778  28.725  -5.916  0.00  0.00     0.214 C 
HETATM   15  O   UNK N   1      29.008  28.262  -7.022  0.00  0.00    -0.274 OA
HETATM   16  C   UNK N   1      28.210  30.097  -5.795  0.00  0.00     0.117 C 
HETATM   17  H   UNK N   1      28.826  28.426  -3.926  0.00  0.00     0.163 HD
ENDBRANCH   1  13
BRANCH   2  18
HETATM   18  N   UNK N   1      31.717  27.454  -3.899  0.00  0.00    -0.424 N 
HETATM   19  H   UNK N   1      31.814  27.930  -4.796  0.00  0.00     0.150 HD
HETATM   20  H   UNK N   1      32.408  27.616  -3.166  0.00  0.00     0.150 HD
ENDBRANCH   2  18
BRANCH   6  21
HETATM   21  C   UNK N   1      30.189  22.921  -2.556  0.00  0.00     0.289 C 
HETATM   22  O   UNK N   1      30.471  23.003  -1.365  0.00  0.00    -0.260 OA
BRANCH  21  23
HETATM   23  O   UNK N   1      30.007  21.713  -3.145  0.00  0.00    -0.318 OA
BRANCH  23  24
HETATM   24  C   UNK N   1      30.899  21.145  -4.020  0.00  0.00     0.174 C 
HETATM   25  C   UNK N   1      30.264  21.088  -5.396  0.00  0.00     0.034 C 
ENDBRANCH  23  24
ENDBRANCH  21  23
ENDBRANCH   6  21
TORSDOF 9
ENDMDL
MODEL 6
REMARK VINA RESULT:      -5.4     14.949     18.163
REMARK  9 active torsions:
REMARK  status: ('A' for Active; 'I' for Inactive)
REMARK    1  A    between atoms: C_9  and  O_1 
REMARK    2  A    between atoms: O_1  and  C_13 
REMARK    3  A    between atoms: O_2  and  C_16 
REMARK    4  A    between atoms: O_2  and  C_21 
REMARK    5  A    between atoms: C_7  and  N_5 
REMARK       I    between atoms: N_5  and  C_17 
REMARK    6  A    between atoms: C_8  and  N_6 
REMARK    7  A    between atoms: C_12  and  C_16 
REMARK    8  A    between atoms: C_13  and  C_14 
REMARK    9  A    between atoms: C_13  and  C_15 
ROOT
HETATM    1  C   UNK N   1      27.456  24.197  -6.341  0.00  0.00     0.139 C 
HETATM    2  C   UNK N   1      25.980  24.621  -6.264  0.00  0.00     0.103 C 
HETATM    3  C   UNK N   1      28.276  24.562  -5.067  0.00  0.00     0.170 C 
HETATM    4  C   UNK N   1      25.857  26.080  -5.837  0.00  0.00     0.071 C 
HETATM    5  C   UNK N   1      27.656  25.640  -4.220  0.00  0.00     0.020 C 
HETATM    6  C   UNK N   1      26.544  26.310  -4.523  0.00  0.00     0.018 C 
ENDROOT
BRANCH   3   7
HETATM    7  O   UNK N   1      28.587  23.469  -4.242  0.00  0.00    -0.375 OA
BRANCH   7   8
HETATM    8  C   UNK N   1      29.973  23.571  -4.005  0.00  0.00     0.121 C 
BRANCH   8   9
HETATM    9  C   UNK N   1      30.745  22.687  -4.971  0.00  0.00     0.027 C 
HETATM   10  C   UNK N   1      30.362  21.228  -4.777  0.00  0.00     0.007 C 
ENDBRANCH   8   9
BRANCH   8  11
HETATM   11  C   UNK N   1      30.302  23.193  -2.562  0.00  0.00     0.027 C 
HETATM   12  C   UNK N   1      29.019  22.994  -1.773  0.00  0.00     0.007 C 
ENDBRANCH   8  11
ENDBRANCH   7   8
ENDBRANCH   3   7
BRANCH   1  13
HETATM   13  N   UNK N   1      27.525  22.783  -6.665  0.00  0.00    -0.352 N 
HETATM   14  C   UNK N   1      28.226  22.276  -7.706  0.00  0.00     0.214 C 
HETATM   15  O   UNK N   1      28.860  23.006  -8.451  0.00  0.00    -0.274 OA
HETATM   16  C   UNK N   1      28.221  20.805  -7.943  0.00  0.00     0.117 C 
HETATM   17  H   UNK N   1      27.031  22.154  -6.090  0.00  0.00     0.163 HD
ENDBRANCH   1  13
BRANCH   2  18
HETATM   18  N   UNK N   1      25.363  24.467  -7.572  0.00  0.00    -0.424 N 
HETATM   19  H   UNK N   1      25.883  24.679  -8.424  0.00  0.00     0.150 HD
HETATM   20  H   UNK N   1      24.399  24.140  -7.638  0.00  0.00     0.150 HD
ENDBRANCH   2  18
BRANCH   6  21
HETATM   21  C   UNK N   1      26.038  27.281  -3.533  0.00  0.00     0.289 C 
HETATM   22  O   UNK N   1      25.981  26.981  -2.345  0.00  0.00    -0.260 OA
BRANCH  21  23
HETATM   23  O   UNK N   1      25.649  28.508  -3.958  0.00  0.00    -0.318 OA
BRANCH  23  24
HETATM   24  C   UNK N   1      26.410  29.643  -3.827  0.00  0.00     0.174 C 
HETATM   25  C   UNK N   1      27.329  29.758  -5.028  0.00  0.00     0.034 C 
ENDBRANCH  23  24
ENDBRANCH  21  23
ENDBRANCH   6  21
TORSDOF 9
ENDMDL
MODEL 7
REMARK VINA RESULT:      -5.2     12.965     15.575
REMARK  9 active torsions:
REMARK  status: ('A' for Active; 'I' for Inactive)
REMARK    1  A    between atoms: C_9  and  O_1 
REMARK    2  A    between atoms: O_1  and  C_13 
REMARK    3  A    between atoms: O_2  and  C_16 
REMARK    4  A    between atoms: O_2  and  C_21 
REMARK    5  A    between atoms: C_7  and  N_5 
REMARK       I    between atoms: N_5  and  C_17 
REMARK    6  A    between atoms: C_8  and  N_6 
REMARK    7  A    between atoms: C_12  and  C_16 
REMARK    8  A    between atoms: C_13  and  C_14 
REMARK    9  A    between atoms: C_13  and  C_15 
ROOT
HETATM    1  C   UNK N   1      28.661  18.176   6.822  0.00  0.00     0.139 C 
HETATM    2  C   UNK N   1      28.603  17.694   8.280  0.00  0.00     0.103 C 
HETATM    3  C   UNK N   1      29.745  17.453   5.968  0.00  0.00     0.170 C 
HETATM    4  C   UNK N   1      29.995  17.693   8.906  0.00  0.00     0.071 C 
HETATM    5  C   UNK N   1      30.827  16.789   6.776  0.00  0.00     0.020 C 
HETATM    6  C   UNK N   1      30.938  16.845   8.103  0.00  0.00     0.018 C 
ENDROOT
BRANCH   3   7
HETATM    7  O   UNK N   1      29.236  16.520   5.050  0.00  0.00    -0.375 OA
BRANCH   7   8
HETATM    8  C   UNK N   1      30.371  15.890   4.500  0.00  0.00     0.121 C 
BRANCH   8   9
HETATM    9  C   UNK N   1      30.718  16.499   3.151  0.00  0.00     0.027 C 
HETATM   10  C   UNK N   1      32.171  16.946   3.129  0.00  0.00     0.007 C 
ENDBRANCH   8   9
BRANCH   8  11
HETATM   11  C   UNK N   1      30.137  14.386   4.358  0.00  0.00     0.027 C 
HETATM   12  C   UNK N   1      31.281  13.621   4.999  0.00  0.00     0.007 C 
ENDBRANCH   8  11
ENDBRANCH   7   8
ENDBRANCH   3   7
BRANCH   1  13
HETATM   13  N   UNK N   1      27.334  18.079   6.239  0.00  0.00    -0.352 N 
HETATM   14  C   UNK N   1      26.785  19.024   5.440  0.00  0.00     0.214 C 
HETATM   15  O   UNK N   1      27.398  20.041   5.156  0.00  0.00    -0.274 OA
HETATM   16  C   UNK N   1      25.411  18.817   4.902  0.00  0.00     0.117 C 
HETATM   17  H   UNK N   1      26.801  17.276   6.438  0.00  0.00     0.163 HD
ENDBRANCH   1  13
BRANCH   2  18
HETATM   18  N   UNK N   1      27.749  18.582   9.051  0.00  0.00    -0.424 N 
HETATM   19  H   UNK N   1      27.235  19.338   8.597  0.00  0.00     0.150 HD
HETATM   20  H   UNK N   1      27.661  18.447  10.058  0.00  0.00     0.150 HD
ENDBRANCH   2  18
BRANCH   6  21
HETATM   21  C   UNK N   1      32.021  16.066   8.734  0.00  0.00     0.289 C 
HETATM   22  O   UNK N   1      31.761  15.217   9.580  0.00  0.00    -0.260 OA
BRANCH  21  23
HETATM   23  O   UNK N   1      33.303  16.298   8.356  0.00  0.00    -0.318 OA
BRANCH  23  24
HETATM   24  C   UNK N   1      34.147  17.166   9.001  0.00  0.00     0.174 C 
HETATM   25  C   UNK N   1      34.359  18.385   8.125  0.00  0.00     0.034 C 
ENDBRANCH  23  24
ENDBRANCH  21  23
ENDBRANCH   6  21
TORSDOF 9
ENDMDL
MODEL 8
REMARK VINA RESULT:      -5.1     13.899     17.115
REMARK  9 active torsions:
REMARK  status: ('A' for Active; 'I' for Inactive)
REMARK    1  A    between atoms: C_9  and  O_1 
REMARK    2  A    between atoms: O_1  and  C_13 
REMARK    3  A    between atoms: O_2  and  C_16 
REMARK    4  A    between atoms: O_2  and  C_21 
REMARK    5  A    between atoms: C_7  and  N_5 
REMARK       I    between atoms: N_5  and  C_17 
REMARK    6  A    between atoms: C_8  and  N_6 
REMARK    7  A    between atoms: C_12  and  C_16 
REMARK    8  A    between atoms: C_13  and  C_14 
REMARK    9  A    between atoms: C_13  and  C_15 
ROOT
HETATM    1  C   UNK N   1      27.615  23.973  -6.078  0.00  0.00     0.139 C 
HETATM    2  C   UNK N   1      28.909  23.185  -6.344  0.00  0.00     0.103 C 
HETATM    3  C   UNK N   1      27.608  24.713  -4.707  0.00  0.00     0.170 C 
HETATM    4  C   UNK N   1      29.259  22.300  -5.153  0.00  0.00     0.071 C 
HETATM    5  C   UNK N   1      28.598  24.178  -3.709  0.00  0.00     0.020 C 
HETATM    6  C   UNK N   1      29.385  23.119  -3.900  0.00  0.00     0.018 C 
ENDROOT
BRANCH   3   7
HETATM    7  O   UNK N   1      27.771  26.105  -4.797  0.00  0.00    -0.375 OA
BRANCH   7   8
HETATM    8  C   UNK N   1      26.552  26.648  -4.344  0.00  0.00     0.121 C 
BRANCH   8   9
HETATM    9  C   UNK N   1      25.957  27.572  -5.394  0.00  0.00     0.027 C 
HETATM   10  C   UNK N   1      24.534  27.152  -5.725  0.00  0.00     0.007 C 
ENDBRANCH   8   9
BRANCH   8  11
HETATM   11  C   UNK N   1      26.752  27.400  -3.028  0.00  0.00     0.027 C 
HETATM   12  C   UNK N   1      26.627  28.895  -3.262  0.00  0.00     0.007 C 
ENDBRANCH   8  11
ENDBRANCH   7   8
ENDBRANCH   3   7
BRANCH   1  13
HETATM   13  N   UNK N   1      27.366  24.864  -7.197  0.00  0.00    -0.352 N 
HETATM   14  C   UNK N   1      26.218  24.878  -7.915  0.00  0.00     0.214 C 
HETATM   15  O   UNK N   1      25.301  24.117  -7.649  0.00  0.00    -0.274 OA
HETATM   16  C   UNK N   1      26.076  25.837  -9.047  0.00  0.00     0.117 C 
HETATM   17  H   UNK N   1      28.076  25.498  -7.448  0.00  0.00     0.163 HD
ENDBRANCH   1  13
BRANCH   2  18
HETATM   18  N   UNK N   1      28.729  22.340  -7.513  0.00  0.00    -0.424 N 
HETATM   19  H   UNK N   1      28.108  21.531  -7.484  0.00  0.00     0.150 HD
HETATM   20  H   UNK N   1      29.229  22.560  -8.375  0.00  0.00     0.150 HD
ENDBRANCH   2  18
BRANCH   6  21
HETATM   21  C   UNK N   1      30.353  22.783  -2.839  0.00  0.00     0.289 C 
HETATM   22  O   UNK N   1      30.490  23.523  -1.870  0.00  0.00    -0.260 OA
BRANCH  21  23
HETATM   23  O   UNK N   1      31.079  21.643  -2.948  0.00  0.00    -0.318 OA
BRANCH  23  24
HETATM   24  C   UNK N   1      32.450  21.607  -2.980  0.00  0.00     0.174 C 
HETATM   25  C   UNK N   1      32.921  22.100  -4.335  0.00  0.00     0.034 C 
ENDBRANCH  23  24
ENDBRANCH  21  23
ENDBRANCH   6  21
TORSDOF 9
ENDMDL
MODEL 9
REMARK VINA RESULT:      -5.1     19.676     21.859
REMARK  9 active torsions:
REMARK  status: ('A' for Active; 'I' for Inactive)
REMARK    1  A    between atoms: C_9  and  O_1 
REMARK    2  A    between atoms: O_1  and  C_13 
REMARK    3  A    between atoms: O_2  and  C_16 
REMARK    4  A    between atoms: O_2  and  C_21 
REMARK    5  A    between atoms: C_7  and  N_5 
REMARK       I    between atoms: N_5  and  C_17 
REMARK    6  A    between atoms: C_8  and  N_6 
REMARK    7  A    between atoms: C_12  and  C_16 
REMARK    8  A    between atoms: C_13  and  C_14 
REMARK    9  A    between atoms: C_13  and  C_15 
ROOT
HETATM    1  C   UNK N   1      21.338  18.184   4.177  0.00  0.00     0.139 C 
HETATM    2  C   UNK N   1      20.623  16.823   4.167  0.00  0.00     0.103 C 
HETATM    3  C   UNK N   1      22.776  18.128   4.772  0.00  0.00     0.170 C 
HETATM    4  C   UNK N   1      20.708  16.156   5.536  0.00  0.00     0.071 C 
HETATM    5  C   UNK N   1      23.041  16.927   5.639  0.00  0.00     0.020 C 
HETATM    6  C   UNK N   1      22.139  16.001   5.964  0.00  0.00     0.018 C 
ENDROOT
BRANCH   3   7
HETATM    7  O   UNK N   1      23.804  18.227   3.820  0.00  0.00    -0.375 OA
BRANCH   7   8
HETATM    8  C   UNK N   1      24.896  18.785   4.515  0.00  0.00     0.121 C 
BRANCH   8   9
HETATM    9  C   UNK N   1      25.071  20.249   4.144  0.00  0.00     0.027 C 
HETATM   10  C   UNK N   1      24.685  20.477   2.691  0.00  0.00     0.007 C 
ENDBRANCH   8   9
BRANCH   8  11
HETATM   11  C   UNK N   1      26.178  18.007   4.222  0.00  0.00     0.027 C 
HETATM   12  C   UNK N   1      25.908  16.941   3.174  0.00  0.00     0.007 C 
ENDBRANCH   8  11
ENDBRANCH   7   8
ENDBRANCH   3   7
BRANCH   1  13
HETATM   13  N   UNK N   1      21.308  18.743   2.837  0.00  0.00    -0.352 N 
HETATM   14  C   UNK N   1      20.966  20.023   2.556  0.00  0.00     0.214 C 
HETATM   15  O   UNK N   1      20.656  20.800   3.445  0.00  0.00    -0.274 OA
HETATM   16  C   UNK N   1      20.968  20.485   1.139  0.00  0.00     0.117 C 
HETATM   17  H   UNK N   1      21.552  18.155   2.086  0.00  0.00     0.163 HD
ENDBRANCH   1  13
BRANCH   2  18
HETATM   18  N   UNK N   1      19.221  17.015   3.831  0.00  0.00    -0.424 N 
HETATM   19  H   UNK N   1      18.915  17.039   2.857  0.00  0.00     0.150 HD
HETATM   20  H   UNK N   1      18.535  17.125   4.578  0.00  0.00     0.150 HD
ENDBRANCH   2  18
BRANCH   6  21
HETATM   21  C   UNK N   1      22.597  14.848   6.762  0.00  0.00     0.289 C 
HETATM   22  O   UNK N   1      23.430  14.071   6.306  0.00  0.00    -0.260 OA
BRANCH  21  23
HETATM   23  O   UNK N   1      22.090  14.668   8.007  0.00  0.00    -0.318 OA
BRANCH  23  24
HETATM   24  C   UNK N   1      21.182  13.691   8.331  0.00  0.00     0.174 C 
HETATM   25  C   UNK N   1      20.729  13.900   9.763  0.00  0.00     0.034 C 
ENDBRANCH  23  24
ENDBRANCH  21  23
ENDBRANCH   6  21
TORSDOF 9
ENDMDL
