REMARK  9 active torsions:
REMARK  status: ('A' for Active; 'I' for Inactive)
REMARK    1  A    between atoms: P_1  and  O_6 
REMARK    2  A    between atoms: P_1  and  O_7 
REMARK    3  A    between atoms: P_1  and  C_13 
REMARK    4  A    between atoms: P_2  and  O_4 
REMARK    5  A    between atoms: P_2  and  O_5 
REMARK    6  A    between atoms: P_2  and  C_13 
REMARK    7  A    between atoms: O_3  and  C_13 
REMARK    8  A    between atoms: N_10  and  C_14 
REMARK    9  A    between atoms: C_13  and  C_14 
ROOT
HETATM    1  C   UNK N   1       3.178  -0.390   0.211  0.00  0.00     0.268 C 
ENDROOT
BRANCH   1   2
HETATM    2  P   UNK N   1       1.513  -1.195   0.030  0.00  0.00     0.285 P 
HETATM    3  O   UNK N   1       1.271  -2.240   1.152  0.00  0.00    -0.651 OA
BRANCH   2   4
HETATM    4  O   UNK N   1       1.276  -2.078  -1.445  0.00  0.00    -0.327 OA
HETATM    5  H   UNK N   1       0.782  -2.210  -2.270  0.00  0.00     0.220 HD
ENDBRANCH   2   4
BRANCH   2   6
HETATM    6  O   UNK N   1       0.178  -0.096   0.177  0.00  0.00    -0.327 OA
HETATM    7  H   UNK N   1       0.337   0.857   0.259  0.00  0.00     0.220 HD
ENDBRANCH   2   6
ENDBRANCH   1   2
BRANCH   1   8
HETATM    8  P   UNK N   1       4.511  -1.690   0.067  0.00  0.00     0.285 P 
HETATM    9  O   UNK N   1       4.417  -2.421  -1.300  0.00  0.00    -0.651 OA
BRANCH   8  10
HETATM   10  O   UNK N   1       4.387  -2.974   1.229  0.00  0.00    -0.327 OA
HETATM   11  H   UNK N   1       3.731  -3.272   1.878  0.00  0.00     0.220 HD
ENDBRANCH   8  10
BRANCH   8  12
HETATM   12  O   UNK N   1       6.148  -1.117   0.129  0.00  0.00    -0.327 OA
HETATM   13  H   UNK N   1       6.882  -1.750   0.164  0.00  0.00     0.220 HD
ENDBRANCH   8  12
ENDBRANCH   1   8
BRANCH   1  14
HETATM   14  O   UNK N   1       3.247   0.211   1.470  0.00  0.00    -0.367 OA
HETATM   15  H   UNK N   1       3.632   0.379   2.345  0.00  0.00     0.212 HD
ENDBRANCH   1  14
BRANCH   1  16
HETATM   16  C   UNK N   1       3.295   0.655  -0.902  0.00  0.00     0.192 C 
BRANCH  16  17
HETATM   17  N   UNK N   1       4.000   1.860  -0.487  0.00  0.00    -0.348 N 
HETATM   18  C   UNK N   1       3.429   3.060  -0.302  0.00  0.00     0.108 A 
HETATM   19  C   UNK N   1       4.421   3.939   0.080  0.00  0.00     0.106 A 
HETATM   20  N   UNK N   1       5.595   3.270   0.121  0.00  0.00    -0.361 N 
HETATM   21  C   UNK N   1       5.310   2.001  -0.230  0.00  0.00     0.182 A 
ATOM     22  HN  UNK N   1       6.509   3.649   0.368  1.00  0.00     0.166 HD
ENDBRANCH  16  17
ENDBRANCH   1  16
TORSDOF 9
