MODEL 1
REMARK VINA RESULT:      -5.2      0.000      0.000
REMARK  9 active torsions:
REMARK  status: ('A' for Active; 'I' for Inactive)
REMARK    1  A    between atoms: P_1  and  O_6 
REMARK    2  A    between atoms: P_1  and  O_7 
REMARK    3  A    between atoms: P_1  and  C_13 
REMARK    4  A    between atoms: P_2  and  O_4 
REMARK    5  A    between atoms: P_2  and  O_5 
REMARK    6  A    between atoms: P_2  and  C_13 
REMARK    7  A    between atoms: O_3  and  C_13 
REMARK    8  A    between atoms: N_10  and  C_14 
REMARK    9  A    between atoms: C_13  and  C_14 
ROOT
HETATM    1  C   UNK N   1      34.080  16.212   9.103  0.00  0.00     0.268 C 
ENDROOT
BRANCH   1   2
HETATM    2  P   UNK N   1      34.144  17.786   8.117  0.00  0.00     0.285 P 
HETATM    3  O   UNK N   1      32.789  18.541   8.180  0.00  0.00    -0.651 OA
BRANCH   2   4
HETATM    4  O   UNK N   1      34.450  17.583   6.421  0.00  0.00    -0.327 OA
HETATM    5  H   UNK N   1      34.757  17.952   5.577  0.00  0.00     0.220 HD
ENDBRANCH   2   4
BRANCH   2   6
HETATM    6  O   UNK N   1      35.301  18.939   8.702  0.00  0.00    -0.327 OA
HETATM    7  H   UNK N   1      36.170  19.017   8.277  0.00  0.00     0.220 HD
ENDBRANCH   2   6
ENDBRANCH   1   2
BRANCH   1   8
HETATM    8  P   UNK N   1      32.379  15.457   8.951  0.00  0.00     0.285 P 
HETATM    9  O   UNK N   1      32.467  14.028   8.348  0.00  0.00    -0.651 OA
BRANCH   8  10
HETATM   10  O   UNK N   1      31.318  16.297   7.863  0.00  0.00    -0.327 OA
HETATM   11  H   UNK N   1      30.361  16.429   7.780  0.00  0.00     0.220 HD
ENDBRANCH   8  10
BRANCH   8  12
HETATM   12  O   UNK N   1      31.504  15.238  10.433  0.00  0.00    -0.327 OA
HETATM   13  H   UNK N   1      30.616  15.616  10.532  0.00  0.00     0.220 HD
ENDBRANCH   8  12
ENDBRANCH   1   8
BRANCH   1  14
HETATM   14  O   UNK N   1      34.337  16.515  10.442  0.00  0.00    -0.367 OA
HETATM   15  H   UNK N   1      34.103  16.793  11.342  0.00  0.00     0.212 HD
ENDBRANCH   1  14
BRANCH   1  16
HETATM   16  C   UNK N   1      35.157  15.283   8.535  0.00  0.00     0.192 C 
BRANCH  16  17
HETATM   17  N   UNK N   1      35.864  14.529   9.561  0.00  0.00    -0.348 N 
HETATM   18  C   UNK N   1      35.409  13.408  10.143  0.00  0.00     0.108 A 
HETATM   19  C   UNK N   1      36.357  13.001  11.059  0.00  0.00     0.106 A 
HETATM   20  N   UNK N   1      37.383  13.880  11.035  0.00  0.00    -0.361 N 
HETATM   21  C   UNK N   1      37.057  14.804  10.111  0.00  0.00     0.182 A 
ATOM     22  HN  UNK N   1      38.231  13.848  11.600  1.00  0.00     0.166 HD
ENDBRANCH  16  17
ENDBRANCH   1  16
TORSDOF 9
ENDMDL
MODEL 2
REMARK VINA RESULT:      -5.1      1.152      3.202
REMARK  9 active torsions:
REMARK  status: ('A' for Active; 'I' for Inactive)
REMARK    1  A    between atoms: P_1  and  O_6 
REMARK    2  A    between atoms: P_1  and  O_7 
REMARK    3  A    between atoms: P_1  and  C_13 
REMARK    4  A    between atoms: P_2  and  O_4 
REMARK    5  A    between atoms: P_2  and  O_5 
REMARK    6  A    between atoms: P_2  and  C_13 
REMARK    7  A    between atoms: O_3  and  C_13 
REMARK    8  A    between atoms: N_10  and  C_14 
REMARK    9  A    between atoms: C_13  and  C_14 
ROOT
HETATM    1  C   UNK N   1      34.622  16.166   8.948  0.00  0.00     0.268 C 
ENDROOT
BRANCH   1   2
HETATM    2  P   UNK N   1      33.047  15.207   9.183  0.00  0.00     0.285 P 
HETATM    3  O   UNK N   1      33.218  13.731   8.734  0.00  0.00    -0.651 OA
BRANCH   2   4
HETATM    4  O   UNK N   1      31.688  15.784   8.273  0.00  0.00    -0.327 OA
HETATM    5  H   UNK N   1      30.922  15.599   7.706  0.00  0.00     0.220 HD
ENDBRANCH   2   4
BRANCH   2   6
HETATM    6  O   UNK N   1      32.532  15.091  10.836  0.00  0.00    -0.327 OA
HETATM    7  H   UNK N   1      32.187  14.254  11.183  0.00  0.00     0.220 HD
ENDBRANCH   2   6
ENDBRANCH   1   2
BRANCH   1   8
HETATM    8  P   UNK N   1      34.239  17.777   8.085  0.00  0.00     0.285 P 
HETATM    9  O   UNK N   1      34.467  17.646   6.554  0.00  0.00    -0.651 OA
BRANCH   8  10
HETATM   10  O   UNK N   1      35.271  19.096   8.542  0.00  0.00    -0.327 OA
HETATM   11  H   UNK N   1      35.747  19.806   8.084  0.00  0.00     0.220 HD
ENDBRANCH   8  10
BRANCH   8  12
HETATM   12  O   UNK N   1      32.606  18.349   8.222  0.00  0.00    -0.327 OA
HETATM   13  H   UNK N   1      32.405  19.284   8.057  0.00  0.00     0.220 HD
ENDBRANCH   8  12
ENDBRANCH   1   8
BRANCH   1  14
HETATM   14  O   UNK N   1      35.490  15.409   8.158  0.00  0.00    -0.367 OA
HETATM   15  H   UNK N   1      35.914  14.591   7.852  0.00  0.00     0.212 HD
ENDBRANCH   1  14
BRANCH   1  16
HETATM   16  C   UNK N   1      35.214  16.405  10.339  0.00  0.00     0.192 C 
BRANCH  16  17
HETATM   17  N   UNK N   1      36.016  15.289  10.821  0.00  0.00    -0.348 N 
HETATM   18  C   UNK N   1      35.686  14.493  11.850  0.00  0.00     0.108 A 
HETATM   19  C   UNK N   1      36.696  13.565  12.000  0.00  0.00     0.106 A 
HETATM   20  N   UNK N   1      37.641  13.804  11.063  0.00  0.00    -0.361 N 
HETATM   21  C   UNK N   1      37.201  14.863  10.356  0.00  0.00     0.182 A 
ATOM     22  HN  UNK N   1      38.508  13.287  10.921  1.00  0.00     0.166 HD
ENDBRANCH  16  17
ENDBRANCH   1  16
TORSDOF 9
ENDMDL
MODEL 3
REMARK VINA RESULT:      -4.9      3.238      4.482
REMARK  9 active torsions:
REMARK  status: ('A' for Active; 'I' for Inactive)
REMARK    1  A    between atoms: P_1  and  O_6 
REMARK    2  A    between atoms: P_1  and  O_7 
REMARK    3  A    between atoms: P_1  and  C_13 
REMARK    4  A    between atoms: P_2  and  O_4 
REMARK    5  A    between atoms: P_2  and  O_5 
REMARK    6  A    between atoms: P_2  and  C_13 
REMARK    7  A    between atoms: O_3  and  C_13 
REMARK    8  A    between atoms: N_10  and  C_14 
REMARK    9  A    between atoms: C_13  and  C_14 
ROOT
HETATM    1  C   UNK N   1      36.334  14.521  10.773  0.00  0.00     0.268 C 
ENDROOT
BRANCH   1   2
HETATM    2  P   UNK N   1      34.812  15.514  10.386  0.00  0.00     0.285 P 
HETATM    3  O   UNK N   1      34.462  15.436   8.876  0.00  0.00    -0.651 OA
BRANCH   2   4
HETATM    4  O   UNK N   1      34.933  17.213  10.718  0.00  0.00    -0.327 OA
HETATM    5  H   UNK N   1      34.691  18.126  10.498  0.00  0.00     0.220 HD
ENDBRANCH   2   4
BRANCH   2   6
HETATM    6  O   UNK N   1      33.378  14.947  11.184  0.00  0.00    -0.327 OA
HETATM    7  H   UNK N   1      33.381  14.796  12.142  0.00  0.00     0.220 HD
ENDBRANCH   2   6
ENDBRANCH   1   2
BRANCH   1   8
HETATM    8  P   UNK N   1      36.273  13.968  12.556  0.00  0.00     0.285 P 
HETATM    9  O   UNK N   1      34.852  13.461  12.923  0.00  0.00    -0.651 OA
BRANCH   8  10
HETATM   10  O   UNK N   1      36.570  15.232  13.709  0.00  0.00    -0.327 OA
HETATM   11  H   UNK N   1      37.029  16.085  13.711  0.00  0.00     0.220 HD
ENDBRANCH   8  10
BRANCH   8  12
HETATM   12  O   UNK N   1      37.316  12.648  12.983  0.00  0.00    -0.327 OA
HETATM   13  H   UNK N   1      36.944  11.764  13.129  0.00  0.00     0.220 HD
ENDBRANCH   8  12
ENDBRANCH   1   8
BRANCH   1  14
HETATM   14  O   UNK N   1      37.455  15.331  10.575  0.00  0.00    -0.367 OA
HETATM   15  H   UNK N   1      38.398  15.557  10.626  0.00  0.00     0.212 HD
ENDBRANCH   1  14
BRANCH   1  16
HETATM   16  C   UNK N   1      36.346  13.325   9.817  0.00  0.00     0.192 C 
BRANCH  16  17
HETATM   17  N   UNK N   1      37.654  13.075   9.226  0.00  0.00    -0.348 N 
HETATM   18  C   UNK N   1      38.039  13.486   8.009  0.00  0.00     0.108 A 
HETATM   19  C   UNK N   1      39.333  13.051   7.812  0.00  0.00     0.106 A 
HETATM   20  N   UNK N   1      39.729  12.371   8.911  0.00  0.00    -0.361 N 
HETATM   21  C   UNK N   1      38.684  12.401   9.761  0.00  0.00     0.182 A 
ATOM     22  HN  UNK N   1      40.635  11.928   9.065  1.00  0.00     0.166 HD
ENDBRANCH  16  17
ENDBRANCH   1  16
TORSDOF 9
ENDMDL
MODEL 4
REMARK VINA RESULT:      -4.9      1.857      2.426
REMARK  9 active torsions:
REMARK  status: ('A' for Active; 'I' for Inactive)
REMARK    1  A    between atoms: P_1  and  O_6 
REMARK    2  A    between atoms: P_1  and  O_7 
REMARK    3  A    between atoms: P_1  and  C_13 
REMARK    4  A    between atoms: P_2  and  O_4 
REMARK    5  A    between atoms: P_2  and  O_5 
REMARK    6  A    between atoms: P_2  and  C_13 
REMARK    7  A    between atoms: O_3  and  C_13 
REMARK    8  A    between atoms: N_10  and  C_14 
REMARK    9  A    between atoms: C_13  and  C_14 
ROOT
HETATM    1  C   UNK N   1      34.048  14.798   9.846  0.00  0.00     0.268 C 
ENDROOT
BRANCH   1   2
HETATM    2  P   UNK N   1      34.142  16.494   9.093  0.00  0.00     0.285 P 
HETATM    3  O   UNK N   1      34.596  16.425   7.611  0.00  0.00    -0.651 OA
BRANCH   2   4
HETATM    4  O   UNK N   1      35.273  17.574   9.845  0.00  0.00    -0.327 OA
HETATM    5  H   UNK N   1      35.504  18.469  10.141  0.00  0.00     0.220 HD
ENDBRANCH   2   4
BRANCH   2   6
HETATM    6  O   UNK N   1      32.619  17.325   9.033  0.00  0.00    -0.327 OA
HETATM    7  H   UNK N   1      32.431  17.947   8.314  0.00  0.00     0.220 HD
ENDBRANCH   2   6
ENDBRANCH   1   2
BRANCH   1   8
HETATM    8  P   UNK N   1      33.150  13.652   8.676  0.00  0.00     0.285 P 
HETATM    9  O   UNK N   1      34.148  12.977   7.697  0.00  0.00    -0.651 OA
BRANCH   8  10
HETATM   10  O   UNK N   1      32.017  14.446   7.626  0.00  0.00    -0.327 OA
HETATM   11  H   UNK N   1      31.073  14.665   7.650  0.00  0.00     0.220 HD
ENDBRANCH   8  10
BRANCH   8  12
HETATM   12  O   UNK N   1      32.307  12.322   9.405  0.00  0.00    -0.327 OA
HETATM   13  H   UNK N   1      32.612  11.414   9.254  0.00  0.00     0.220 HD
ENDBRANCH   8  12
ENDBRANCH   1   8
BRANCH   1  14
HETATM   14  O   UNK N   1      33.342  14.883  11.048  0.00  0.00    -0.367 OA
HETATM   15  H   UNK N   1      32.549  14.859  11.606  0.00  0.00     0.212 HD
ENDBRANCH   1  14
BRANCH   1  16
HETATM   16  C   UNK N   1      35.487  14.333  10.087  0.00  0.00     0.192 C 
BRANCH  16  17
HETATM   17  N   UNK N   1      35.837  14.256  11.499  0.00  0.00    -0.348 N 
HETATM   18  C   UNK N   1      35.871  13.127  12.223  0.00  0.00     0.108 A 
HETATM   19  C   UNK N   1      36.238  13.467  13.508  0.00  0.00     0.106 A 
HETATM   20  N   UNK N   1      36.422  14.805  13.562  0.00  0.00    -0.361 N 
HETATM   21  C   UNK N   1      36.171  15.264  12.321  0.00  0.00     0.182 A 
ATOM     22  HN  UNK N   1      36.696  15.355  14.377  1.00  0.00     0.166 HD
ENDBRANCH  16  17
ENDBRANCH   1  16
TORSDOF 9
ENDMDL
MODEL 5
REMARK VINA RESULT:      -4.8      3.236      5.361
REMARK  9 active torsions:
REMARK  status: ('A' for Active; 'I' for Inactive)
REMARK    1  A    between atoms: P_1  and  O_6 
REMARK    2  A    between atoms: P_1  and  O_7 
REMARK    3  A    between atoms: P_1  and  C_13 
REMARK    4  A    between atoms: P_2  and  O_4 
REMARK    5  A    between atoms: P_2  and  O_5 
REMARK    6  A    between atoms: P_2  and  C_13 
REMARK    7  A    between atoms: O_3  and  C_13 
REMARK    8  A    between atoms: N_10  and  C_14 
REMARK    9  A    between atoms: C_13  and  C_14 
ROOT
HETATM    1  C   UNK N   1      34.605  14.677  10.332  0.00  0.00     0.268 C 
ENDROOT
BRANCH   1   2
HETATM    2  P   UNK N   1      34.961  12.853  10.340  0.00  0.00     0.285 P 
HETATM    3  O   UNK N   1      36.487  12.581  10.414  0.00  0.00    -0.651 OA
BRANCH   2   4
HETATM    4  O   UNK N   1      34.433  11.991   8.930  0.00  0.00    -0.327 OA
HETATM    5  H   UNK N   1      34.471  11.857   7.969  0.00  0.00     0.220 HD
ENDBRANCH   2   4
BRANCH   2   6
HETATM    6  O   UNK N   1      34.312  12.013  11.714  0.00  0.00    -0.327 OA
HETATM    7  H   UNK N   1      34.711  11.180  12.010  0.00  0.00     0.220 HD
ENDBRANCH   2   6
ENDBRANCH   1   2
BRANCH   1   8
HETATM    8  P   UNK N   1      36.086  15.598  10.999  0.00  0.00     0.285 P 
HETATM    9  O   UNK N   1      35.941  17.123  10.746  0.00  0.00    -0.651 OA
BRANCH   8  10
HETATM   10  O   UNK N   1      37.588  15.194  10.227  0.00  0.00    -0.327 OA
HETATM   11  H   UNK N   1      37.861  14.846   9.364  0.00  0.00     0.220 HD
ENDBRANCH   8  10
BRANCH   8  12
HETATM   12  O   UNK N   1      36.356  15.476  12.709  0.00  0.00    -0.327 OA
HETATM   13  H   UNK N   1      35.928  14.770  13.218  0.00  0.00     0.220 HD
ENDBRANCH   8  12
ENDBRANCH   1   8
BRANCH   1  14
HETATM   14  O   UNK N   1      33.499  14.918  11.150  0.00  0.00    -0.367 OA
HETATM   15  H   UNK N   1      32.711  15.402  11.445  0.00  0.00     0.212 HD
ENDBRANCH   1  14
BRANCH   1  16
HETATM   16  C   UNK N   1      34.310  15.070   8.882  0.00  0.00     0.192 C 
BRANCH  16  17
HETATM   17  N   UNK N   1      33.190  15.992   8.753  0.00  0.00    -0.348 N 
HETATM   18  C   UNK N   1      31.913  15.629   8.556  0.00  0.00     0.108 A 
HETATM   19  C   UNK N   1      31.159  16.782   8.482  0.00  0.00     0.106 A 
HETATM   20  N   UNK N   1      31.983  17.844   8.630  0.00  0.00    -0.361 N 
HETATM   21  C   UNK N   1      33.219  17.334   8.794  0.00  0.00     0.182 A 
ATOM     22  HN  UNK N   1      31.721  18.830   8.620  1.00  0.00     0.166 HD
ENDBRANCH  16  17
ENDBRANCH   1  16
TORSDOF 9
ENDMDL
MODEL 6
REMARK VINA RESULT:      -4.8     13.936     15.501
REMARK  9 active torsions:
REMARK  status: ('A' for Active; 'I' for Inactive)
REMARK    1  A    between atoms: P_1  and  O_6 
REMARK    2  A    between atoms: P_1  and  O_7 
REMARK    3  A    between atoms: P_1  and  C_13 
REMARK    4  A    between atoms: P_2  and  O_4 
REMARK    5  A    between atoms: P_2  and  O_5 
REMARK    6  A    between atoms: P_2  and  C_13 
REMARK    7  A    between atoms: O_3  and  C_13 
REMARK    8  A    between atoms: N_10  and  C_14 
REMARK    9  A    between atoms: C_13  and  C_14 
ROOT
HETATM    1  C   UNK N   1      20.552  17.164   2.743  0.00  0.00     0.268 C 
ENDROOT
BRANCH   1   2
HETATM    2  P   UNK N   1      20.332  16.251   1.140  0.00  0.00     0.285 P 
HETATM    3  O   UNK N   1      21.539  15.317   0.857  0.00  0.00    -0.651 OA
BRANCH   2   4
HETATM    4  O   UNK N   1      20.218  17.254  -0.272  0.00  0.00    -0.327 OA
HETATM    5  H   UNK N   1      19.771  17.479  -1.104  0.00  0.00     0.220 HD
ENDBRANCH   2   4
BRANCH   2   6
HETATM    6  O   UNK N   1      18.958  15.191   1.114  0.00  0.00    -0.327 OA
HETATM    7  H   UNK N   1      18.692  14.756   0.289  0.00  0.00     0.220 HD
ENDBRANCH   2   6
ENDBRANCH   1   2
BRANCH   1   8
HETATM    8  P   UNK N   1      19.886  18.900   2.561  0.00  0.00     0.285 P 
HETATM    9  O   UNK N   1      20.223  19.749   3.816  0.00  0.00    -0.651 OA
BRANCH   8  10
HETATM   10  O   UNK N   1      18.156  18.995   2.452  0.00  0.00    -0.327 OA
HETATM   11  H   UNK N   1      17.513  19.411   1.857  0.00  0.00     0.220 HD
ENDBRANCH   8  10
BRANCH   8  12
HETATM   12  O   UNK N   1      20.522  19.828   1.239  0.00  0.00    -0.327 OA
HETATM   13  H   UNK N   1      21.129  20.564   1.411  0.00  0.00     0.220 HD
ENDBRANCH   8  12
ENDBRANCH   1   8
BRANCH   1  14
HETATM   14  O   UNK N   1      21.915  17.217   3.042  0.00  0.00    -0.367 OA
HETATM   15  H   UNK N   1      22.729  17.633   3.366  0.00  0.00     0.212 HD
ENDBRANCH   1  14
BRANCH   1  16
HETATM   16  C   UNK N   1      19.786  16.383   3.814  0.00  0.00     0.192 C 
BRANCH  16  17
HETATM   17  N   UNK N   1      20.556  16.169   5.031  0.00  0.00    -0.348 N 
HETATM   18  C   UNK N   1      21.221  15.044   5.333  0.00  0.00     0.108 A 
HETATM   19  C   UNK N   1      21.816  15.229   6.564  0.00  0.00     0.106 A 
HETATM   20  N   UNK N   1      21.506  16.467   7.009  0.00  0.00    -0.361 N 
HETATM   21  C   UNK N   1      20.735  17.021   6.053  0.00  0.00     0.182 A 
ATOM     22  HN  UNK N   1      21.798  16.894   7.888  1.00  0.00     0.166 HD
ENDBRANCH  16  17
ENDBRANCH   1  16
TORSDOF 9
ENDMDL
MODEL 7
REMARK VINA RESULT:      -4.8     11.964     13.850
REMARK  9 active torsions:
REMARK  status: ('A' for Active; 'I' for Inactive)
REMARK    1  A    between atoms: P_1  and  O_6 
REMARK    2  A    between atoms: P_1  and  O_7 
REMARK    3  A    between atoms: P_1  and  C_13 
REMARK    4  A    between atoms: P_2  and  O_4 
REMARK    5  A    between atoms: P_2  and  O_5 
REMARK    6  A    between atoms: P_2  and  C_13 
REMARK    7  A    between atoms: O_3  and  C_13 
REMARK    8  A    between atoms: N_10  and  C_14 
REMARK    9  A    between atoms: C_13  and  C_14 
ROOT
HETATM    1  C   UNK N   1      43.590  22.850   2.388  0.00  0.00     0.268 C 
ENDROOT
BRANCH   1   2
HETATM    2  P   UNK N   1      44.401  21.941   3.791  0.00  0.00     0.285 P 
HETATM    3  O   UNK N   1      43.574  22.075   5.098  0.00  0.00    -0.651 OA
BRANCH   2   4
HETATM    4  O   UNK N   1      45.985  22.505   4.219  0.00  0.00    -0.327 OA
HETATM    5  H   UNK N   1      46.948  22.460   4.103  0.00  0.00     0.220 HD
ENDBRANCH   2   4
BRANCH   2   6
HETATM    6  O   UNK N   1      44.528  20.228   3.542  0.00  0.00    -0.327 OA
HETATM    7  H   UNK N   1      45.038  19.681   4.160  0.00  0.00     0.220 HD
ENDBRANCH   2   6
ENDBRANCH   1   2
BRANCH   1   8
HETATM    8  P   UNK N   1      44.835  23.992   1.591  0.00  0.00     0.285 P 
HETATM    9  O   UNK N   1      44.116  25.135   0.825  0.00  0.00    -0.651 OA
BRANCH   8  10
HETATM   10  O   UNK N   1      45.822  23.240   0.377  0.00  0.00    -0.327 OA
HETATM   11  H   UNK N   1      45.704  22.944  -0.539  0.00  0.00     0.220 HD
ENDBRANCH   8  10
BRANCH   8  12
HETATM   12  O   UNK N   1      45.914  24.818   2.670  0.00  0.00    -0.327 OA
HETATM   13  H   UNK N   1      46.738  25.202   2.332  0.00  0.00     0.220 HD
ENDBRANCH   8  12
ENDBRANCH   1   8
BRANCH   1  14
HETATM   14  O   UNK N   1      42.528  23.600   2.898  0.00  0.00    -0.367 OA
HETATM   15  H   UNK N   1      42.125  24.352   3.361  0.00  0.00     0.212 HD
ENDBRANCH   1  14
BRANCH   1  16
HETATM   16  C   UNK N   1      43.089  21.794   1.399  0.00  0.00     0.192 C 
BRANCH  16  17
HETATM   17  N   UNK N   1      41.699  21.417   1.616  0.00  0.00    -0.348 N 
HETATM   18  C   UNK N   1      40.698  21.637   0.750  0.00  0.00     0.108 A 
HETATM   19  C   UNK N   1      39.541  21.145   1.317  0.00  0.00     0.106 A 
HETATM   20  N   UNK N   1      39.842  20.631   2.530  0.00  0.00    -0.361 N 
HETATM   21  C   UNK N   1      41.168  20.810   2.689  0.00  0.00     0.182 A 
ATOM     22  HN  UNK N   1      39.197  20.195   3.190  1.00  0.00     0.166 HD
ENDBRANCH  16  17
ENDBRANCH   1  16
TORSDOF 9
ENDMDL
MODEL 8
REMARK VINA RESULT:      -4.7      3.729      4.984
REMARK  9 active torsions:
REMARK  status: ('A' for Active; 'I' for Inactive)
REMARK    1  A    between atoms: P_1  and  O_6 
REMARK    2  A    between atoms: P_1  and  O_7 
REMARK    3  A    between atoms: P_1  and  C_13 
REMARK    4  A    between atoms: P_2  and  O_4 
REMARK    5  A    between atoms: P_2  and  O_5 
REMARK    6  A    between atoms: P_2  and  C_13 
REMARK    7  A    between atoms: O_3  and  C_13 
REMARK    8  A    between atoms: N_10  and  C_14 
REMARK    9  A    between atoms: C_13  and  C_14 
ROOT
HETATM    1  C   UNK N   1      35.978  14.192  11.787  0.00  0.00     0.268 C 
ENDROOT
BRANCH   1   2
HETATM    2  P   UNK N   1      37.270  13.596  10.592  0.00  0.00     0.285 P 
HETATM    3  O   UNK N   1      38.266  12.625  11.282  0.00  0.00    -0.651 OA
BRANCH   2   4
HETATM    4  O   UNK N   1      38.275  14.836   9.911  0.00  0.00    -0.327 OA
HETATM    5  H   UNK N   1      38.381  15.751   9.604  0.00  0.00     0.220 HD
ENDBRANCH   2   4
BRANCH   2   6
HETATM    6  O   UNK N   1      36.634  12.679   9.263  0.00  0.00    -0.327 OA
HETATM    7  H   UNK N   1      37.210  12.083   8.760  0.00  0.00     0.220 HD
ENDBRANCH   2   6
ENDBRANCH   1   2
BRANCH   1   8
HETATM    8  P   UNK N   1      34.795  15.332  10.898  0.00  0.00     0.285 P 
HETATM    9  O   UNK N   1      35.036  15.283   9.365  0.00  0.00    -0.651 OA
BRANCH   8  10
HETATM   10  O   UNK N   1      34.990  17.012  11.291  0.00  0.00    -0.327 OA
HETATM   11  H   UNK N   1      34.884  17.857  10.828  0.00  0.00     0.220 HD
ENDBRANCH   8  10
BRANCH   8  12
HETATM   12  O   UNK N   1      33.107  14.970  11.074  0.00  0.00    -0.327 OA
HETATM   13  H   UNK N   1      32.463  15.691  11.157  0.00  0.00     0.220 HD
ENDBRANCH   8  12
ENDBRANCH   1   8
BRANCH   1  14
HETATM   14  O   UNK N   1      36.613  14.889  12.817  0.00  0.00    -0.367 OA
HETATM   15  H   UNK N   1      37.266  15.013  13.524  0.00  0.00     0.212 HD
ENDBRANCH   1  14
BRANCH   1  16
HETATM   16  C   UNK N   1      35.259  12.952  12.326  0.00  0.00     0.192 C 
BRANCH  16  17
HETATM   17  N   UNK N   1      35.637  12.618  13.692  0.00  0.00    -0.348 N 
HETATM   18  C   UNK N   1      36.580  11.726  14.033  0.00  0.00     0.108 A 
HETATM   19  C   UNK N   1      36.638  11.688  15.411  0.00  0.00     0.106 A 
HETATM   20  N   UNK N   1      35.725  12.554  15.904  0.00  0.00    -0.361 N 
HETATM   21  C   UNK N   1      35.127  13.110  14.832  0.00  0.00     0.182 A 
ATOM     22  HN  UNK N   1      35.531  12.748  16.886  1.00  0.00     0.166 HD
ENDBRANCH  16  17
ENDBRANCH   1  16
TORSDOF 9
ENDMDL
MODEL 9
REMARK VINA RESULT:      -4.7      3.559      5.462
REMARK  9 active torsions:
REMARK  status: ('A' for Active; 'I' for Inactive)
REMARK    1  A    between atoms: P_1  and  O_6 
REMARK    2  A    between atoms: P_1  and  O_7 
REMARK    3  A    between atoms: P_1  and  C_13 
REMARK    4  A    between atoms: P_2  and  O_4 
REMARK    5  A    between atoms: P_2  and  O_5 
REMARK    6  A    between atoms: P_2  and  C_13 
REMARK    7  A    between atoms: O_3  and  C_13 
REMARK    8  A    between atoms: N_10  and  C_14 
REMARK    9  A    between atoms: C_13  and  C_14 
ROOT
HETATM    1  C   UNK N   1      33.120  16.569   8.579  0.00  0.00     0.268 C 
ENDROOT
BRANCH   1   2
HETATM    2  P   UNK N   1      34.189  15.537   9.694  0.00  0.00     0.285 P 
HETATM    3  O   UNK N   1      35.407  16.349  10.212  0.00  0.00    -0.651 OA
BRANCH   2   4
HETATM    4  O   UNK N   1      34.887  14.131   8.954  0.00  0.00    -0.327 OA
HETATM    5  H   UNK N   1      35.630  13.712   8.491  0.00  0.00     0.220 HD
ENDBRANCH   2   4
BRANCH   2   6
HETATM    6  O   UNK N   1      33.391  15.000  11.139  0.00  0.00    -0.327 OA
HETATM    7  H   UNK N   1      33.724  14.229  11.623  0.00  0.00     0.220 HD
ENDBRANCH   2   6
ENDBRANCH   1   2
BRANCH   1   8
HETATM    8  P   UNK N   1      33.899  16.656   6.884  0.00  0.00     0.285 P 
HETATM    9  O   UNK N   1      34.347  18.108   6.562  0.00  0.00    -0.651 OA
BRANCH   8  10
HETATM   10  O   UNK N   1      32.823  16.260   5.581  0.00  0.00    -0.327 OA
HETATM   11  H   UNK N   1      31.974  16.590   5.246  0.00  0.00     0.220 HD
ENDBRANCH   8  10
BRANCH   8  12
HETATM   12  O   UNK N   1      35.334  15.708   6.652  0.00  0.00    -0.327 OA
HETATM   13  H   UNK N   1      35.961  15.941   5.950  0.00  0.00     0.220 HD
ENDBRANCH   8  12
ENDBRANCH   1   8
BRANCH   1  14
HETATM   14  O   UNK N   1      33.028  17.855   9.116  0.00  0.00    -0.367 OA
HETATM   15  H   UNK N   1      32.712  18.772   9.155  0.00  0.00     0.212 HD
ENDBRANCH   1  14
BRANCH   1  16
HETATM   16  C   UNK N   1      31.745  15.898   8.528  0.00  0.00     0.192 C 
BRANCH  16  17
HETATM   17  N   UNK N   1      30.642  16.848   8.499  0.00  0.00    -0.348 N 
HETATM   18  C   UNK N   1      29.921  17.222   9.567  0.00  0.00     0.108 A 
HETATM   19  C   UNK N   1      28.972  18.125   9.133  0.00  0.00     0.106 A 
HETATM   20  N   UNK N   1      29.116  18.293   7.800  0.00  0.00    -0.361 N 
HETATM   21  C   UNK N   1      30.144  17.501   7.437  0.00  0.00     0.182 A 
ATOM     22  HN  UNK N   1      28.561  18.896   7.194  1.00  0.00     0.166 HD
ENDBRANCH  16  17
ENDBRANCH   1  16
TORSDOF 9
ENDMDL
