MODEL 1
REMARK VINA RESULT:      -8.9      0.000      0.000
REMARK  6 active torsions:
REMARK  status: ('A' for Active; 'I' for Inactive)
REMARK    1  A    between atoms: O_1  and  C_22 
REMARK    2  A    between atoms: O_1  and  C_39 
REMARK    3  A    between atoms: C_27  and  O_4 
REMARK    4  A    between atoms: N_7  and  C_12 
REMARK       I    between atoms: N_8  and  C_22 
REMARK    5  A    between atoms: C_27  and  C_34 
REMARK    6  A    between atoms: C_30  and  C_38 
ROOT
HETATM    1  O   UNK N   1      25.405  17.897   3.459  0.00  0.00    -0.314 OA
HETATM    2  O   UNK N   1      28.161  14.775   2.818  0.00  0.00    -0.267 OA
HETATM    3  O   UNK N   1      24.864  19.746   4.571  0.00  0.00    -0.261 OA
HETATM    4  N   UNK N   1      29.721  15.774   4.109  0.00  0.00    -0.307 N 
HETATM    5  N   UNK N   1      31.840  17.560   6.263  0.00  0.00    -0.353 N 
ATOM      6  HN  UNK N   1      31.425  18.482   6.389  1.00  0.00     0.166 HD
HETATM    7  C   UNK N   1      30.055  16.831   4.851  0.00  0.00     0.065 A 
HETATM    8  C   UNK N   1      31.780  15.452   5.134  0.00  0.00    -0.004 A 
HETATM    9  C   UNK N   1      30.820  14.767   4.147  0.00  0.00     0.174 A 
HETATM   10  C   UNK N   1      27.939  17.848   4.624  0.00  0.00     0.002 A 
HETATM   11  C   UNK N   1      27.010  18.941   5.076  0.00  0.00     0.173 C 
HETATM   12  C   UNK N   1      31.288  16.683   5.423  0.00  0.00     0.068 A 
HETATM   13  C   UNK N   1      27.557  16.798   3.754  0.00  0.00     0.044 A 
HETATM   14  C   UNK N   1      32.937  15.020   5.815  0.00  0.00    -0.036 A 
HETATM   15  C   UNK N   1      29.205  17.850   5.151  0.00  0.00     0.043 A 
HETATM   16  C   UNK N   1      28.478  15.728   3.511  0.00  0.00     0.257 A 
HETATM   17  C   UNK N   1      33.510  15.921   6.778  0.00  0.00     0.000 A 
HETATM   18  C   UNK N   1      26.185  16.790   3.150  0.00  0.00     0.224 C 
HETATM   19  C   UNK N   1      32.939  17.219   6.937  0.00  0.00     0.043 A 
HETATM   20  C   UNK N   1      25.702  18.887   4.342  0.00  0.00     0.298 C 
HETATM   21  C   UNK N   1      35.056  16.512   8.552  0.00  0.00     0.082 A 
HETATM   22  C   UNK N   1      34.577  15.573   7.616  0.00  0.00     0.051 A 
HETATM   23  C   UNK N   1      33.449  18.138   7.834  0.00  0.00     0.033 A 
HETATM   24  C   UNK N   1      34.508  17.793   8.630  0.00  0.00     0.040 A 
ENDROOT
BRANCH  21  25
HETATM   25  O   UNK N   1      36.053  16.195   9.383  0.00  0.00    -0.261 OA
BRANCH  25  26
HETATM   26  C   UNK N   1      35.786  16.005  10.692  0.00  0.00     0.368 C 
HETATM   27  O   UNK N   1      34.937  16.685  11.250  0.00  0.00    -0.238 OA
HETATM   28  N   UNK N   1      36.415  14.994  11.343  0.00  0.00    -0.328 N 
HETATM   29  C   UNK N   1      37.188  14.056  10.577  0.00  0.00     0.130 C 
HETATM   30  C   UNK N   1      35.915  14.527  12.600  0.00  0.00     0.130 C 
HETATM   31  C   UNK N   1      36.172  13.075  10.013  0.00  0.00     0.056 C 
HETATM   32  C   UNK N   1      35.320  12.476  11.152  0.00  0.00     0.226 C 
HETATM   33  C   UNK N   1      34.852  13.493  12.244  0.00  0.00     0.056 C 
BRANCH  32  34
HETATM   34  N   UNK N   1      35.955  11.254  11.663  0.00  0.00     0.093 N 
HETATM   35  C   UNK N   1      35.992  10.272  10.569  0.00  0.00     0.273 C 
HETATM   36  C   UNK N   1      34.579   9.864  10.127  0.00  0.00     0.030 C 
HETATM   37  C   UNK N   1      33.815   9.290  11.315  0.00  0.00     0.003 C 
HETATM   38  C   UNK N   1      33.823  10.267  12.481  0.00  0.00     0.030 C 
HETATM   39  C   UNK N   1      35.262  10.664  12.820  0.00  0.00     0.273 C 
ENDBRANCH  32  34
ENDBRANCH  25  26
ENDBRANCH  21  25
BRANCH  14  40
HETATM   40  C   UNK N   1      33.472  13.637   5.586  0.00  0.00     0.036 C 
HETATM   41  C   UNK N   1      34.519  13.632   4.484  0.00  0.00     0.010 C 
ENDBRANCH  14  40
BRANCH  11  42
HETATM   42  O   UNK N   1      26.744  18.758   6.439  0.00  0.00    -0.375 OA
HETATM   43  H   UNK N   1      26.445  18.294   7.238  0.00  0.00     0.211 HD
ENDBRANCH  11  42
BRANCH  11  44
HETATM   44  C   UNK N   1      27.646  20.333   4.879  0.00  0.00     0.049 C 
HETATM   45  C   UNK N   1      27.438  21.268   6.076  0.00  0.00     0.009 C 
ENDBRANCH  11  44
TORSDOF 6
ENDMDL
MODEL 2
REMARK VINA RESULT:      -8.8      7.307     11.689
REMARK  6 active torsions:
REMARK  status: ('A' for Active; 'I' for Inactive)
REMARK    1  A    between atoms: O_1  and  C_22 
REMARK    2  A    between atoms: O_1  and  C_39 
REMARK    3  A    between atoms: C_27  and  O_4 
REMARK    4  A    between atoms: N_7  and  C_12 
REMARK       I    between atoms: N_8  and  C_22 
REMARK    5  A    between atoms: C_27  and  C_34 
REMARK    6  A    between atoms: C_30  and  C_38 
ROOT
HETATM    1  O   UNK N   1      34.408  13.814   8.158  0.00  0.00    -0.314 OA
HETATM    2  O   UNK N   1      35.794  10.298  10.020  0.00  0.00    -0.267 OA
HETATM    3  O   UNK N   1      33.575  15.866   8.369  0.00  0.00    -0.261 OA
HETATM    4  N   UNK N   1      35.776  11.270  12.058  0.00  0.00    -0.307 N 
HETATM    5  N   UNK N   1      35.509  13.071  15.059  0.00  0.00    -0.353 N 
ATOM      6  HN  UNK N   1      35.367  14.049  14.806  1.00  0.00     0.166 HD
HETATM    7  C   UNK N   1      35.559  12.375  12.773  0.00  0.00     0.065 A 
HETATM    8  C   UNK N   1      35.981  10.842  14.332  0.00  0.00    -0.004 A 
HETATM    9  C   UNK N   1      36.136  10.146  12.969  0.00  0.00     0.174 A 
HETATM   10  C   UNK N   1      34.809  13.613  10.911  0.00  0.00     0.002 A 
HETATM   11  C   UNK N   1      34.156  14.874  10.415  0.00  0.00     0.173 C 
HETATM   12  C   UNK N   1      35.725  12.156  14.113  0.00  0.00     0.068 A 
HETATM   13  C   UNK N   1      35.106  12.501  10.086  0.00  0.00     0.044 A 
HETATM   14  C   UNK N   1      35.961  10.371  15.661  0.00  0.00    -0.036 A 
HETATM   15  C   UNK N   1      35.059  13.530  12.257  0.00  0.00     0.043 A 
HETATM   16  C   UNK N   1      35.588  11.296  10.691  0.00  0.00     0.257 A 
HETATM   17  C   UNK N   1      35.660  11.327  16.693  0.00  0.00     0.000 A 
HETATM   18  C   UNK N   1      34.861  12.581   8.609  0.00  0.00     0.224 C 
HETATM   19  C   UNK N   1      35.481  12.697  16.339  0.00  0.00     0.043 A 
HETATM   20  C   UNK N   1      34.043  14.880   8.919  0.00  0.00     0.298 C 
HETATM   21  C   UNK N   1      35.158  11.974  18.977  0.00  0.00     0.082 A 
HETATM   22  C   UNK N   1      35.479  10.974  18.038  0.00  0.00     0.051 A 
HETATM   23  C   UNK N   1      35.205  13.667  17.282  0.00  0.00     0.033 A 
HETATM   24  C   UNK N   1      35.054  13.312  18.596  0.00  0.00     0.040 A 
ENDROOT
BRANCH  21  25
HETATM   25  O   UNK N   1      34.950  11.661  20.259  0.00  0.00    -0.261 OA
BRANCH  25  26
HETATM   26  C   UNK N   1      35.567  10.581  20.783  0.00  0.00     0.368 C 
HETATM   27  O   UNK N   1      36.779  10.582  20.937  0.00  0.00    -0.238 OA
HETATM   28  N   UNK N   1      34.805   9.541  21.209  0.00  0.00    -0.328 N 
HETATM   29  C   UNK N   1      33.379   9.706  21.261  0.00  0.00     0.130 C 
HETATM   30  C   UNK N   1      35.362   8.553  22.082  0.00  0.00     0.130 C 
HETATM   31  C   UNK N   1      33.115  10.447  22.562  0.00  0.00     0.056 C 
HETATM   32  C   UNK N   1      33.750   9.688  23.747  0.00  0.00     0.226 C 
HETATM   33  C   UNK N   1      35.183   9.120  23.486  0.00  0.00     0.056 C 
BRANCH  32  34
HETATM   34  N   UNK N   1      32.785   8.729  24.300  0.00  0.00     0.093 N 
HETATM   35  C   UNK N   1      31.562   9.467  24.652  0.00  0.00     0.273 C 
HETATM   36  C   UNK N   1      31.824  10.496  25.762  0.00  0.00     0.030 C 
HETATM   37  C   UNK N   1      32.379   9.793  26.995  0.00  0.00     0.003 C 
HETATM   38  C   UNK N   1      33.607   8.969  26.636  0.00  0.00     0.030 C 
HETATM   39  C   UNK N   1      33.276   8.011  25.489  0.00  0.00     0.273 C 
ENDBRANCH  32  34
ENDBRANCH  25  26
ENDBRANCH  21  25
BRANCH  14  40
HETATM   40  C   UNK N   1      36.161   8.912  15.946  0.00  0.00     0.036 C 
HETATM   41  C   UNK N   1      37.637   8.576  16.067  0.00  0.00     0.010 C 
ENDBRANCH  14  40
BRANCH  11  42
HETATM   42  O   UNK N   1      32.861  14.937  10.944  0.00  0.00    -0.375 OA
HETATM   43  H   UNK N   1      32.165  14.869  11.617  0.00  0.00     0.211 HD
ENDBRANCH  11  42
BRANCH  11  44
HETATM   44  C   UNK N   1      34.938  16.125  10.871  0.00  0.00     0.049 C 
HETATM   45  C   UNK N   1      36.437  16.047  10.563  0.00  0.00     0.009 C 
ENDBRANCH  11  44
TORSDOF 6
ENDMDL
MODEL 3
REMARK VINA RESULT:      -8.7      3.399      6.369
REMARK  6 active torsions:
REMARK  status: ('A' for Active; 'I' for Inactive)
REMARK    1  A    between atoms: O_1  and  C_22 
REMARK    2  A    between atoms: O_1  and  C_39 
REMARK    3  A    between atoms: C_27  and  O_4 
REMARK    4  A    between atoms: N_7  and  C_12 
REMARK       I    between atoms: N_8  and  C_22 
REMARK    5  A    between atoms: C_27  and  C_34 
REMARK    6  A    between atoms: C_30  and  C_38 
ROOT
HETATM    1  O   UNK N   1      19.695  17.063   2.076  0.00  0.00    -0.314 OA
HETATM    2  O   UNK N   1      22.055  20.374   3.182  0.00  0.00    -0.267 OA
HETATM    3  O   UNK N   1      19.519  14.858   1.840  0.00  0.00    -0.261 OA
HETATM    4  N   UNK N   1      23.656  19.047   4.059  0.00  0.00    -0.307 N 
HETATM    5  N   UNK N   1      25.972  16.674   5.213  0.00  0.00    -0.353 N 
ATOM      6  HN  UNK N   1      25.496  15.773   5.216  1.00  0.00     0.166 HD
HETATM    7  C   UNK N   1      24.054  17.805   4.344  0.00  0.00     0.065 A 
HETATM    8  C   UNK N   1      25.819  19.041   4.907  0.00  0.00    -0.004 A 
HETATM    9  C   UNK N   1      24.724  20.015   4.440  0.00  0.00     0.174 A 
HETATM   10  C   UNK N   1      22.182  16.808   3.313  0.00  0.00     0.002 A 
HETATM   11  C   UNK N   1      21.535  15.538   2.832  0.00  0.00     0.173 C 
HETATM   12  C   UNK N   1      25.307  17.785   4.892  0.00  0.00     0.068 A 
HETATM   13  C   UNK N   1      21.663  18.101   3.064  0.00  0.00     0.044 A 
HETATM   14  C   UNK N   1      27.184  19.202   5.225  0.00  0.00    -0.036 A 
HETATM   15  C   UNK N   1      23.379  16.685   3.972  0.00  0.00     0.043 A 
HETATM   16  C   UNK N   1      22.440  19.245   3.438  0.00  0.00     0.257 A 
HETATM   17  C   UNK N   1      27.939  18.010   5.505  0.00  0.00     0.000 A 
HETATM   18  C   UNK N   1      20.346  18.255   2.366  0.00  0.00     0.224 C 
HETATM   19  C   UNK N   1      27.265  16.752   5.529  0.00  0.00     0.043 A 
HETATM   20  C   UNK N   1      20.186  15.805   2.232  0.00  0.00     0.298 C 
HETATM   21  C   UNK N   1      29.987  16.788   5.948  0.00  0.00     0.082 A 
HETATM   22  C   UNK N   1      29.325  18.009   5.707  0.00  0.00     0.051 A 
HETATM   23  C   UNK N   1      27.928  15.573   5.805  0.00  0.00     0.033 A 
HETATM   24  C   UNK N   1      29.280  15.589   6.025  0.00  0.00     0.040 A 
ENDROOT
BRANCH  21  25
HETATM   25  O   UNK N   1      31.313  16.756   6.114  0.00  0.00    -0.261 OA
BRANCH  25  26
HETATM   26  C   UNK N   1      31.848  17.248   7.250  0.00  0.00     0.368 C 
HETATM   27  O   UNK N   1      31.121  17.627   8.156  0.00  0.00    -0.238 OA
HETATM   28  N   UNK N   1      33.198  17.231   7.393  0.00  0.00    -0.328 N 
HETATM   29  C   UNK N   1      33.985  16.522   6.422  0.00  0.00     0.130 C 
HETATM   30  C   UNK N   1      33.786  17.397   8.687  0.00  0.00     0.130 C 
HETATM   31  C   UNK N   1      33.911  15.063   6.842  0.00  0.00     0.056 C 
HETATM   32  C   UNK N   1      34.354  14.908   8.313  0.00  0.00     0.226 C 
HETATM   33  C   UNK N   1      33.811  15.998   9.293  0.00  0.00     0.056 C 
BRANCH  32  34
HETATM   34  N   UNK N   1      35.802  14.671   8.376  0.00  0.00     0.093 N 
HETATM   35  C   UNK N   1      36.089  13.420   7.657  0.00  0.00     0.273 C 
HETATM   36  C   UNK N   1      35.429  12.213   8.340  0.00  0.00     0.030 C 
HETATM   37  C   UNK N   1      35.917  12.107   9.780  0.00  0.00     0.003 C 
HETATM   38  C   UNK N   1      35.689  13.416  10.521  0.00  0.00     0.030 C 
HETATM   39  C   UNK N   1      36.328  14.572   9.748  0.00  0.00     0.273 C 
ENDBRANCH  32  34
ENDBRANCH  25  26
ENDBRANCH  21  25
BRANCH  14  40
HETATM   40  C   UNK N   1      27.812  20.562   5.177  0.00  0.00     0.036 C 
HETATM   41  C   UNK N   1      27.447  21.377   6.406  0.00  0.00     0.010 C 
ENDBRANCH  14  40
BRANCH  11  42
HETATM   42  O   UNK N   1      22.345  14.981   1.834  0.00  0.00    -0.375 OA
HETATM   43  H   UNK N   1      22.736  14.882   0.952  0.00  0.00     0.211 HD
ENDBRANCH  11  42
BRANCH  11  44
HETATM   44  C   UNK N   1      21.389  14.515   3.978  0.00  0.00     0.049 C 
HETATM   45  C   UNK N   1      20.445  14.984   5.091  0.00  0.00     0.009 C 
ENDBRANCH  11  44
TORSDOF 6
ENDMDL
MODEL 4
REMARK VINA RESULT:      -8.6      6.876     14.140
REMARK  6 active torsions:
REMARK  status: ('A' for Active; 'I' for Inactive)
REMARK    1  A    between atoms: O_1  and  C_22 
REMARK    2  A    between atoms: O_1  and  C_39 
REMARK    3  A    between atoms: C_27  and  O_4 
REMARK    4  A    between atoms: N_7  and  C_12 
REMARK       I    between atoms: N_8  and  C_22 
REMARK    5  A    between atoms: C_27  and  C_34 
REMARK    6  A    between atoms: C_30  and  C_38 
ROOT
HETATM    1  O   UNK N   1      32.332   6.548  22.741  0.00  0.00    -0.314 OA
HETATM    2  O   UNK N   1      34.679  10.046  22.622  0.00  0.00    -0.267 OA
HETATM    3  O   UNK N   1      31.091   5.063  21.644  0.00  0.00    -0.261 OA
HETATM    4  N   UNK N   1      34.680  10.069  20.364  0.00  0.00    -0.307 N 
HETATM    5  N   UNK N   1      34.366   9.842  16.875  0.00  0.00    -0.353 N 
ATOM      6  HN  UNK N   1      33.979   8.921  16.672  1.00  0.00     0.166 HD
HETATM    7  C   UNK N   1      34.305   9.466  19.234  0.00  0.00     0.065 A 
HETATM    8  C   UNK N   1      35.238  11.354  18.511  0.00  0.00    -0.004 A 
HETATM    9  C   UNK N   1      35.385  11.343  20.042  0.00  0.00     0.174 A 
HETATM   10  C   UNK N   1      33.085   7.789  20.359  0.00  0.00     0.002 A 
HETATM   11  C   UNK N   1      32.113   6.647  20.246  0.00  0.00     0.173 C 
HETATM   12  C   UNK N   1      34.670  10.183  18.129  0.00  0.00     0.068 A 
HETATM   13  C   UNK N   1      33.526   8.331  21.590  0.00  0.00     0.044 A 
HETATM   14  C   UNK N   1      35.478  12.332  17.524  0.00  0.00    -0.036 A 
HETATM   15  C   UNK N   1      33.502   8.369  19.187  0.00  0.00     0.043 A 
HETATM   16  C   UNK N   1      34.333   9.514  21.579  0.00  0.00     0.257 A 
HETATM   17  C   UNK N   1      35.093  12.015  16.175  0.00  0.00     0.000 A 
HETATM   18  C   UNK N   1      33.099   7.697  22.880  0.00  0.00     0.224 C 
HETATM   19  C   UNK N   1      34.571  10.718  15.890  0.00  0.00     0.043 A 
HETATM   20  C   UNK N   1      31.828   6.036  21.586  0.00  0.00     0.298 C 
HETATM   21  C   UNK N   1      34.727  12.547  13.837  0.00  0.00     0.082 A 
HETATM   22  C   UNK N   1      35.153  12.937  15.122  0.00  0.00     0.051 A 
HETATM   23  C   UNK N   1      34.196  10.344  14.615  0.00  0.00     0.033 A 
HETATM   24  C   UNK N   1      34.282  11.248  13.589  0.00  0.00     0.040 A 
ENDROOT
BRANCH  21  25
HETATM   25  O   UNK N   1      34.745  13.415  12.822  0.00  0.00    -0.261 OA
BRANCH  25  26
HETATM   26  C   UNK N   1      35.859  13.527  12.069  0.00  0.00     0.368 C 
HETATM   27  O   UNK N   1      36.695  12.637  12.075  0.00  0.00    -0.238 OA
HETATM   28  N   UNK N   1      35.983  14.602  11.249  0.00  0.00    -0.328 N 
HETATM   29  C   UNK N   1      34.852  15.470  11.073  0.00  0.00     0.130 C 
HETATM   30  C   UNK N   1      36.944  14.589  10.188  0.00  0.00     0.130 C 
HETATM   31  C   UNK N   1      33.976  14.772  10.045  0.00  0.00     0.056 C 
HETATM   32  C   UNK N   1      34.791  14.461   8.772  0.00  0.00     0.226 C 
HETATM   33  C   UNK N   1      36.234  13.914   9.019  0.00  0.00     0.056 C 
BRANCH  32  34
HETATM   34  N   UNK N   1      34.698  15.585   7.831  0.00  0.00     0.093 N 
HETATM   35  C   UNK N   1      33.274  15.905   7.646  0.00  0.00     0.273 C 
HETATM   36  C   UNK N   1      32.514  14.740   6.995  0.00  0.00     0.030 C 
HETATM   37  C   UNK N   1      33.147  14.400   5.651  0.00  0.00     0.003 C 
HETATM   38  C   UNK N   1      34.637  14.131   5.813  0.00  0.00     0.030 C 
HETATM   39  C   UNK N   1      35.307  15.313   6.518  0.00  0.00     0.273 C 
ENDBRANCH  32  34
ENDBRANCH  25  26
ENDBRANCH  21  25
BRANCH  14  40
HETATM   40  C   UNK N   1      36.032  13.671  17.911  0.00  0.00     0.036 C 
HETATM   41  C   UNK N   1      34.937  14.584  18.438  0.00  0.00     0.010 C 
ENDBRANCH  14  40
BRANCH  11  42
HETATM   42  O   UNK N   1      30.907   7.143  19.736  0.00  0.00    -0.375 OA
HETATM   43  H   UNK N   1      29.996   7.477  19.759  0.00  0.00     0.211 HD
ENDBRANCH  11  42
BRANCH  11  44
HETATM   44  C   UNK N   1      32.642   5.555  19.291  0.00  0.00     0.049 C 
HETATM   45  C   UNK N   1      31.563   4.992  18.359  0.00  0.00     0.009 C 
ENDBRANCH  11  44
TORSDOF 6
ENDMDL
MODEL 5
REMARK VINA RESULT:      -8.4      6.057     10.892
REMARK  6 active torsions:
REMARK  status: ('A' for Active; 'I' for Inactive)
REMARK    1  A    between atoms: O_1  and  C_22 
REMARK    2  A    between atoms: O_1  and  C_39 
REMARK    3  A    between atoms: C_27  and  O_4 
REMARK    4  A    between atoms: N_7  and  C_12 
REMARK       I    between atoms: N_8  and  C_22 
REMARK    5  A    between atoms: C_27  and  C_34 
REMARK    6  A    between atoms: C_30  and  C_38 
ROOT
HETATM    1  O   UNK N   1      34.356  13.889   8.264  0.00  0.00    -0.314 OA
HETATM    2  O   UNK N   1      35.721  10.307  10.012  0.00  0.00    -0.267 OA
HETATM    3  O   UNK N   1      33.561  15.948   8.542  0.00  0.00    -0.261 OA
HETATM    4  N   UNK N   1      35.758  11.228  12.073  0.00  0.00    -0.307 N 
HETATM    5  N   UNK N   1      35.579  12.958  15.122  0.00  0.00    -0.353 N 
ATOM      6  HN  UNK N   1      35.447  13.944  14.896  1.00  0.00     0.166 HD
HETATM    7  C   UNK N   1      35.573  12.318  12.819  0.00  0.00     0.065 A 
HETATM    8  C   UNK N   1      36.000  10.740  14.331  0.00  0.00    -0.004 A 
HETATM    9  C   UNK N   1      36.117  10.076  12.949  0.00  0.00     0.174 A 
HETATM   10  C   UNK N   1      34.807  13.613  11.003  0.00  0.00     0.002 A 
HETATM   11  C   UNK N   1      34.166  14.897  10.551  0.00  0.00     0.173 C 
HETATM   12  C   UNK N   1      35.761  12.063  14.149  0.00  0.00     0.068 A 
HETATM   13  C   UNK N   1      35.070  12.518  10.145  0.00  0.00     0.044 A 
HETATM   14  C   UNK N   1      35.997  10.237  15.649  0.00  0.00    -0.036 A 
HETATM   15  C   UNK N   1      35.082  13.494  12.342  0.00  0.00     0.043 A 
HETATM   16  C   UNK N   1      35.543  11.291  10.711  0.00  0.00     0.257 A 
HETATM   17  C   UNK N   1      35.732  11.171  16.710  0.00  0.00     0.000 A 
HETATM   18  C   UNK N   1      34.797  12.639   8.676  0.00  0.00     0.224 C 
HETATM   19  C   UNK N   1      35.569  12.553  16.392  0.00  0.00     0.043 A 
HETATM   20  C   UNK N   1      34.024  14.942   9.058  0.00  0.00     0.298 C 
HETATM   21  C   UNK N   1      35.285  11.770  19.018  0.00  0.00     0.082 A 
HETATM   22  C   UNK N   1      35.572  10.788  18.048  0.00  0.00     0.051 A 
HETATM   23  C   UNK N   1      35.327  13.503  17.364  0.00  0.00     0.033 A 
HETATM   24  C   UNK N   1      35.196  13.118  18.672  0.00  0.00     0.040 A 
ENDROOT
BRANCH  21  25
HETATM   25  O   UNK N   1      35.098  11.428  20.296  0.00  0.00    -0.261 OA
BRANCH  25  26
HETATM   26  C   UNK N   1      34.645  10.192  20.589  0.00  0.00     0.368 C 
HETATM   27  O   UNK N   1      33.603   9.787  20.096  0.00  0.00    -0.238 OA
HETATM   28  N   UNK N   1      35.412   9.386  21.367  0.00  0.00    -0.328 N 
HETATM   29  C   UNK N   1      36.748   9.807  21.688  0.00  0.00     0.130 C 
HETATM   30  C   UNK N   1      35.163   7.977  21.409  0.00  0.00     0.130 C 
HETATM   31  C   UNK N   1      37.580   9.440  20.469  0.00  0.00     0.056 C 
HETATM   32  C   UNK N   1      37.406   7.943  20.135  0.00  0.00     0.226 C 
HETATM   33  C   UNK N   1      35.943   7.402  20.232  0.00  0.00     0.056 C 
BRANCH  32  34
HETATM   34  N   UNK N   1      38.417   7.151  20.846  0.00  0.00     0.093 N 
HETATM   35  C   UNK N   1      39.744   7.606  20.403  0.00  0.00     0.273 C 
HETATM   36  C   UNK N   1      39.964   7.332  18.908  0.00  0.00     0.030 C 
HETATM   37  C   UNK N   1      39.806   5.842  18.628  0.00  0.00     0.003 C 
HETATM   38  C   UNK N   1      38.464   5.340  19.142  0.00  0.00     0.030 C 
HETATM   39  C   UNK N   1      38.303   5.701  20.620  0.00  0.00     0.273 C 
ENDBRANCH  32  34
ENDBRANCH  25  26
ENDBRANCH  21  25
BRANCH  14  40
HETATM   40  C   UNK N   1      36.179   8.769  15.894  0.00  0.00     0.036 C 
HETATM   41  C   UNK N   1      37.640   8.431  16.134  0.00  0.00     0.010 C 
ENDBRANCH  14  40
BRANCH  11  42
HETATM   42  O   UNK N   1      32.882  14.968  11.106  0.00  0.00    -0.375 OA
HETATM   43  H   UNK N   1      32.106  14.668  11.606  0.00  0.00     0.211 HD
ENDBRANCH  11  42
BRANCH  11  44
HETATM   44  C   UNK N   1      34.976  16.123  11.022  0.00  0.00     0.049 C 
HETATM   45  C   UNK N   1      36.468  16.030  10.681  0.00  0.00     0.009 C 
ENDBRANCH  11  44
TORSDOF 6
ENDMDL
MODEL 6
REMARK VINA RESULT:      -8.4      4.873     12.064
REMARK  6 active torsions:
REMARK  status: ('A' for Active; 'I' for Inactive)
REMARK    1  A    between atoms: O_1  and  C_22 
REMARK    2  A    between atoms: O_1  and  C_39 
REMARK    3  A    between atoms: C_27  and  O_4 
REMARK    4  A    between atoms: N_7  and  C_12 
REMARK       I    between atoms: N_8  and  C_22 
REMARK    5  A    between atoms: C_27  and  C_34 
REMARK    6  A    between atoms: C_30  and  C_38 
ROOT
HETATM    1  O   UNK N   1      35.750   9.482  18.899  0.00  0.00    -0.314 OA
HETATM    2  O   UNK N   1      35.128  13.296  17.220  0.00  0.00    -0.267 OA
HETATM    3  O   UNK N   1      36.338   7.357  18.605  0.00  0.00    -0.261 OA
HETATM    4  N   UNK N   1      36.067  12.679  15.262  0.00  0.00    -0.307 N 
HETATM    5  N   UNK N   1      37.480  11.332  12.344  0.00  0.00    -0.353 N 
ATOM      6  HN  UNK N   1      37.894  10.437  12.601  1.00  0.00     0.166 HD
HETATM    7  C   UNK N   1      36.680  11.722  14.562  0.00  0.00     0.065 A 
HETATM    8  C   UNK N   1      36.406  13.345  13.062  0.00  0.00    -0.004 A 
HETATM    9  C   UNK N   1      35.862  13.878  14.399  0.00  0.00     0.174 A 
HETATM   10  C   UNK N   1      36.466  10.121  16.280  0.00  0.00     0.002 A 
HETATM   11  C   UNK N   1      36.599   8.678  16.682  0.00  0.00     0.173 C 
HETATM   12  C   UNK N   1      36.934  12.114  13.277  0.00  0.00     0.068 A 
HETATM   13  C   UNK N   1      35.892  11.120  17.103  0.00  0.00     0.044 A 
HETATM   14  C   UNK N   1      36.363  13.831  11.739  0.00  0.00    -0.036 A 
HETATM   15  C   UNK N   1      36.868  10.452  15.011  0.00  0.00     0.043 A 
HETATM   16  C   UNK N   1      35.677  12.428  16.561  0.00  0.00     0.257 A 
HETATM   17  C   UNK N   1      36.882  12.975  10.706  0.00  0.00     0.000 A 
HETATM   18  C   UNK N   1      35.467  10.782  18.501  0.00  0.00     0.224 C 
HETATM   19  C   UNK N   1      37.479  11.732  11.071  0.00  0.00     0.043 A 
HETATM   20  C   UNK N   1      36.231   8.475  18.123  0.00  0.00     0.298 C 
HETATM   21  C   UNK N   1      37.296  12.360   8.396  0.00  0.00     0.082 A 
HETATM   22  C   UNK N   1      36.785  13.273   9.340  0.00  0.00     0.051 A 
HETATM   23  C   UNK N   1      38.008  10.870  10.131  0.00  0.00     0.033 A 
HETATM   24  C   UNK N   1      37.929  11.185   8.800  0.00  0.00     0.040 A 
ENDROOT
BRANCH  21  25
HETATM   25  O   UNK N   1      37.190  12.606   7.087  0.00  0.00    -0.261 OA
BRANCH  25  26
HETATM   26  C   UNK N   1      36.030  12.333   6.456  0.00  0.00     0.368 C 
HETATM   27  O   UNK N   1      35.461  11.270   6.650  0.00  0.00    -0.238 OA
HETATM   28  N   UNK N   1      35.473  13.295   5.675  0.00  0.00    -0.328 N 
HETATM   29  C   UNK N   1      36.035  14.617   5.702  0.00  0.00     0.130 C 
HETATM   30  C   UNK N   1      34.100  13.197   5.284  0.00  0.00     0.130 C 
HETATM   31  C   UNK N   1      35.448  15.269   6.944  0.00  0.00     0.056 C 
HETATM   32  C   UNK N   1      33.907  15.192   6.909  0.00  0.00     0.226 C 
HETATM   33  C   UNK N   1      33.316  13.826   6.432  0.00  0.00     0.056 C 
BRANCH  32  34
HETATM   34  N   UNK N   1      33.362  16.381   6.240  0.00  0.00     0.093 N 
HETATM   35  C   UNK N   1      33.905  17.570   6.914  0.00  0.00     0.273 C 
HETATM   36  C   UNK N   1      33.439  17.653   8.375  0.00  0.00     0.030 C 
HETATM   37  C   UNK N   1      31.916  17.676   8.429  0.00  0.00     0.003 C 
HETATM   38  C   UNK N   1      31.335  16.487   7.678  0.00  0.00     0.030 C 
HETATM   39  C   UNK N   1      31.891  16.447   6.253  0.00  0.00     0.273 C 
ENDBRANCH  32  34
ENDBRANCH  25  26
ENDBRANCH  21  25
BRANCH  14  40
HETATM   40  C   UNK N   1      35.718  15.152  11.443  0.00  0.00     0.036 C 
HETATM   41  C   UNK N   1      34.250  14.977  11.092  0.00  0.00     0.010 C 
ENDBRANCH  14  40
BRANCH  11  42
HETATM   42  O   UNK N   1      35.716   7.920  15.904  0.00  0.00    -0.375 OA
HETATM   43  H   UNK N   1      35.354   7.126  15.478  0.00  0.00     0.211 HD
ENDBRANCH  11  42
BRANCH  11  44
HETATM   44  C   UNK N   1      38.034   8.161  16.446  0.00  0.00     0.049 C 
HETATM   45  C   UNK N   1      38.093   6.938  15.525  0.00  0.00     0.009 C 
ENDBRANCH  11  44
TORSDOF 6
ENDMDL
MODEL 7
REMARK VINA RESULT:      -8.4      4.125      8.458
REMARK  6 active torsions:
REMARK  status: ('A' for Active; 'I' for Inactive)
REMARK    1  A    between atoms: O_1  and  C_22 
REMARK    2  A    between atoms: O_1  and  C_39 
REMARK    3  A    between atoms: C_27  and  O_4 
REMARK    4  A    between atoms: N_7  and  C_12 
REMARK       I    between atoms: N_8  and  C_22 
REMARK    5  A    between atoms: C_27  and  C_34 
REMARK    6  A    between atoms: C_30  and  C_38 
ROOT
HETATM    1  O   UNK N   1      34.125  17.937   6.655  0.00  0.00    -0.314 OA
HETATM    2  O   UNK N   1      35.588  17.663  10.597  0.00  0.00    -0.267 OA
HETATM    3  O   UNK N   1      33.357  16.898   4.844  0.00  0.00    -0.261 OA
HETATM    4  N   UNK N   1      35.052  15.474  10.733  0.00  0.00    -0.307 N 
HETATM    5  N   UNK N   1      34.187  12.078  10.535  0.00  0.00    -0.353 N 
ATOM      6  HN  UNK N   1      33.617  11.965   9.697  1.00  0.00     0.166 HD
HETATM    7  C   UNK N   1      34.500  14.413  10.139  0.00  0.00     0.065 A 
HETATM    8  C   UNK N   1      35.312  13.565  12.032  0.00  0.00    -0.004 A 
HETATM    9  C   UNK N   1      35.598  15.077  12.062  0.00  0.00     0.174 A 
HETATM   10  C   UNK N   1      34.113  15.561   8.115  0.00  0.00     0.002 A 
HETATM   11  C   UNK N   1      33.712  15.465   6.669  0.00  0.00     0.173 C 
HETATM   12  C   UNK N   1      34.598  13.289  10.912  0.00  0.00     0.068 A 
HETATM   13  C   UNK N   1      34.604  16.742   8.721  0.00  0.00     0.044 A 
HETATM   14  C   UNK N   1      35.717  12.489  12.847  0.00  0.00    -0.036 A 
HETATM   15  C   UNK N   1      34.057  14.405   8.853  0.00  0.00     0.043 A 
HETATM   16  C   UNK N   1      35.099  16.680  10.064  0.00  0.00     0.257 A 
HETATM   17  C   UNK N   1      35.346  11.165  12.423  0.00  0.00     0.000 A 
HETATM   18  C   UNK N   1      34.652  18.019   7.937  0.00  0.00     0.224 C 
HETATM   19  C   UNK N   1      34.530  11.013  11.262  0.00  0.00     0.043 A 
HETATM   20  C   UNK N   1      33.711  16.814   6.011  0.00  0.00     0.298 C 
HETATM   21  C   UNK N   1      35.397   8.744  12.559  0.00  0.00     0.082 A 
HETATM   22  C   UNK N   1      35.789  10.000  13.063  0.00  0.00     0.051 A 
HETATM   23  C   UNK N   1      34.126   9.773  10.809  0.00  0.00     0.033 A 
HETATM   24  C   UNK N   1      34.547   8.643  11.458  0.00  0.00     0.040 A 
ENDROOT
BRANCH  21  25
HETATM   25  O   UNK N   1      35.830   7.617  13.133  0.00  0.00    -0.261 OA
BRANCH  25  26
HETATM   26  C   UNK N   1      37.018   7.616  13.772  0.00  0.00     0.368 C 
HETATM   27  O   UNK N   1      37.985   8.168  13.270  0.00  0.00    -0.238 OA
HETATM   28  N   UNK N   1      37.087   7.067  15.013  0.00  0.00    -0.328 N 
HETATM   29  C   UNK N   1      35.867   6.685  15.667  0.00  0.00     0.130 C 
HETATM   30  C   UNK N   1      38.201   7.355  15.865  0.00  0.00     0.130 C 
HETATM   31  C   UNK N   1      35.315   7.974  16.256  0.00  0.00     0.056 C 
HETATM   32  C   UNK N   1      36.376   8.650  17.149  0.00  0.00     0.226 C 
HETATM   33  C   UNK N   1      37.830   8.652  16.576  0.00  0.00     0.056 C 
BRANCH  32  34
HETATM   34  N   UNK N   1      36.247   8.169  18.531  0.00  0.00     0.093 N 
HETATM   35  C   UNK N   1      34.815   8.138  18.868  0.00  0.00     0.273 C 
HETATM   36  C   UNK N   1      34.200   9.545  18.848  0.00  0.00     0.030 C 
HETATM   37  C   UNK N   1      34.944  10.446  19.826  0.00  0.00     0.003 C 
HETATM   38  C   UNK N   1      36.437  10.437  19.534  0.00  0.00     0.030 C 
HETATM   39  C   UNK N   1      36.958   8.998  19.518  0.00  0.00     0.273 C 
ENDBRANCH  32  34
ENDBRANCH  25  26
ENDBRANCH  21  25
BRANCH  14  40
HETATM   40  C   UNK N   1      36.574  12.738  14.053  0.00  0.00     0.036 C 
HETATM   41  C   UNK N   1      35.723  13.049  15.273  0.00  0.00     0.010 C 
ENDBRANCH  14  40
BRANCH  11  42
HETATM   42  O   UNK N   1      34.647  14.663   6.003  0.00  0.00    -0.375 OA
HETATM   43  H   UNK N   1      34.981  14.050   5.330  0.00  0.00     0.211 HD
ENDBRANCH  11  42
BRANCH  11  44
HETATM   44  C   UNK N   1      32.315  14.825   6.517  0.00  0.00     0.049 C 
HETATM   45  C   UNK N   1      31.180  15.723   7.022  0.00  0.00     0.009 C 
ENDBRANCH  11  44
TORSDOF 6
ENDMDL
MODEL 8
REMARK VINA RESULT:      -8.4      3.556     11.758
REMARK  6 active torsions:
REMARK  status: ('A' for Active; 'I' for Inactive)
REMARK    1  A    between atoms: O_1  and  C_22 
REMARK    2  A    between atoms: O_1  and  C_39 
REMARK    3  A    between atoms: C_27  and  O_4 
REMARK    4  A    between atoms: N_7  and  C_12 
REMARK       I    between atoms: N_8  and  C_22 
REMARK    5  A    between atoms: C_27  and  C_34 
REMARK    6  A    between atoms: C_30  and  C_38 
ROOT
HETATM    1  O   UNK N   1      37.194  13.838   9.442  0.00  0.00    -0.314 OA
HETATM    2  O   UNK N   1      34.725  17.170  10.187  0.00  0.00    -0.267 OA
HETATM    3  O   UNK N   1      37.487  11.895   8.399  0.00  0.00    -0.261 OA
HETATM    4  N   UNK N   1      33.281  16.570   8.558  0.00  0.00    -0.307 N 
HETATM    5  N   UNK N   1      31.212  15.266   6.040  0.00  0.00    -0.353 N 
ATOM      6  HN  UNK N   1      31.742  14.531   5.572  1.00  0.00     0.166 HD
HETATM    7  C   UNK N   1      32.983  15.711   7.581  0.00  0.00     0.065 A 
HETATM    8  C   UNK N   1      31.194  17.035   7.650  0.00  0.00    -0.004 A 
HETATM    9  C   UNK N   1      32.188  17.576   8.692  0.00  0.00     0.174 A 
HETATM   10  C   UNK N   1      34.830  14.318   8.041  0.00  0.00     0.002 A 
HETATM   11  C   UNK N   1      35.515  13.005   7.777  0.00  0.00     0.173 C 
HETATM   12  C   UNK N   1      31.781  15.999   6.999  0.00  0.00     0.068 A 
HETATM   13  C   UNK N   1      35.247  15.240   9.031  0.00  0.00     0.044 A 
HETATM   14  C   UNK N   1      29.851  17.339   7.347  0.00  0.00    -0.036 A 
HETATM   15  C   UNK N   1      33.696  14.584   7.315  0.00  0.00     0.043 A 
HETATM   16  C   UNK N   1      34.431  16.387   9.298  0.00  0.00     0.257 A 
HETATM   17  C   UNK N   1      29.195  16.515   6.367  0.00  0.00     0.000 A 
HETATM   18  C   UNK N   1      36.495  14.977   9.818  0.00  0.00     0.224 C 
HETATM   19  C   UNK N   1      29.944  15.502   5.699  0.00  0.00     0.043 A 
HETATM   20  C   UNK N   1      36.796  12.891   8.551  0.00  0.00     0.298 C 
HETATM   21  C   UNK N   1      27.265  15.751   5.110  0.00  0.00     0.082 A 
HETATM   22  C   UNK N   1      27.830  16.620   6.065  0.00  0.00     0.051 A 
HETATM   23  C   UNK N   1      29.380  14.686   4.738  0.00  0.00     0.033 A 
HETATM   24  C   UNK N   1      28.050  14.815   4.435  0.00  0.00     0.040 A 
ENDROOT
BRANCH  21  25
HETATM   25  O   UNK N   1      25.961  15.810   4.825  0.00  0.00    -0.261 OA
BRANCH  25  26
HETATM   26  C   UNK N   1      25.288  16.956   5.050  0.00  0.00     0.368 C 
HETATM   27  O   UNK N   1      25.840  18.034   4.890  0.00  0.00    -0.238 OA
HETATM   28  N   UNK N   1      23.970  16.884   5.370  0.00  0.00    -0.328 N 
HETATM   29  C   UNK N   1      23.305  15.614   5.272  0.00  0.00     0.130 C 
HETATM   30  C   UNK N   1      23.139  18.045   5.264  0.00  0.00     0.130 C 
HETATM   31  C   UNK N   1      22.967  15.459   3.797  0.00  0.00     0.056 C 
HETATM   32  C   UNK N   1      22.164  16.681   3.303  0.00  0.00     0.226 C 
HETATM   33  C   UNK N   1      22.675  18.068   3.811  0.00  0.00     0.056 C 
BRANCH  32  34
HETATM   34  N   UNK N   1      20.726  16.439   3.479  0.00  0.00     0.093 N 
HETATM   35  C   UNK N   1      20.372  15.235   2.711  0.00  0.00     0.273 C 
HETATM   36  C   UNK N   1      20.587  15.443   1.205  0.00  0.00     0.030 C 
HETATM   37  C   UNK N   1      19.757  16.627   0.725  0.00  0.00     0.003 C 
HETATM   38  C   UNK N   1      20.062  17.867   1.554  0.00  0.00     0.030 C 
HETATM   39  C   UNK N   1      19.877  17.559   3.041  0.00  0.00     0.273 C 
ENDBRANCH  32  34
ENDBRANCH  25  26
ENDBRANCH  21  25
BRANCH  14  40
HETATM   40  C   UNK N   1      29.137  18.424   8.097  0.00  0.00     0.036 C 
HETATM   41  C   UNK N   1      28.598  17.910   9.421  0.00  0.00     0.010 C 
ENDBRANCH  14  40
BRANCH  11  42
HETATM   42  O   UNK N   1      34.667  11.972   8.196  0.00  0.00    -0.375 OA
HETATM   43  H   UNK N   1      34.108  11.184   8.111  0.00  0.00     0.211 HD
ENDBRANCH  11  42
BRANCH  11  44
HETATM   44  C   UNK N   1      35.812  12.821   6.274  0.00  0.00     0.049 C 
HETATM   45  C   UNK N   1      36.766  13.881   5.712  0.00  0.00     0.009 C 
ENDBRANCH  11  44
TORSDOF 6
ENDMDL
MODEL 9
REMARK VINA RESULT:      -8.4      5.864     12.735
REMARK  6 active torsions:
REMARK  status: ('A' for Active; 'I' for Inactive)
REMARK    1  A    between atoms: O_1  and  C_22 
REMARK    2  A    between atoms: O_1  and  C_39 
REMARK    3  A    between atoms: C_27  and  O_4 
REMARK    4  A    between atoms: N_7  and  C_12 
REMARK       I    between atoms: N_8  and  C_22 
REMARK    5  A    between atoms: C_27  and  C_34 
REMARK    6  A    between atoms: C_30  and  C_38 
ROOT
HETATM    1  O   UNK N   1      33.148  17.599   7.721  0.00  0.00    -0.314 OA
HETATM    2  O   UNK N   1      29.215  17.331   9.207  0.00  0.00    -0.267 OA
HETATM    3  O   UNK N   1      34.551  17.322   6.016  0.00  0.00    -0.261 OA
HETATM    4  N   UNK N   1      28.375  16.927   7.151  0.00  0.00    -0.307 N 
HETATM    5  N   UNK N   1      27.456  16.213   3.839  0.00  0.00    -0.353 N 
ATOM      6  HN  UNK N   1      28.265  16.425   3.255  1.00  0.00     0.166 HD
HETATM    7  C   UNK N   1      28.617  16.798   5.845  0.00  0.00     0.065 A 
HETATM    8  C   UNK N   1      26.458  16.278   6.012  0.00  0.00    -0.004 A 
HETATM    9  C   UNK N   1      26.933  16.665   7.423  0.00  0.00     0.174 A 
HETATM   10  C   UNK N   1      30.949  17.037   6.100  0.00  0.00     0.002 A 
HETATM   11  C   UNK N   1      32.305  16.937   5.455  0.00  0.00     0.173 C 
HETATM   12  C   UNK N   1      27.488  16.466   5.149  0.00  0.00     0.068 A 
HETATM   13  C   UNK N   1      30.748  17.272   7.481  0.00  0.00     0.044 A 
HETATM   14  C   UNK N   1      25.266  15.712   5.515  0.00  0.00    -0.036 A 
HETATM   15  C   UNK N   1      29.861  16.815   5.295  0.00  0.00     0.043 A 
HETATM   16  C   UNK N   1      29.420  17.197   8.012  0.00  0.00     0.257 A 
HETATM   17  C   UNK N   1      25.233  15.366   4.119  0.00  0.00     0.000 A 
HETATM   18  C   UNK N   1      31.923  17.539   8.372  0.00  0.00     0.224 C 
HETATM   19  C   UNK N   1      26.358  15.682   3.300  0.00  0.00     0.043 A 
HETATM   20  C   UNK N   1      33.396  17.310   6.415  0.00  0.00     0.298 C 
HETATM   21  C   UNK N   1      24.233  14.357   2.152  0.00  0.00     0.082 A 
HETATM   22  C   UNK N   1      24.166  14.681   3.522  0.00  0.00     0.051 A 
HETATM   23  C   UNK N   1      26.386  15.390   1.951  0.00  0.00     0.033 A 
HETATM   24  C   UNK N   1      25.326  14.741   1.375  0.00  0.00     0.040 A 
ENDROOT
BRANCH  21  25
HETATM   25  O   UNK N   1      23.243  13.678   1.566  0.00  0.00    -0.261 OA
BRANCH  25  26
HETATM   26  C   UNK N   1      22.013  14.228   1.501  0.00  0.00     0.368 C 
HETATM   27  O   UNK N   1      21.839  15.272   0.893  0.00  0.00    -0.238 OA
HETATM   28  N   UNK N   1      20.971  13.553   2.051  0.00  0.00    -0.328 N 
HETATM   29  C   UNK N   1      21.183  12.206   2.505  0.00  0.00     0.130 C 
HETATM   30  C   UNK N   1      19.626  13.901   1.703  0.00  0.00     0.130 C 
HETATM   31  C   UNK N   1      21.094  11.349   1.253  0.00  0.00     0.056 C 
HETATM   32  C   UNK N   1      19.760  11.611   0.521  0.00  0.00     0.226 C 
HETATM   33  C   UNK N   1      19.329  13.111   0.432  0.00  0.00     0.056 C 
BRANCH  32  34
HETATM   34  N   UNK N   1      18.729  10.689   1.014  0.00  0.00     0.093 N 
HETATM   35  C   UNK N   1      19.162   9.318   0.707  0.00  0.00     0.273 C 
HETATM   36  C   UNK N   1      19.254   9.081  -0.808  0.00  0.00     0.030 C 
HETATM   37  C   UNK N   1      17.902   9.355  -1.455  0.00  0.00     0.003 C 
HETATM   38  C   UNK N   1      17.407  10.748  -1.092  0.00  0.00     0.030 C 
HETATM   39  C   UNK N   1      17.397  10.919   0.429  0.00  0.00     0.273 C 
ENDBRANCH  32  34
ENDBRANCH  25  26
ENDBRANCH  21  25
BRANCH  14  40
HETATM   40  C   UNK N   1      24.129  15.414   6.447  0.00  0.00     0.036 C 
HETATM   41  C   UNK N   1      24.354  14.105   7.183  0.00  0.00     0.010 C 
ENDBRANCH  14  40
BRANCH  11  42
HETATM   42  O   UNK N   1      32.512  15.607   5.067  0.00  0.00    -0.375 OA
HETATM   43  H   UNK N   1      32.921  14.727   5.072  0.00  0.00     0.211 HD
ENDBRANCH  11  42
BRANCH  11  44
HETATM   44  C   UNK N   1      32.398  17.837   4.205  0.00  0.00     0.049 C 
HETATM   45  C   UNK N   1      32.415  17.048   2.891  0.00  0.00     0.009 C 
ENDBRANCH  11  44
TORSDOF 6
ENDMDL
