MODEL 1
REMARK VINA RESULT:      -3.4      0.000      0.000
REMARK  0 active torsions:
REMARK  status: ('A' for Active; 'I' for Inactive)
ROOT
HETATM    1  S   UNK N   1      23.221  11.796  12.789  0.00  0.00    -0.040 SA
HETATM    2  N   UNK N   1      22.746  12.661  10.527  0.00  0.00    -0.337 N 
HETATM    3  N   UNK N   1      24.887  12.443  11.122  0.00  0.00    -0.342 N 
HETATM    4  C   UNK N   1      23.605  12.293  11.497  0.00  0.00     0.177 A 
HETATM    5  C   UNK N   1      23.500  13.062   9.492  0.00  0.00     0.110 A 
HETATM    6  C   UNK N   1      21.289  12.650  10.538  0.00  0.00     0.158 C 
HETATM    7  C   UNK N   1      24.830  12.927   9.860  0.00  0.00     0.107 A 
HETATM    8  H   UNK N   1      25.693  12.244  11.651  0.00  0.00     0.167 HD
ENDROOT
TORSDOF 0
ENDMDL
MODEL 2
REMARK VINA RESULT:      -3.2      1.776      2.307
REMARK  0 active torsions:
REMARK  status: ('A' for Active; 'I' for Inactive)
ROOT
HETATM    1  S   UNK N   1      24.584  13.033   9.399  0.00  0.00    -0.040 SA
HETATM    2  N   UNK N   1      22.377  12.455  10.339  0.00  0.00    -0.337 N 
HETATM    3  N   UNK N   1      24.149  12.294  11.687  0.00  0.00    -0.342 N 
HETATM    4  C   UNK N   1      23.711  12.601  10.454  0.00  0.00     0.177 A 
HETATM    5  C   UNK N   1      21.941  12.039  11.538  0.00  0.00     0.110 A 
HETATM    6  C   UNK N   1      21.524  12.685   9.180  0.00  0.00     0.158 C 
HETATM    7  C   UNK N   1      23.041  11.939  12.376  0.00  0.00     0.107 A 
HETATM    8  H   UNK N   1      25.076  12.321  12.017  0.00  0.00     0.167 HD
ENDROOT
TORSDOF 0
ENDMDL
MODEL 3
REMARK VINA RESULT:      -3.2      1.739      2.752
REMARK  0 active torsions:
REMARK  status: ('A' for Active; 'I' for Inactive)
ROOT
HETATM    1  S   UNK N   1      21.273  12.963   9.817  0.00  0.00    -0.040 SA
HETATM    2  N   UNK N   1      23.630  12.581  10.441  0.00  0.00    -0.337 N 
HETATM    3  N   UNK N   1      22.063  12.020  11.928  0.00  0.00    -0.342 N 
HETATM    4  C   UNK N   1      22.311  12.530  10.710  0.00  0.00     0.177 A 
HETATM    5  C   UNK N   1      24.252  12.088  11.522  0.00  0.00     0.110 A 
HETATM    6  C   UNK N   1      24.304  13.062   9.242  0.00  0.00     0.158 C 
HETATM    7  C   UNK N   1      23.280  11.739  12.447  0.00  0.00     0.107 A 
HETATM    8  H   UNK N   1      21.185  11.881  12.352  0.00  0.00     0.167 HD
ENDROOT
TORSDOF 0
ENDMDL
MODEL 4
REMARK VINA RESULT:      -3.1     10.729     11.388
REMARK  0 active torsions:
REMARK  status: ('A' for Active; 'I' for Inactive)
ROOT
HETATM    1  S   UNK N   1      20.184  17.312   2.092  0.00  0.00    -0.040 SA
HETATM    2  N   UNK N   1      20.976  19.420   3.102  0.00  0.00    -0.337 N 
HETATM    3  N   UNK N   1      20.380  19.464   0.950  0.00  0.00    -0.342 N 
HETATM    4  C   UNK N   1      20.510  18.710   2.056  0.00  0.00     0.177 A 
HETATM    5  C   UNK N   1      21.152  20.673   2.655  0.00  0.00     0.110 A 
HETATM    6  C   UNK N   1      21.253  18.977   4.462  0.00  0.00     0.158 C 
HETATM    7  C   UNK N   1      20.782  20.701   1.319  0.00  0.00     0.107 A 
HETATM    8  H   UNK N   1      20.061  19.177   0.064  0.00  0.00     0.167 HD
ENDROOT
TORSDOF 0
ENDMDL
MODEL 5
REMARK VINA RESULT:      -3.1     12.334     12.527
REMARK  0 active torsions:
REMARK  status: ('A' for Active; 'I' for Inactive)
ROOT
HETATM    1  S   UNK N   1      34.105  17.868   8.294  0.00  0.00    -0.040 SA
HETATM    2  N   UNK N   1      35.118  15.698   8.892  0.00  0.00    -0.337 N 
HETATM    3  N   UNK N   1      34.993  17.255  10.487  0.00  0.00    -0.342 N 
HETATM    4  C   UNK N   1      34.729  16.949   9.205  0.00  0.00     0.177 A 
HETATM    5  C   UNK N   1      35.649  15.181  10.010  0.00  0.00     0.110 A 
HETATM    6  C   UNK N   1      35.010  14.994   7.621  0.00  0.00     0.158 C 
HETATM    7  C   UNK N   1      35.572  16.146  11.001  0.00  0.00     0.107 A 
HETATM    8  H   UNK N   1      34.805  18.102  10.952  0.00  0.00     0.167 HD
ENDROOT
TORSDOF 0
ENDMDL
MODEL 6
REMARK VINA RESULT:      -3.0     21.812     22.784
REMARK  0 active torsions:
REMARK  status: ('A' for Active; 'I' for Inactive)
ROOT
HETATM    1  S   UNK N   1      40.975  22.381   1.525  0.00  0.00    -0.040 SA
HETATM    2  N   UNK N   1      42.445  21.260   3.160  0.00  0.00    -0.337 N 
HETATM    3  N   UNK N   1      42.774  23.438   2.797  0.00  0.00    -0.342 N 
HETATM    4  C   UNK N   1      42.047  22.352   2.480  0.00  0.00     0.177 A 
HETATM    5  C   UNK N   1      43.462  21.655   3.941  0.00  0.00     0.110 A 
HETATM    6  C   UNK N   1      41.920  19.902   3.104  0.00  0.00     0.158 C 
HETATM    7  C   UNK N   1      43.667  23.007   3.717  0.00  0.00     0.107 A 
HETATM    8  H   UNK N   1      42.677  24.350   2.438  0.00  0.00     0.167 HD
ENDROOT
TORSDOF 0
ENDMDL
MODEL 7
REMARK VINA RESULT:      -2.9     10.208     11.169
REMARK  0 active torsions:
REMARK  status: ('A' for Active; 'I' for Inactive)
ROOT
HETATM    1  S   UNK N   1      34.365  18.206   8.153  0.00  0.00    -0.040 SA
HETATM    2  N   UNK N   1      32.575  17.420   6.646  0.00  0.00    -0.337 N 
HETATM    3  N   UNK N   1      32.083  17.630   8.814  0.00  0.00    -0.342 N 
HETATM    4  C   UNK N   1      33.030  17.758   7.868  0.00  0.00     0.177 A 
HETATM    5  C   UNK N   1      31.293  17.062   6.810  0.00  0.00     0.110 A 
HETATM    6  C   UNK N   1      33.280  17.422   5.371  0.00  0.00     0.158 C 
HETATM    7  C   UNK N   1      30.986  17.192   8.155  0.00  0.00     0.107 A 
HETATM    8  H   UNK N   1      32.170  17.815   9.777  0.00  0.00     0.167 HD
ENDROOT
TORSDOF 0
ENDMDL
MODEL 8
REMARK VINA RESULT:      -2.9      8.193      8.821
REMARK  0 active torsions:
REMARK  status: ('A' for Active; 'I' for Inactive)
ROOT
HETATM    1  S   UNK N   1      27.473  20.252   6.538  0.00  0.00    -0.040 SA
HETATM    2  N   UNK N   1      28.638  18.104   6.882  0.00  0.00    -0.337 N 
HETATM    3  N   UNK N   1      27.616  19.020   8.643  0.00  0.00    -0.342 N 
HETATM    4  C   UNK N   1      27.906  19.139   7.336  0.00  0.00     0.177 A 
HETATM    5  C   UNK N   1      28.826  17.290   7.931  0.00  0.00     0.110 A 
HETATM    6  C   UNK N   1      29.150  17.860   5.540  0.00  0.00     0.158 C 
HETATM    7  C   UNK N   1      28.192  17.857   9.026  0.00  0.00     0.107 A 
HETATM    8  H   UNK N   1      27.097  19.643   9.202  0.00  0.00     0.167 HD
ENDROOT
TORSDOF 0
ENDMDL
MODEL 9
REMARK VINA RESULT:      -2.8      8.147      8.657
REMARK  0 active torsions:
REMARK  status: ('A' for Active; 'I' for Inactive)
ROOT
HETATM    1  S   UNK N   1      31.038  16.790   7.119  0.00  0.00    -0.040 SA
HETATM    2  N   UNK N   1      28.879  17.644   7.954  0.00  0.00    -0.337 N 
HETATM    3  N   UNK N   1      30.693  18.029   9.196  0.00  0.00    -0.342 N 
HETATM    4  C   UNK N   1      30.210  17.476   8.071  0.00  0.00     0.177 A 
HETATM    5  C   UNK N   1      28.491  18.328   9.041  0.00  0.00     0.110 A 
HETATM    6  C   UNK N   1      27.986  17.198   6.892  0.00  0.00     0.158 C 
HETATM    7  C   UNK N   1      29.617  18.569   9.813  0.00  0.00     0.107 A 
HETATM    8  H   UNK N   1      31.628  18.040   9.505  0.00  0.00     0.167 HD
ENDROOT
TORSDOF 0
ENDMDL
