MODEL 1
REMARK VINA RESULT:      -5.7      0.000      0.000
REMARK  6 active torsions:
REMARK  status: ('A' for Active; 'I' for Inactive)
REMARK    1  A    between atoms: O_1  and  C_9 
REMARK    2  A    between atoms: O_3  and  C_14 
REMARK    3  A    between atoms: C_5  and  N_4 
REMARK    4  A    between atoms: C_5  and  C_6 
REMARK    5  A    between atoms: C_5  and  C_9 
REMARK    6  A    between atoms: C_6  and  C_7 
ROOT
HETATM    1  C   UNK N   1      36.410  13.278  14.703  0.00  0.00     0.110 C 
HETATM    2  C   UNK N   1      37.299  12.038  14.631  0.00  0.00     0.050 C 
ENDROOT
BRANCH   1   3
HETATM    3  N   UNK N   1      37.161  14.322  15.381  0.00  0.00    -0.413 N 
HETATM    4  H   UNK N   1      37.500  15.185  14.957  0.00  0.00     0.151 HD
HETATM    5  H   UNK N   1      37.367  14.178  16.371  0.00  0.00     0.151 HD
ENDBRANCH   1   3
BRANCH   1   6
HETATM    6  C   UNK N   1      35.090  13.065  15.479  0.00  0.00     0.080 C 
BRANCH   6   7
HETATM    7  C   UNK N   1      35.234  12.577  16.887  0.00  0.00    -0.055 A 
HETATM    8  C   UNK N   1      35.133  13.480  17.950  0.00  0.00     0.010 A 
HETATM    9  C   UNK N   1      35.222  13.026  19.268  0.00  0.00     0.037 A 
HETATM   10  C   UNK N   1      35.410  11.665  19.525  0.00  0.00     0.065 A 
HETATM   11  C   UNK N   1      35.527  10.761  18.464  0.00  0.00     0.037 A 
HETATM   12  C   UNK N   1      35.441  11.217  17.144  0.00  0.00     0.010 A 
BRANCH  10  13
HETATM   13  O   UNK N   1      35.474  11.227  20.793  0.00  0.00    -0.361 OA
HETATM   14  H   UNK N   1      34.781  11.382  21.404  0.00  0.00     0.217 HD
ENDBRANCH  10  13
ENDBRANCH   6   7
ENDBRANCH   1   6
BRANCH   1  15
HETATM   15  C   UNK N   1      36.094  13.711  13.294  0.00  0.00     0.168 C 
HETATM   16  O   UNK N   1      34.933  13.896  12.957  0.00  0.00    -0.648 OA
BRANCH  15  17
HETATM   17  O   UNK N   1      37.079  13.886  12.392  0.00  0.00    -0.775 OA
HETATM   18  H   UNK N   1      37.964  13.668  12.615  0.00  0.00     0.167 HD
ENDBRANCH  15  17
ENDBRANCH   1  15
TORSDOF 6
ENDMDL
MODEL 2
REMARK VINA RESULT:      -5.7      9.367     10.649
REMARK  6 active torsions:
REMARK  status: ('A' for Active; 'I' for Inactive)
REMARK    1  A    between atoms: O_1  and  C_9 
REMARK    2  A    between atoms: O_3  and  C_14 
REMARK    3  A    between atoms: C_5  and  N_4 
REMARK    4  A    between atoms: C_5  and  C_6 
REMARK    5  A    between atoms: C_5  and  C_9 
REMARK    6  A    between atoms: C_6  and  C_7 
ROOT
HETATM    1  C   UNK N   1      33.714  16.839   8.265  0.00  0.00     0.110 C 
HETATM    2  C   UNK N   1      34.503  15.769   7.514  0.00  0.00     0.050 C 
ENDROOT
BRANCH   1   3
HETATM    3  N   UNK N   1      32.968  16.179   9.324  0.00  0.00    -0.413 N 
HETATM    4  H   UNK N   1      33.359  15.810  10.190  0.00  0.00     0.151 HD
HETATM    5  H   UNK N   1      31.962  16.074   9.187  0.00  0.00     0.151 HD
ENDBRANCH   1   3
BRANCH   1   6
HETATM    6  C   UNK N   1      32.704  17.613   7.387  0.00  0.00     0.080 C 
BRANCH   6   7
HETATM    7  C   UNK N   1      31.314  17.719   7.933  0.00  0.00    -0.055 A 
HETATM    8  C   UNK N   1      31.053  18.570   9.013  0.00  0.00     0.010 A 
HETATM    9  C   UNK N   1      29.751  18.707   9.498  0.00  0.00     0.037 A 
HETATM   10  C   UNK N   1      28.706  17.995   8.904  0.00  0.00     0.065 A 
HETATM   11  C   UNK N   1      28.966  17.131   7.835  0.00  0.00     0.037 A 
HETATM   12  C   UNK N   1      30.271  16.990   7.350  0.00  0.00     0.010 A 
BRANCH  10  13
HETATM   13  O   UNK N   1      27.451  18.144   9.359  0.00  0.00    -0.361 OA
HETATM   14  H   UNK N   1      27.246  18.076  10.272  0.00  0.00     0.217 HD
ENDBRANCH  10  13
ENDBRANCH   6   7
ENDBRANCH   1   6
BRANCH   1  15
HETATM   15  C   UNK N   1      34.697  17.812   8.866  0.00  0.00     0.168 C 
HETATM   16  O   UNK N   1      35.313  17.513   9.878  0.00  0.00    -0.648 OA
BRANCH  15  17
HETATM   17  O   UNK N   1      34.897  19.020   8.304  0.00  0.00    -0.775 OA
HETATM   18  H   UNK N   1      35.593  19.570   8.608  0.00  0.00     0.167 HD
ENDBRANCH  15  17
ENDBRANCH   1  15
TORSDOF 6
ENDMDL
MODEL 3
REMARK VINA RESULT:      -5.5      1.981      2.590
REMARK  6 active torsions:
REMARK  status: ('A' for Active; 'I' for Inactive)
REMARK    1  A    between atoms: O_1  and  C_9 
REMARK    2  A    between atoms: O_3  and  C_14 
REMARK    3  A    between atoms: C_5  and  N_4 
REMARK    4  A    between atoms: C_5  and  C_6 
REMARK    5  A    between atoms: C_5  and  C_9 
REMARK    6  A    between atoms: C_6  and  C_7 
ROOT
HETATM    1  C   UNK N   1      35.028  11.211  14.160  0.00  0.00     0.110 C 
HETATM    2  C   UNK N   1      33.709  10.961  14.888  0.00  0.00     0.050 C 
ENDROOT
BRANCH   1   3
HETATM    3  N   UNK N   1      35.429   9.963  13.529  0.00  0.00    -0.413 N 
HETATM    4  H   UNK N   1      36.370   9.569  13.530  0.00  0.00     0.151 HD
HETATM    5  H   UNK N   1      34.704   9.435  13.042  0.00  0.00     0.151 HD
ENDBRANCH   1   3
BRANCH   1   6
HETATM    6  C   UNK N   1      36.183  11.666  15.081  0.00  0.00     0.080 C 
BRANCH   6   7
HETATM    7  C   UNK N   1      35.792  12.041  16.478  0.00  0.00    -0.055 A 
HETATM    8  C   UNK N   1      35.793  11.069  17.484  0.00  0.00     0.010 A 
HETATM    9  C   UNK N   1      35.473  11.420  18.798  0.00  0.00     0.037 A 
HETATM   10  C   UNK N   1      35.154  12.745  19.108  0.00  0.00     0.065 A 
HETATM   11  C   UNK N   1      35.137  13.716  18.101  0.00  0.00     0.037 A 
HETATM   12  C   UNK N   1      35.454  13.364  16.784  0.00  0.00     0.010 A 
BRANCH  10  13
HETATM   13  O   UNK N   1      34.866  13.085  20.375  0.00  0.00    -0.361 OA
HETATM   14  H   UNK N   1      34.258  13.769  20.576  0.00  0.00     0.217 HD
ENDBRANCH  10  13
ENDBRANCH   6   7
ENDBRANCH   1   6
BRANCH   1  15
HETATM   15  C   UNK N   1      34.791  12.262  13.105  0.00  0.00     0.168 C 
HETATM   16  O   UNK N   1      34.900  13.446  13.387  0.00  0.00    -0.648 OA
BRANCH  15  17
HETATM   17  O   UNK N   1      34.446  11.910  11.851  0.00  0.00    -0.775 OA
HETATM   18  H   UNK N   1      34.922  11.237  11.405  0.00  0.00     0.167 HD
ENDBRANCH  15  17
ENDBRANCH   1  15
TORSDOF 6
ENDMDL
MODEL 4
REMARK VINA RESULT:      -5.2      9.179     10.904
REMARK  6 active torsions:
REMARK  status: ('A' for Active; 'I' for Inactive)
REMARK    1  A    between atoms: O_1  and  C_9 
REMARK    2  A    between atoms: O_3  and  C_14 
REMARK    3  A    between atoms: C_5  and  N_4 
REMARK    4  A    between atoms: C_5  and  C_6 
REMARK    5  A    between atoms: C_5  and  C_9 
REMARK    6  A    between atoms: C_6  and  C_7 
ROOT
HETATM    1  C   UNK N   1      33.501  16.924   8.620  0.00  0.00     0.110 C 
HETATM    2  C   UNK N   1      32.727  15.631   8.871  0.00  0.00     0.050 C 
ENDROOT
BRANCH   1   3
HETATM    3  N   UNK N   1      34.326  17.179   9.789  0.00  0.00    -0.413 N 
HETATM    4  H   UNK N   1      34.735  16.471  10.399  0.00  0.00     0.151 HD
HETATM    5  H   UNK N   1      34.513  18.156  10.022  0.00  0.00     0.151 HD
ENDBRANCH   1   3
BRANCH   1   6
HETATM    6  C   UNK N   1      32.605  18.163   8.395  0.00  0.00     0.080 C 
BRANCH   6   7
HETATM    7  C   UNK N   1      31.139  17.890   8.257  0.00  0.00    -0.055 A 
HETATM    8  C   UNK N   1      30.653  17.264   7.104  0.00  0.00     0.010 A 
HETATM    9  C   UNK N   1      29.294  16.965   6.987  0.00  0.00     0.037 A 
HETATM   10  C   UNK N   1      28.417  17.291   8.025  0.00  0.00     0.065 A 
HETATM   11  C   UNK N   1      28.897  17.931   9.173  0.00  0.00     0.037 A 
HETATM   12  C   UNK N   1      30.258  18.233   9.289  0.00  0.00     0.010 A 
BRANCH  10  13
HETATM   13  O   UNK N   1      27.114  16.985   7.920  0.00  0.00    -0.361 OA
HETATM   14  H   UNK N   1      26.826  16.125   7.679  0.00  0.00     0.217 HD
ENDBRANCH  10  13
ENDBRANCH   6   7
ENDBRANCH   1   6
BRANCH   1  15
HETATM   15  C   UNK N   1      34.378  16.719   7.412  0.00  0.00     0.168 C 
HETATM   16  O   UNK N   1      34.500  17.612   6.586  0.00  0.00    -0.648 OA
BRANCH  15  17
HETATM   17  O   UNK N   1      35.025  15.552   7.223  0.00  0.00    -0.775 OA
HETATM   18  H   UNK N   1      35.041  14.909   7.904  0.00  0.00     0.167 HD
ENDBRANCH  15  17
ENDBRANCH   1  15
TORSDOF 6
ENDMDL
MODEL 5
REMARK VINA RESULT:      -5.1     26.313     27.585
REMARK  6 active torsions:
REMARK  status: ('A' for Active; 'I' for Inactive)
REMARK    1  A    between atoms: O_1  and  C_9 
REMARK    2  A    between atoms: O_3  and  C_14 
REMARK    3  A    between atoms: C_5  and  N_4 
REMARK    4  A    between atoms: C_5  and  C_6 
REMARK    5  A    between atoms: C_5  and  C_9 
REMARK    6  A    between atoms: C_6  and  C_7 
ROOT
HETATM    1  C   UNK N   1      26.566  23.645  -7.128  0.00  0.00     0.110 C 
HETATM    2  C   UNK N   1      27.153  22.262  -7.404  0.00  0.00     0.050 C 
ENDROOT
BRANCH   1   3
HETATM    3  N   UNK N   1      27.668  24.592  -7.079  0.00  0.00    -0.413 N 
HETATM    4  H   UNK N   1      28.301  24.732  -6.292  0.00  0.00     0.151 HD
HETATM    5  H   UNK N   1      27.821  25.170  -7.907  0.00  0.00     0.151 HD
ENDBRANCH   1   3
BRANCH   1   6
HETATM    6  C   UNK N   1      25.794  23.748  -5.793  0.00  0.00     0.080 C 
BRANCH   6   7
HETATM    7  C   UNK N   1      25.779  25.102  -5.153  0.00  0.00    -0.055 A 
HETATM    8  C   UNK N   1      25.087  26.153  -5.764  0.00  0.00     0.010 A 
HETATM    9  C   UNK N   1      25.031  27.406  -5.151  0.00  0.00     0.037 A 
HETATM   10  C   UNK N   1      25.666  27.611  -3.923  0.00  0.00     0.065 A 
HETATM   11  C   UNK N   1      26.373  26.567  -3.317  0.00  0.00     0.037 A 
HETATM   12  C   UNK N   1      26.432  25.312  -3.932  0.00  0.00     0.010 A 
BRANCH  10  13
HETATM   13  O   UNK N   1      25.594  28.812  -3.325  0.00  0.00    -0.361 OA
HETATM   14  H   UNK N   1      25.256  29.565  -3.769  0.00  0.00     0.217 HD
ENDBRANCH  10  13
ENDBRANCH   6   7
ENDBRANCH   1   6
BRANCH   1  15
HETATM   15  C   UNK N   1      25.640  23.997  -8.264  0.00  0.00     0.168 C 
HETATM   16  O   UNK N   1      24.620  23.349  -8.446  0.00  0.00    -0.648 OA
BRANCH  15  17
HETATM   17  O   UNK N   1      25.932  25.017  -9.096  0.00  0.00    -0.775 OA
HETATM   18  H   UNK N   1      26.393  24.853  -9.895  0.00  0.00     0.167 HD
ENDBRANCH  15  17
ENDBRANCH   1  15
TORSDOF 6
ENDMDL
MODEL 6
REMARK VINA RESULT:      -5.0      9.266     11.901
REMARK  6 active torsions:
REMARK  status: ('A' for Active; 'I' for Inactive)
REMARK    1  A    between atoms: O_1  and  C_9 
REMARK    2  A    between atoms: O_3  and  C_14 
REMARK    3  A    between atoms: C_5  and  N_4 
REMARK    4  A    between atoms: C_5  and  C_6 
REMARK    5  A    between atoms: C_5  and  C_9 
REMARK    6  A    between atoms: C_6  and  C_7 
ROOT
HETATM    1  C   UNK N   1      33.908  17.022   8.396  0.00  0.00     0.110 C 
HETATM    2  C   UNK N   1      34.641  15.953   7.589  0.00  0.00     0.050 C 
ENDROOT
BRANCH   1   3
HETATM    3  N   UNK N   1      33.132  16.347   9.424  0.00  0.00    -0.413 N 
HETATM    4  H   UNK N   1      32.571  15.505   9.293  0.00  0.00     0.151 HD
HETATM    5  H   UNK N   1      33.150  16.751  10.361  0.00  0.00     0.151 HD
ENDBRANCH   1   3
BRANCH   1   6
HETATM    6  C   UNK N   1      32.935  17.887   7.562  0.00  0.00     0.080 C 
BRANCH   6   7
HETATM    7  C   UNK N   1      32.400  17.249   6.317  0.00  0.00    -0.055 A 
HETATM    8  C   UNK N   1      33.022  17.494   5.088  0.00  0.00     0.010 A 
HETATM    9  C   UNK N   1      32.557  16.867   3.930  0.00  0.00     0.037 A 
HETATM   10  C   UNK N   1      31.470  15.992   3.999  0.00  0.00     0.065 A 
HETATM   11  C   UNK N   1      30.836  15.758   5.224  0.00  0.00     0.037 A 
HETATM   12  C   UNK N   1      31.299  16.387   6.384  0.00  0.00     0.010 A 
BRANCH  10  13
HETATM   13  O   UNK N   1      31.037  15.375   2.888  0.00  0.00    -0.361 OA
HETATM   14  H   UNK N   1      31.222  15.711   2.033  0.00  0.00     0.217 HD
ENDBRANCH  10  13
ENDBRANCH   6   7
ENDBRANCH   1   6
BRANCH   1  15
HETATM   15  C   UNK N   1      34.938  17.914   9.039  0.00  0.00     0.168 C 
HETATM   16  O   UNK N   1      35.489  17.567  10.074  0.00  0.00    -0.648 OA
BRANCH  15  17
HETATM   17  O   UNK N   1      35.253  19.105   8.492  0.00  0.00    -0.775 OA
HETATM   18  H   UNK N   1      34.845  19.888   8.806  0.00  0.00     0.167 HD
ENDBRANCH  15  17
ENDBRANCH   1  15
TORSDOF 6
ENDMDL
MODEL 7
REMARK VINA RESULT:      -5.0      7.709     11.343
REMARK  6 active torsions:
REMARK  status: ('A' for Active; 'I' for Inactive)
REMARK    1  A    between atoms: O_1  and  C_9 
REMARK    2  A    between atoms: O_3  and  C_14 
REMARK    3  A    between atoms: C_5  and  N_4 
REMARK    4  A    between atoms: C_5  and  C_6 
REMARK    5  A    between atoms: C_5  and  C_9 
REMARK    6  A    between atoms: C_6  and  C_7 
ROOT
HETATM    1  C   UNK N   1      33.629  16.048   9.241  0.00  0.00     0.110 C 
HETATM    2  C   UNK N   1      34.147  15.092   8.170  0.00  0.00     0.050 C 
ENDROOT
BRANCH   1   3
HETATM    3  N   UNK N   1      32.622  15.341  10.017  0.00  0.00    -0.413 N 
HETATM    4  H   UNK N   1      31.887  14.744   9.638  0.00  0.00     0.151 HD
HETATM    5  H   UNK N   1      32.655  15.451  11.031  0.00  0.00     0.151 HD
ENDBRANCH   1   3
BRANCH   1   6
HETATM    6  C   UNK N   1      32.975  17.332   8.680  0.00  0.00     0.080 C 
BRANCH   6   7
HETATM    7  C   UNK N   1      32.614  17.296   7.227  0.00  0.00    -0.055 A 
HETATM    8  C   UNK N   1      31.304  16.989   6.843  0.00  0.00     0.010 A 
HETATM    9  C   UNK N   1      30.949  16.998   5.493  0.00  0.00     0.037 A 
HETATM   10  C   UNK N   1      31.903  17.316   4.522  0.00  0.00     0.065 A 
HETATM   11  C   UNK N   1      33.218  17.609   4.902  0.00  0.00     0.037 A 
HETATM   12  C   UNK N   1      33.575  17.597   6.254  0.00  0.00     0.010 A 
BRANCH  10  13
HETATM   13  O   UNK N   1      31.555  17.344   3.226  0.00  0.00    -0.361 OA
HETATM   14  H   UNK N   1      31.878  16.712   2.614  0.00  0.00     0.217 HD
ENDBRANCH  10  13
ENDBRANCH   6   7
ENDBRANCH   1   6
BRANCH   1  15
HETATM   15  C   UNK N   1      34.784  16.428  10.131  0.00  0.00     0.168 C 
HETATM   16  O   UNK N   1      35.387  17.474   9.939  0.00  0.00    -0.648 OA
BRANCH  15  17
HETATM   17  O   UNK N   1      35.172  15.617  11.136  0.00  0.00    -0.775 OA
HETATM   18  H   UNK N   1      36.074  15.585  11.391  0.00  0.00     0.167 HD
ENDBRANCH  15  17
ENDBRANCH   1  15
TORSDOF 6
ENDMDL
MODEL 8
REMARK VINA RESULT:      -5.0     27.454     28.555
REMARK  6 active torsions:
REMARK  status: ('A' for Active; 'I' for Inactive)
REMARK    1  A    between atoms: O_1  and  C_9 
REMARK    2  A    between atoms: O_3  and  C_14 
REMARK    3  A    between atoms: C_5  and  N_4 
REMARK    4  A    between atoms: C_5  and  C_6 
REMARK    5  A    between atoms: C_5  and  C_9 
REMARK    6  A    between atoms: C_6  and  C_7 
ROOT
HETATM    1  C   UNK N   1      26.113  24.662  -7.753  0.00  0.00     0.110 C 
HETATM    2  C   UNK N   1      25.936  24.104  -6.342  0.00  0.00     0.050 C 
ENDROOT
BRANCH   1   3
HETATM    3  N   UNK N   1      27.508  24.490  -8.126  0.00  0.00    -0.413 N 
HETATM    4  H   UNK N   1      27.949  24.854  -8.971  0.00  0.00     0.151 HD
HETATM    5  H   UNK N   1      28.098  23.957  -7.486  0.00  0.00     0.151 HD
ENDBRANCH   1   3
BRANCH   1   6
HETATM    6  C   UNK N   1      25.771  26.164  -7.884  0.00  0.00     0.080 C 
BRANCH   6   7
HETATM    7  C   UNK N   1      25.932  26.980  -6.639  0.00  0.00    -0.055 A 
HETATM    8  C   UNK N   1      24.884  27.056  -5.716  0.00  0.00     0.010 A 
HETATM    9  C   UNK N   1      25.043  27.778  -4.532  0.00  0.00     0.037 A 
HETATM   10  C   UNK N   1      26.253  28.425  -4.266  0.00  0.00     0.065 A 
HETATM   11  C   UNK N   1      27.298  28.365  -5.194  0.00  0.00     0.037 A 
HETATM   12  C   UNK N   1      27.138  27.644  -6.383  0.00  0.00     0.010 A 
BRANCH  10  13
HETATM   13  O   UNK N   1      26.412  29.103  -3.117  0.00  0.00    -0.361 OA
HETATM   14  H   UNK N   1      26.518  30.034  -3.104  0.00  0.00     0.217 HD
ENDBRANCH  10  13
ENDBRANCH   6   7
ENDBRANCH   1   6
BRANCH   1  15
HETATM   15  C   UNK N   1      25.234  23.870  -8.685  0.00  0.00     0.168 C 
HETATM   16  O   UNK N   1      25.138  24.195  -9.860  0.00  0.00    -0.648 OA
BRANCH  15  17
HETATM   17  O   UNK N   1      24.538  22.807  -8.235  0.00  0.00    -0.775 OA
HETATM   18  H   UNK N   1      24.527  22.010  -8.729  0.00  0.00     0.167 HD
ENDBRANCH  15  17
ENDBRANCH   1  15
TORSDOF 6
ENDMDL
MODEL 9
REMARK VINA RESULT:      -4.9     22.322     25.176
REMARK  6 active torsions:
REMARK  status: ('A' for Active; 'I' for Inactive)
REMARK    1  A    between atoms: O_1  and  C_9 
REMARK    2  A    between atoms: O_3  and  C_14 
REMARK    3  A    between atoms: C_5  and  N_4 
REMARK    4  A    between atoms: C_5  and  C_6 
REMARK    5  A    between atoms: C_5  and  C_9 
REMARK    6  A    between atoms: C_6  and  C_7 
ROOT
HETATM    1  C   UNK N   1      29.382  23.631  -3.494  0.00  0.00     0.110 C 
HETATM    2  C   UNK N   1      30.099  24.974  -3.623  0.00  0.00     0.050 C 
ENDROOT
BRANCH   1   3
HETATM    3  N   UNK N   1      29.321  23.033  -4.817  0.00  0.00    -0.413 N 
HETATM    4  H   UNK N   1      30.117  22.695  -5.358  0.00  0.00     0.151 HD
HETATM    5  H   UNK N   1      28.398  22.942  -5.244  0.00  0.00     0.151 HD
ENDBRANCH   1   3
BRANCH   1   6
HETATM    6  C   UNK N   1      27.937  23.737  -2.956  0.00  0.00     0.080 C 
BRANCH   6   7
HETATM    7  C   UNK N   1      27.019  24.635  -3.727  0.00  0.00    -0.055 A 
HETATM    8  C   UNK N   1      26.853  25.966  -3.330  0.00  0.00     0.010 A 
HETATM    9  C   UNK N   1      26.034  26.822  -4.070  0.00  0.00     0.037 A 
HETATM   10  C   UNK N   1      25.381  26.348  -5.211  0.00  0.00     0.065 A 
HETATM   11  C   UNK N   1      25.532  25.013  -5.601  0.00  0.00     0.037 A 
HETATM   12  C   UNK N   1      26.350  24.155  -4.859  0.00  0.00     0.010 A 
BRANCH  10  13
HETATM   13  O   UNK N   1      24.610  27.177  -5.933  0.00  0.00    -0.361 OA
HETATM   14  H   UNK N   1      24.837  27.425  -6.808  0.00  0.00     0.217 HD
ENDBRANCH  10  13
ENDBRANCH   6   7
ENDBRANCH   1   6
BRANCH   1  15
HETATM   15  C   UNK N   1      30.191  22.753  -2.574  0.00  0.00     0.168 C 
HETATM   16  O   UNK N   1      30.338  23.067  -1.402  0.00  0.00    -0.648 OA
BRANCH  15  17
HETATM   17  O   UNK N   1      30.768  21.626  -3.034  0.00  0.00    -0.775 OA
HETATM   18  H   UNK N   1      31.646  21.648  -3.361  0.00  0.00     0.167 HD
ENDBRANCH  15  17
ENDBRANCH   1  15
TORSDOF 6
ENDMDL
