REMARK  6 active torsions:
REMARK  status: ('A' for Active; 'I' for Inactive)
REMARK    1  A    between atoms: O_1  and  C_9 
REMARK    2  A    between atoms: O_3  and  C_14 
REMARK    3  A    between atoms: C_5  and  N_4 
REMARK    4  A    between atoms: C_5  and  C_6 
REMARK    5  A    between atoms: C_5  and  C_9 
REMARK    6  A    between atoms: C_6  and  C_7 
ROOT
HETATM    1  C   UNK N   1       3.119   1.999   0.373  0.00  0.00     0.110 C 
HETATM    2  C   UNK N   1       3.657   1.116   1.497  0.00  0.00     0.050 C 
ENDROOT
BRANCH   1   3
HETATM    3  N   UNK N   1       2.240   2.991   0.971  0.00  0.00    -0.413 N 
HETATM    4  H   UNK N   1       2.533   3.873   1.391  0.00  0.00     0.151 HD
HETATM    5  H   UNK N   1       1.240   2.786   0.971  0.00  0.00     0.151 HD
ENDBRANCH   1   3
BRANCH   1   6
HETATM    6  C   UNK N   1       2.308   1.234  -0.698  0.00  0.00     0.080 C 
BRANCH   6   7
HETATM    7  C   UNK N   1       2.066  -0.217  -0.418  0.00  0.00    -0.055 A 
HETATM    8  C   UNK N   1       3.100  -1.142  -0.597  0.00  0.00     0.010 A 
HETATM    9  C   UNK N   1       2.895  -2.490  -0.295  0.00  0.00     0.037 A 
HETATM   10  C   UNK N   1       1.655  -2.916   0.189  0.00  0.00     0.065 A 
HETATM   11  C   UNK N   1       0.614  -1.996   0.354  0.00  0.00     0.037 A 
HETATM   12  C   UNK N   1       0.818  -0.646   0.049  0.00  0.00     0.010 A 
BRANCH  10  13
HETATM   13  O   UNK N   1       1.466  -4.209   0.498  0.00  0.00    -0.361 OA
HETATM   14  H   UNK N   1       0.618  -4.546   0.713  0.00  0.00     0.217 HD
ENDBRANCH  10  13
ENDBRANCH   6   7
ENDBRANCH   1   6
BRANCH   1  15
HETATM   15  C   UNK N   1       4.288   2.685  -0.286  0.00  0.00     0.168 C 
HETATM   16  O   UNK N   1       5.164   2.022  -0.822  0.00  0.00    -0.648 OA
BRANCH  15  17
HETATM   17  O   UNK N   1       4.387   4.029  -0.281  0.00  0.00    -0.775 OA
HETATM   18  H   UNK N   1       5.231   4.437  -0.277  0.00  0.00     0.167 HD
ENDBRANCH  15  17
ENDBRANCH   1  15
TORSDOF 6
