MODEL 1
REMARK VINA RESULT:      -5.1      0.000      0.000
REMARK  4 active torsions:
REMARK  status: ('A' for Active; 'I' for Inactive)
REMARK    1  A    between atoms: O_3  and  C_12 
REMARK    2  A    between atoms: O_5  and  C_14 
REMARK    3  A    between atoms: C_8  and  C_12 
REMARK    4  A    between atoms: C_13  and  C_14 
ROOT
HETATM    1  O   UNK N   1      35.367  17.057  10.143  0.00  0.00    -0.332 OA
HETATM    2  O   UNK N   1      34.508  13.662  12.110  0.00  0.00    -0.279 OA
HETATM    3  N   UNK N   1      35.428  14.869  10.400  0.00  0.00    -0.204 NA
HETATM    4  C   UNK N   1      36.111  16.070  10.754  0.00  0.00     0.219 A 
HETATM    5  C   UNK N   1      34.421  15.021   9.352  0.00  0.00     0.222 C 
HETATM    6  C   UNK N   1      35.858  15.709  12.302  0.00  0.00     0.145 A 
HETATM    7  C   UNK N   1      35.254  14.514  11.652  0.00  0.00     0.206 A 
HETATM    8  C   UNK N   1      34.491  16.520   9.259  0.00  0.00     0.075 C 
HETATM    9  C   UNK N   1      33.794  17.251   8.381  0.00  0.00     0.033 C 
ENDROOT
BRANCH   5  10
HETATM   10  C   UNK N   1      32.980  14.573   9.589  0.00  0.00     0.165 C 
HETATM   11  O   UNK N   1      32.397  13.815   8.839  0.00  0.00    -0.649 OA
BRANCH  10  12
HETATM   12  O   UNK N   1      32.313  15.070  10.650  0.00  0.00    -0.775 OA
HETATM   13  H   UNK N   1      32.075  14.506  11.359  0.00  0.00     0.167 HD
ENDBRANCH  10  12
ENDBRANCH   5  10
BRANCH   9  14
HETATM   14  C   UNK N   1      33.932  18.735   8.295  0.00  0.00     0.194 C 
BRANCH  14  15
HETATM   15  O   UNK N   1      35.283  19.077   8.360  0.00  0.00    -0.397 OA
HETATM   16  H   UNK N   1      35.929  19.277   7.665  0.00  0.00     0.209 HD
ENDBRANCH  14  15
ENDBRANCH   9  14
TORSDOF 4
ENDMDL
MODEL 2
REMARK VINA RESULT:      -4.9      2.784      4.484
REMARK  4 active torsions:
REMARK  status: ('A' for Active; 'I' for Inactive)
REMARK    1  A    between atoms: O_3  and  C_12 
REMARK    2  A    between atoms: O_5  and  C_14 
REMARK    3  A    between atoms: C_8  and  C_12 
REMARK    4  A    between atoms: C_13  and  C_14 
ROOT
HETATM    1  O   UNK N   1      31.691  15.858   8.191  0.00  0.00    -0.332 OA
HETATM    2  O   UNK N   1      35.501  15.375   7.016  0.00  0.00    -0.279 OA
HETATM    3  N   UNK N   1      33.850  15.645   8.575  0.00  0.00    -0.204 NA
HETATM    4  C   UNK N   1      32.654  14.891   8.383  0.00  0.00     0.219 A 
HETATM    5  C   UNK N   1      33.647  17.076   8.784  0.00  0.00     0.222 C 
HETATM    6  C   UNK N   1      33.352  14.182   7.119  0.00  0.00     0.145 A 
HETATM    7  C   UNK N   1      34.471  15.047   7.584  0.00  0.00     0.206 A 
HETATM    8  C   UNK N   1      32.168  17.083   8.520  0.00  0.00     0.075 C 
HETATM    9  C   UNK N   1      31.391  18.168   8.628  0.00  0.00     0.033 C 
ENDROOT
BRANCH   5  10
HETATM   10  C   UNK N   1      34.348  18.099   7.892  0.00  0.00     0.165 C 
HETATM   11  O   UNK N   1      34.996  19.025   8.339  0.00  0.00    -0.649 OA
BRANCH  10  12
HETATM   12  O   UNK N   1      34.209  17.996   6.556  0.00  0.00    -0.775 OA
HETATM   13  H   UNK N   1      34.259  18.763   6.019  0.00  0.00     0.167 HD
ENDBRANCH  10  12
ENDBRANCH   5  10
BRANCH   9  14
HETATM   14  C   UNK N   1      29.916  18.115   8.400  0.00  0.00     0.194 C 
BRANCH  14  15
HETATM   15  O   UNK N   1      29.337  17.244   9.325  0.00  0.00    -0.397 OA
HETATM   16  H   UNK N   1      28.948  16.362   9.219  0.00  0.00     0.209 HD
ENDBRANCH  14  15
ENDBRANCH   9  14
TORSDOF 4
ENDMDL
MODEL 3
REMARK VINA RESULT:      -4.8      3.963      5.939
REMARK  4 active torsions:
REMARK  status: ('A' for Active; 'I' for Inactive)
REMARK    1  A    between atoms: O_3  and  C_12 
REMARK    2  A    between atoms: O_5  and  C_14 
REMARK    3  A    between atoms: C_8  and  C_12 
REMARK    4  A    between atoms: C_13  and  C_14 
ROOT
HETATM    1  O   UNK N   1      30.201  17.408   6.099  0.00  0.00    -0.332 OA
HETATM    2  O   UNK N   1      34.208  17.470   5.821  0.00  0.00    -0.279 OA
HETATM    3  N   UNK N   1      32.190  16.462   6.195  0.00  0.00    -0.204 NA
HETATM    4  C   UNK N   1      31.132  16.786   5.294  0.00  0.00     0.219 A 
HETATM    5  C   UNK N   1      31.858  16.610   7.609  0.00  0.00     0.222 C 
HETATM    6  C   UNK N   1      32.180  17.662   4.443  0.00  0.00     0.145 A 
HETATM    7  C   UNK N   1      33.084  17.121   5.494  0.00  0.00     0.206 A 
HETATM    8  C   UNK N   1      30.504  17.231   7.408  0.00  0.00     0.075 C 
HETATM    9  C   UNK N   1      29.667  17.546   8.403  0.00  0.00     0.033 C 
ENDROOT
BRANCH   5  10
HETATM   10  C   UNK N   1      32.712  17.491   8.520  0.00  0.00     0.165 C 
HETATM   11  O   UNK N   1      32.775  18.699   8.394  0.00  0.00    -0.649 OA
BRANCH  10  12
HETATM   12  O   UNK N   1      33.458  16.904   9.476  0.00  0.00    -0.775 OA
HETATM   13  H   UNK N   1      33.267  16.027   9.745  0.00  0.00     0.167 HD
ENDBRANCH  10  12
ENDBRANCH   5  10
BRANCH   9  14
HETATM   14  C   UNK N   1      28.311  18.119   8.151  0.00  0.00     0.194 C 
BRANCH  14  15
HETATM   15  O   UNK N   1      27.588  18.135   9.344  0.00  0.00    -0.397 OA
HETATM   16  H   UNK N   1      27.546  17.502  10.078  0.00  0.00     0.209 HD
ENDBRANCH  14  15
ENDBRANCH   9  14
TORSDOF 4
ENDMDL
MODEL 4
REMARK VINA RESULT:      -4.8      2.343      3.940
REMARK  4 active torsions:
REMARK  status: ('A' for Active; 'I' for Inactive)
REMARK    1  A    between atoms: O_3  and  C_12 
REMARK    2  A    between atoms: O_5  and  C_14 
REMARK    3  A    between atoms: C_8  and  C_12 
REMARK    4  A    between atoms: C_13  and  C_14 
ROOT
HETATM    1  O   UNK N   1      35.249  12.828  10.475  0.00  0.00    -0.332 OA
HETATM    2  O   UNK N   1      36.411  15.093  13.581  0.00  0.00    -0.279 OA
HETATM    3  N   UNK N   1      34.868  14.237  12.127  0.00  0.00    -0.204 NA
HETATM    4  C   UNK N   1      34.970  12.846  11.825  0.00  0.00     0.219 A 
HETATM    5  C   UNK N   1      34.801  15.114  10.961  0.00  0.00     0.222 C 
HETATM    6  C   UNK N   1      36.165  12.743  12.898  0.00  0.00     0.145 A 
HETATM    7  C   UNK N   1      35.801  14.178  13.049  0.00  0.00     0.206 A 
HETATM    8  C   UNK N   1      35.049  14.051   9.927  0.00  0.00     0.075 C 
HETATM    9  C   UNK N   1      35.042  14.271   8.607  0.00  0.00     0.033 C 
ENDROOT
BRANCH   5  10
HETATM   10  C   UNK N   1      35.799  16.258  10.791  0.00  0.00     0.165 C 
HETATM   11  O   UNK N   1      35.454  17.402  10.563  0.00  0.00    -0.649 OA
BRANCH  10  12
HETATM   12  O   UNK N   1      37.117  15.984  10.855  0.00  0.00    -0.775 OA
HETATM   13  H   UNK N   1      37.441  15.167  10.528  0.00  0.00     0.167 HD
ENDBRANCH  10  12
ENDBRANCH   5  10
BRANCH   9  14
HETATM   14  C   UNK N   1      35.247  13.173   7.617  0.00  0.00     0.194 C 
BRANCH  14  15
HETATM   15  O   UNK N   1      34.271  12.193   7.805  0.00  0.00    -0.397 OA
HETATM   16  H   UNK N   1      33.318  12.261   7.974  0.00  0.00     0.209 HD
ENDBRANCH  14  15
ENDBRANCH   9  14
TORSDOF 4
ENDMDL
MODEL 5
REMARK VINA RESULT:      -4.8     15.832     18.341
REMARK  4 active torsions:
REMARK  status: ('A' for Active; 'I' for Inactive)
REMARK    1  A    between atoms: O_3  and  C_12 
REMARK    2  A    between atoms: O_5  and  C_14 
REMARK    3  A    between atoms: C_8  and  C_12 
REMARK    4  A    between atoms: C_13  and  C_14 
ROOT
HETATM    1  O   UNK N   1      29.172  23.303  -5.287  0.00  0.00    -0.332 OA
HETATM    2  O   UNK N   1      25.292  24.055  -6.003  0.00  0.00    -0.279 OA
HETATM    3  N   UNK N   1      27.514  24.594  -5.951  0.00  0.00    -0.204 NA
HETATM    4  C   UNK N   1      28.428  23.600  -6.409  0.00  0.00     0.219 A 
HETATM    5  C   UNK N   1      27.820  25.149  -4.635  0.00  0.00     0.222 C 
HETATM    6  C   UNK N   1      27.168  22.683  -6.809  0.00  0.00     0.145 A 
HETATM    7  C   UNK N   1      26.462  23.897  -6.316  0.00  0.00     0.206 A 
HETATM    8  C   UNK N   1      28.953  24.217  -4.311  0.00  0.00     0.075 C 
HETATM    9  C   UNK N   1      29.693  24.293  -3.198  0.00  0.00     0.033 C 
ENDROOT
BRANCH   5  10
HETATM   10  C   UNK N   1      26.778  25.122  -3.518  0.00  0.00     0.165 C 
HETATM   11  O   UNK N   1      26.337  26.134  -3.007  0.00  0.00    -0.649 OA
BRANCH  10  12
HETATM   12  O   UNK N   1      26.360  23.930  -3.051  0.00  0.00    -0.775 OA
HETATM   13  H   UNK N   1      26.981  23.316  -2.711  0.00  0.00     0.167 HD
ENDBRANCH  10  12
ENDBRANCH   5  10
BRANCH   9  14
HETATM   14  C   UNK N   1      30.840  23.372  -2.942  0.00  0.00     0.194 C 
BRANCH  14  15
HETATM   15  O   UNK N   1      30.754  22.880  -1.638  0.00  0.00    -0.397 OA
HETATM   16  H   UNK N   1      30.211  22.176  -1.252  0.00  0.00     0.209 HD
ENDBRANCH  14  15
ENDBRANCH   9  14
TORSDOF 4
ENDMDL
MODEL 6
REMARK VINA RESULT:      -4.8     17.910     20.088
REMARK  4 active torsions:
REMARK  status: ('A' for Active; 'I' for Inactive)
REMARK    1  A    between atoms: O_3  and  C_12 
REMARK    2  A    between atoms: O_5  and  C_14 
REMARK    3  A    between atoms: C_8  and  C_12 
REMARK    4  A    between atoms: C_13  and  C_14 
ROOT
HETATM    1  O   UNK N   1      25.421  24.971  -6.828  0.00  0.00    -0.332 OA
HETATM    2  O   UNK N   1      26.032  27.235  -3.568  0.00  0.00    -0.279 OA
HETATM    3  N   UNK N   1      26.619  26.346  -5.591  0.00  0.00    -0.204 NA
HETATM    4  C   UNK N   1      25.610  26.317  -6.599  0.00  0.00     0.219 A 
HETATM    5  C   UNK N   1      27.287  25.069  -5.354  0.00  0.00     0.222 C 
HETATM    6  C   UNK N   1      24.638  27.109  -5.590  0.00  0.00     0.145 A 
HETATM    7  C   UNK N   1      25.874  27.041  -4.763  0.00  0.00     0.206 A 
HETATM    8  C   UNK N   1      26.408  24.242  -6.251  0.00  0.00     0.075 C 
HETATM    9  C   UNK N   1      26.590  22.938  -6.486  0.00  0.00     0.033 C 
ENDROOT
BRANCH   5  10
HETATM   10  C   UNK N   1      27.330  24.462  -3.952  0.00  0.00     0.165 C 
HETATM   11  O   UNK N   1      28.371  24.181  -3.391  0.00  0.00    -0.649 OA
BRANCH  10  12
HETATM   12  O   UNK N   1      26.168  24.191  -3.328  0.00  0.00    -0.775 OA
HETATM   13  H   UNK N   1      26.111  24.253  -2.395  0.00  0.00     0.167 HD
ENDBRANCH  10  12
ENDBRANCH   5  10
BRANCH   9  14
HETATM   14  C   UNK N   1      25.717  22.169  -7.422  0.00  0.00     0.194 C 
BRANCH  14  15
HETATM   15  O   UNK N   1      24.443  22.043  -6.866  0.00  0.00    -0.397 OA
HETATM   16  H   UNK N   1      23.850  21.280  -6.788  0.00  0.00     0.209 HD
ENDBRANCH  14  15
ENDBRANCH   9  14
TORSDOF 4
ENDMDL
MODEL 7
REMARK VINA RESULT:      -4.7      2.944      5.082
REMARK  4 active torsions:
REMARK  status: ('A' for Active; 'I' for Inactive)
REMARK    1  A    between atoms: O_3  and  C_12 
REMARK    2  A    between atoms: O_5  and  C_14 
REMARK    3  A    between atoms: C_8  and  C_12 
REMARK    4  A    between atoms: C_13  and  C_14 
ROOT
HETATM    1  O   UNK N   1      32.322  16.082   9.035  0.00  0.00    -0.332 OA
HETATM    2  O   UNK N   1      31.884  17.453   5.285  0.00  0.00    -0.279 OA
HETATM    3  N   UNK N   1      32.017  15.809   6.869  0.00  0.00    -0.204 NA
HETATM    4  C   UNK N   1      31.318  16.035   8.092  0.00  0.00     0.219 A 
HETATM    5  C   UNK N   1      33.421  15.436   7.025  0.00  0.00     0.222 C 
HETATM    6  C   UNK N   1      30.737  17.397   7.460  0.00  0.00     0.145 A 
HETATM    7  C   UNK N   1      31.519  16.884   6.302  0.00  0.00     0.206 A 
HETATM    8  C   UNK N   1      33.492  15.639   8.513  0.00  0.00     0.075 C 
HETATM    9  C   UNK N   1      34.575  15.382   9.255  0.00  0.00     0.033 C 
ENDROOT
BRANCH   5  10
HETATM   10  C   UNK N   1      34.520  16.237   6.330  0.00  0.00     0.165 C 
HETATM   11  O   UNK N   1      35.381  15.716   5.648  0.00  0.00    -0.649 OA
BRANCH  10  12
HETATM   12  O   UNK N   1      34.563  17.571   6.512  0.00  0.00    -0.775 OA
HETATM   13  H   UNK N   1      33.812  18.095   6.315  0.00  0.00     0.167 HD
ENDBRANCH  10  12
ENDBRANCH   5  10
BRANCH   9  14
HETATM   14  C   UNK N   1      34.582  15.555  10.738  0.00  0.00     0.194 C 
BRANCH  14  15
HETATM   15  O   UNK N   1      33.485  14.888  11.286  0.00  0.00    -0.397 OA
HETATM   16  H   UNK N   1      33.388  14.377  12.104  0.00  0.00     0.209 HD
ENDBRANCH  14  15
ENDBRANCH   9  14
TORSDOF 4
ENDMDL
MODEL 8
REMARK VINA RESULT:      -4.6      2.110      4.640
REMARK  4 active torsions:
REMARK  status: ('A' for Active; 'I' for Inactive)
REMARK    1  A    between atoms: O_3  and  C_12 
REMARK    2  A    between atoms: O_5  and  C_14 
REMARK    3  A    between atoms: C_8  and  C_12 
REMARK    4  A    between atoms: C_13  and  C_14 
ROOT
HETATM    1  O   UNK N   1      36.105  13.087  11.198  0.00  0.00    -0.332 OA
HETATM    2  O   UNK N   1      35.059  14.901   7.771  0.00  0.00    -0.279 OA
HETATM    3  N   UNK N   1      36.528  14.329   9.427  0.00  0.00    -0.204 NA
HETATM    4  C   UNK N   1      36.493  12.976   9.880  0.00  0.00     0.219 A 
HETATM    5  C   UNK N   1      36.440  15.332  10.485  0.00  0.00     0.222 C 
HETATM    6  C   UNK N   1      35.401  12.666   8.739  0.00  0.00     0.145 A 
HETATM    7  C   UNK N   1      35.681  14.099   8.450  0.00  0.00     0.206 A 
HETATM    8  C   UNK N   1      36.177  14.375  11.613  0.00  0.00     0.075 C 
HETATM    9  C   UNK N   1      36.060  14.739  12.896  0.00  0.00     0.033 C 
ENDROOT
BRANCH   5  10
HETATM   10  C   UNK N   1      35.358  16.410  10.445  0.00  0.00     0.165 C 
HETATM   11  O   UNK N   1      35.615  17.595  10.351  0.00  0.00    -0.649 OA
BRANCH  10  12
HETATM   12  O   UNK N   1      34.068  16.038  10.559  0.00  0.00    -0.775 OA
HETATM   13  H   UNK N   1      33.641  15.604   9.847  0.00  0.00     0.167 HD
ENDBRANCH  10  12
ENDBRANCH   5  10
BRANCH   9  14
HETATM   14  C   UNK N   1      35.846  13.745  13.988  0.00  0.00     0.194 C 
BRANCH  14  15
HETATM   15  O   UNK N   1      34.626  13.096  13.789  0.00  0.00    -0.397 OA
HETATM   16  H   UNK N   1      33.712  13.413  13.857  0.00  0.00     0.209 HD
ENDBRANCH  14  15
ENDBRANCH   9  14
TORSDOF 4
ENDMDL
MODEL 9
REMARK VINA RESULT:      -4.6     11.658     13.275
REMARK  4 active torsions:
REMARK  status: ('A' for Active; 'I' for Inactive)
REMARK    1  A    between atoms: O_3  and  C_12 
REMARK    2  A    between atoms: O_5  and  C_14 
REMARK    3  A    between atoms: C_8  and  C_12 
REMARK    4  A    between atoms: C_13  and  C_14 
ROOT
HETATM    1  O   UNK N   1      21.625  13.557  10.341  0.00  0.00    -0.332 OA
HETATM    2  O   UNK N   1      21.047  14.851   6.583  0.00  0.00    -0.279 OA
HETATM    3  N   UNK N   1      20.693  13.440   8.347  0.00  0.00    -0.204 NA
HETATM    4  C   UNK N   1      20.546  14.041   9.632  0.00  0.00     0.219 A 
HETATM    5  C   UNK N   1      21.681  12.366   8.281  0.00  0.00     0.222 C 
HETATM    6  C   UNK N   1      20.627  15.483   8.922  0.00  0.00     0.145 A 
HETATM    7  C   UNK N   1      20.706  14.598   7.728  0.00  0.00     0.206 A 
HETATM    8  C   UNK N   1      22.217  12.535   9.675  0.00  0.00     0.075 C 
HETATM    9  C   UNK N   1      23.151  11.748  10.221  0.00  0.00     0.033 C 
ENDROOT
BRANCH   5  10
HETATM   10  C   UNK N   1      22.822  12.422   7.266  0.00  0.00     0.165 C 
HETATM   11  O   UNK N   1      23.007  11.551   6.439  0.00  0.00    -0.649 OA
BRANCH  10  12
HETATM   12  O   UNK N   1      23.683  13.456   7.316  0.00  0.00    -0.775 OA
HETATM   13  H   UNK N   1      23.902  13.922   6.533  0.00  0.00     0.167 HD
ENDBRANCH  10  12
ENDBRANCH   5  10
BRANCH   9  14
HETATM   14  C   UNK N   1      23.618  11.926  11.627  0.00  0.00     0.194 C 
BRANCH  14  15
HETATM   15  O   UNK N   1      24.955  12.325  11.622  0.00  0.00    -0.397 OA
HETATM   16  H   UNK N   1      25.623  12.322  10.919  0.00  0.00     0.209 HD
ENDBRANCH  14  15
ENDBRANCH   9  14
TORSDOF 4
ENDMDL
