REMARK  4 active torsions:
REMARK  status: ('A' for Active; 'I' for Inactive)
REMARK    1  A    between atoms: O_3  and  C_12 
REMARK    2  A    between atoms: O_5  and  C_14 
REMARK    3  A    between atoms: C_8  and  C_12 
REMARK    4  A    between atoms: C_13  and  C_14 
ROOT
HETATM    1  O   UNK N   1       3.572   1.811  -0.383  0.00  0.00    -0.332 OA
HETATM    2  O   UNK N   1       1.067  -1.327  -0.281  0.00  0.00    -0.279 OA
HETATM    3  N   UNK N   1       2.388   0.279   0.670  0.00  0.00    -0.204 NA
HETATM    4  C   UNK N   1       2.306   1.591   0.116  0.00  0.00     0.219 A 
HETATM    5  C   UNK N   1       3.743  -0.253   0.789  0.00  0.00     0.222 C 
HETATM    6  C   UNK N   1       1.135   1.064  -0.854  0.00  0.00     0.145 A 
HETATM    7  C   UNK N   1       1.398  -0.171  -0.066  0.00  0.00     0.206 A 
HETATM    8  C   UNK N   1       4.436   0.869   0.068  0.00  0.00     0.075 C 
HETATM    9  C   UNK N   1       5.762   0.956  -0.088  0.00  0.00     0.033 C 
ENDROOT
BRANCH   5  10
HETATM   10  C   UNK N   1       4.110  -1.594   0.155  0.00  0.00     0.165 C 
HETATM   11  O   UNK N   1       3.279  -2.348  -0.313  0.00  0.00    -0.649 OA
BRANCH  10  12
HETATM   12  O   UNK N   1       5.402  -1.976   0.150  0.00  0.00    -0.775 OA
HETATM   13  H   UNK N   1       5.621  -2.887   0.146  0.00  0.00     0.167 HD
ENDBRANCH  10  12
ENDBRANCH   5  10
BRANCH   9  14
HETATM   14  C   UNK N   1       6.408   2.115  -0.772  0.00  0.00     0.194 C 
BRANCH  14  15
HETATM   15  O   UNK N   1       7.451   2.596   0.021  0.00  0.00    -0.397 OA
HETATM   16  H   UNK N   1       8.103   2.136   0.572  0.00  0.00     0.209 HD
ENDBRANCH  14  15
ENDBRANCH   9  14
TORSDOF 4
