MODEL 1
REMARK VINA RESULT:      -6.8      0.000      0.000
REMARK  6 active torsions:
REMARK  status: ('A' for Active; 'I' for Inactive)
REMARK    1  A    between atoms: O_2  and  C_25 
REMARK    2  A    between atoms: N_4  and  C_13 
REMARK    3  A    between atoms: C_10  and  C_11 
REMARK    4  A    between atoms: C_10  and  C_13 
REMARK    5  A    between atoms: C_15  and  C_20 
REMARK    6  A    between atoms: C_20  and  C_25 
ROOT
HETATM    1  O   UNK N   1      26.091  26.599  -4.147  0.00  0.00    -0.346 OA
HETATM    2  C   UNK N   1      27.239  27.378  -6.855  0.00  0.00    -0.016 C 
HETATM    3  C   UNK N   1      26.622  26.025  -6.453  0.00  0.00     0.009 A 
HETATM    4  C   UNK N   1      27.315  28.601  -5.954  0.00  0.00    -0.017 A 
HETATM    5  C   UNK N   1      26.554  28.784  -4.777  0.00  0.00    -0.023 A 
HETATM    6  C   UNK N   1      26.148  25.705  -5.142  0.00  0.00     0.080 A 
HETATM    7  C   UNK N   1      27.895  27.517  -8.046  0.00  0.00    -0.012 C 
HETATM    8  C   UNK N   1      25.530  27.822  -4.356  0.00  0.00     0.215 C 
HETATM    9  C   UNK N   1      26.591  24.987  -7.405  0.00  0.00     0.022 A 
HETATM   10  C   UNK N   1      26.137  23.704  -7.110  0.00  0.00    -0.047 A 
HETATM   11  C   UNK N   1      28.213  29.635  -6.309  0.00  0.00     0.013 A 
HETATM   12  C   UNK N   1      25.717  24.403  -4.848  0.00  0.00     0.038 A 
HETATM   13  C   UNK N   1      26.714  29.934  -3.993  0.00  0.00     0.010 A 
HETATM   14  C   UNK N   1      25.714  23.408  -5.819  0.00  0.00     0.010 A 
HETATM   15  C   UNK N   1      28.368  30.777  -5.524  0.00  0.00     0.001 A 
HETATM   16  C   UNK N   1      27.624  30.923  -4.359  0.00  0.00     0.001 A 
ENDROOT
BRANCH   7  17
HETATM   17  C   UNK N   1      28.134  26.482  -9.107  0.00  0.00     0.058 C 
BRANCH  17  18
HETATM   18  C   UNK N   1      27.680  26.941 -10.487  0.00  0.00     0.275 C 
BRANCH  18  19
HETATM   19  N   UNK N   1      26.373  26.397 -10.842  0.00  0.00     0.080 N 
HETATM   20  C   UNK N   1      25.982  27.043 -12.082  0.00  0.00     0.309 C 
HETATM   21  C   UNK N   1      26.506  24.979 -11.151  0.00  0.00     0.309 C 
ENDBRANCH  18  19
ENDBRANCH  17  18
ENDBRANCH   7  17
BRANCH  10  22
HETATM   22  C   UNK N   1      26.179  22.649  -8.170  0.00  0.00     0.148 C 
BRANCH  22  23
HETATM   23  C   UNK N   1      25.069  21.651  -8.046  0.00  0.00     0.143 C 
HETATM   24  O   UNK N   1      25.320  20.466  -7.893  0.00  0.00    -0.650 OA
BRANCH  23  25
HETATM   25  O   UNK N   1      23.791  22.057  -8.146  0.00  0.00    -0.776 OA
HETATM   26  H   UNK N   1      23.395  22.793  -8.568  0.00  0.00     0.167 HD
ENDBRANCH  23  25
ENDBRANCH  22  23
ENDBRANCH  10  22
TORSDOF 6
ENDMDL
MODEL 2
REMARK VINA RESULT:      -6.6     15.181     17.458
REMARK  6 active torsions:
REMARK  status: ('A' for Active; 'I' for Inactive)
REMARK    1  A    between atoms: O_2  and  C_25 
REMARK    2  A    between atoms: N_4  and  C_13 
REMARK    3  A    between atoms: C_10  and  C_11 
REMARK    4  A    between atoms: C_10  and  C_13 
REMARK    5  A    between atoms: C_15  and  C_20 
REMARK    6  A    between atoms: C_20  and  C_25 
ROOT
HETATM    1  O   UNK N   1      27.981  17.723   6.888  0.00  0.00    -0.346 OA
HETATM    2  C   UNK N   1      29.865  16.064   5.169  0.00  0.00    -0.016 C 
HETATM    3  C   UNK N   1      30.190  16.775   6.496  0.00  0.00     0.009 A 
HETATM    4  C   UNK N   1      28.490  16.022   4.519  0.00  0.00    -0.017 A 
HETATM    5  C   UNK N   1      27.277  16.323   5.178  0.00  0.00    -0.023 A 
HETATM    6  C   UNK N   1      29.269  17.587   7.230  0.00  0.00     0.080 A 
HETATM    7  C   UNK N   1      30.862  15.522   4.408  0.00  0.00    -0.012 C 
HETATM    8  C   UNK N   1      27.226  16.626   6.613  0.00  0.00     0.215 C 
HETATM    9  C   UNK N   1      31.504  16.702   6.997  0.00  0.00     0.022 A 
HETATM   10  C   UNK N   1      31.916  17.384   8.140  0.00  0.00    -0.047 A 
HETATM   11  C   UNK N   1      28.410  15.661   3.153  0.00  0.00     0.013 A 
HETATM   12  C   UNK N   1      29.701  18.290   8.364  0.00  0.00     0.038 A 
HETATM   13  C   UNK N   1      26.059  16.285   4.487  0.00  0.00     0.010 A 
HETATM   14  C   UNK N   1      31.012  18.196   8.816  0.00  0.00     0.010 A 
HETATM   15  C   UNK N   1      27.194  15.625   2.471  0.00  0.00     0.001 A 
HETATM   16  C   UNK N   1      26.017  15.948   3.136  0.00  0.00     0.001 A 
ENDROOT
BRANCH   7  17
HETATM   17  C   UNK N   1      32.339  15.511   4.674  0.00  0.00     0.058 C 
BRANCH  17  18
HETATM   18  C   UNK N   1      33.159  15.896   3.449  0.00  0.00     0.275 C 
BRANCH  18  19
HETATM   19  N   UNK N   1      34.110  14.853   3.078  0.00  0.00     0.080 N 
HETATM   20  C   UNK N   1      34.583  14.267   4.319  0.00  0.00     0.309 C 
HETATM   21  C   UNK N   1      33.411  13.788   2.371  0.00  0.00     0.309 C 
ENDBRANCH  18  19
ENDBRANCH  17  18
ENDBRANCH   7  17
BRANCH  10  22
HETATM   22  C   UNK N   1      33.344  17.286   8.578  0.00  0.00     0.148 C 
BRANCH  22  23
HETATM   23  C   UNK N   1      34.259  18.168   7.785  0.00  0.00     0.143 C 
HETATM   24  O   UNK N   1      34.428  17.967   6.593  0.00  0.00    -0.650 OA
BRANCH  23  25
HETATM   25  O   UNK N   1      34.931  19.158   8.399  0.00  0.00    -0.776 OA
HETATM   26  H   UNK N   1      34.814  20.087   8.408  0.00  0.00     0.167 HD
ENDBRANCH  23  25
ENDBRANCH  22  23
ENDBRANCH  10  22
TORSDOF 6
ENDMDL
MODEL 3
REMARK VINA RESULT:      -6.6     25.341     27.403
REMARK  6 active torsions:
REMARK  status: ('A' for Active; 'I' for Inactive)
REMARK    1  A    between atoms: O_2  and  C_25 
REMARK    2  A    between atoms: N_4  and  C_13 
REMARK    3  A    between atoms: C_10  and  C_11 
REMARK    4  A    between atoms: C_10  and  C_13 
REMARK    5  A    between atoms: C_15  and  C_20 
REMARK    6  A    between atoms: C_20  and  C_25 
ROOT
HETATM    1  O   UNK N   1      37.123   9.988  16.229  0.00  0.00    -0.346 OA
HETATM    2  C   UNK N   1      36.039  12.587  15.076  0.00  0.00    -0.016 C 
HETATM    3  C   UNK N   1      36.756  11.454  14.319  0.00  0.00     0.009 A 
HETATM    4  C   UNK N   1      35.687  12.557  16.556  0.00  0.00    -0.017 A 
HETATM    5  C   UNK N   1      35.659  11.392  17.355  0.00  0.00    -0.023 A 
HETATM    6  C   UNK N   1      37.292  10.278  14.932  0.00  0.00     0.080 A 
HETATM    7  C   UNK N   1      35.785  13.782  14.463  0.00  0.00    -0.012 C 
HETATM    8  C   UNK N   1      35.885  10.056  16.790  0.00  0.00     0.215 C 
HETATM    9  C   UNK N   1      36.987  11.606  12.938  0.00  0.00     0.022 A 
HETATM   10  C   UNK N   1      37.705  10.679  12.186  0.00  0.00    -0.047 A 
HETATM   11  C   UNK N   1      35.369  13.782  17.189  0.00  0.00     0.013 A 
HETATM   12  C   UNK N   1      38.036   9.364  14.171  0.00  0.00     0.038 A 
HETATM   13  C   UNK N   1      35.351  11.467  18.719  0.00  0.00     0.010 A 
HETATM   14  C   UNK N   1      38.247   9.561  12.811  0.00  0.00     0.010 A 
HETATM   15  C   UNK N   1      35.064  13.850  18.549  0.00  0.00     0.001 A 
HETATM   16  C   UNK N   1      35.065  12.692  19.318  0.00  0.00     0.001 A 
ENDROOT
BRANCH   7  17
HETATM   17  C   UNK N   1      36.124  14.204  13.063  0.00  0.00     0.058 C 
BRANCH  17  18
HETATM   18  C   UNK N   1      34.938  14.090  12.113  0.00  0.00     0.275 C 
BRANCH  18  19
HETATM   19  N   UNK N   1      34.738  15.312  11.340  0.00  0.00     0.080 N 
HETATM   20  C   UNK N   1      36.061  15.815  11.018  0.00  0.00     0.309 C 
HETATM   21  C   UNK N   1      34.111  14.982  10.066  0.00  0.00     0.309 C 
ENDBRANCH  18  19
ENDBRANCH  17  18
ENDBRANCH   7  17
BRANCH  10  22
HETATM   22  C   UNK N   1      37.942  10.940  10.731  0.00  0.00     0.148 C 
BRANCH  22  23
HETATM   23  C   UNK N   1      37.872  12.394  10.380  0.00  0.00     0.143 C 
HETATM   24  O   UNK N   1      37.023  12.800   9.602  0.00  0.00    -0.650 OA
BRANCH  23  25
HETATM   25  O   UNK N   1      38.776  13.250  10.889  0.00  0.00    -0.776 OA
HETATM   26  H   UNK N   1      39.054  14.104  10.624  0.00  0.00     0.167 HD
ENDBRANCH  23  25
ENDBRANCH  22  23
ENDBRANCH  10  22
TORSDOF 6
ENDMDL
MODEL 4
REMARK VINA RESULT:      -6.5     27.604     29.973
REMARK  6 active torsions:
REMARK  status: ('A' for Active; 'I' for Inactive)
REMARK    1  A    between atoms: O_2  and  C_25 
REMARK    2  A    between atoms: N_4  and  C_13 
REMARK    3  A    between atoms: C_10  and  C_11 
REMARK    4  A    between atoms: C_10  and  C_13 
REMARK    5  A    between atoms: C_15  and  C_20 
REMARK    6  A    between atoms: C_20  and  C_25 
ROOT
HETATM    1  O   UNK N   1      34.937  12.695  19.220  0.00  0.00    -0.346 OA
HETATM    2  C   UNK N   1      35.076  10.179  17.515  0.00  0.00    -0.016 C 
HETATM    3  C   UNK N   1      35.509  11.604  17.119  0.00  0.00     0.009 A 
HETATM    4  C   UNK N   1      34.556   9.777  18.887  0.00  0.00    -0.017 A 
HETATM    5  C   UNK N   1      34.707  10.546  20.063  0.00  0.00    -0.023 A 
HETATM    6  C   UNK N   1      35.366  12.758  17.953  0.00  0.00     0.080 A 
HETATM    7  C   UNK N   1      35.012   9.187  16.577  0.00  0.00    -0.012 C 
HETATM    8  C   UNK N   1      35.480  11.793  20.083  0.00  0.00     0.215 C 
HETATM    9  C   UNK N   1      36.004  11.823  15.819  0.00  0.00     0.022 A 
HETATM   10  C   UNK N   1      36.335  13.088  15.340  0.00  0.00    -0.047 A 
HETATM   11  C   UNK N   1      33.865   8.548  19.003  0.00  0.00     0.013 A 
HETATM   12  C   UNK N   1      35.678  14.030  17.452  0.00  0.00     0.038 A 
HETATM   13  C   UNK N   1      34.168  10.107  21.279  0.00  0.00     0.010 A 
HETATM   14  C   UNK N   1      36.154  14.199  16.157  0.00  0.00     0.010 A 
HETATM   15  C   UNK N   1      33.329   8.117  20.216  0.00  0.00     0.001 A 
HETATM   16  C   UNK N   1      33.472   8.902  21.354  0.00  0.00     0.001 A 
ENDROOT
BRANCH   7  17
HETATM   17  C   UNK N   1      35.313   9.268  15.109  0.00  0.00     0.058 C 
BRANCH  17  18
HETATM   18  C   UNK N   1      36.298   8.200  14.653  0.00  0.00     0.275 C 
BRANCH  18  19
HETATM   19  N   UNK N   1      37.182   8.686  13.597  0.00  0.00     0.080 N 
HETATM   20  C   UNK N   1      36.413   9.649  12.829  0.00  0.00     0.309 C 
HETATM   21  C   UNK N   1      38.283   9.432  14.192  0.00  0.00     0.309 C 
ENDBRANCH  18  19
ENDBRANCH  17  18
ENDBRANCH   7  17
BRANCH  10  22
HETATM   22  C   UNK N   1      36.812  13.237  13.930  0.00  0.00     0.148 C 
BRANCH  22  23
HETATM   23  C   UNK N   1      35.946  14.145  13.112  0.00  0.00     0.143 C 
HETATM   24  O   UNK N   1      34.808  13.812  12.820  0.00  0.00    -0.650 OA
BRANCH  23  25
HETATM   25  O   UNK N   1      36.437  15.313  12.662  0.00  0.00    -0.776 OA
HETATM   26  H   UNK N   1      36.476  15.692  11.806  0.00  0.00     0.167 HD
ENDBRANCH  23  25
ENDBRANCH  22  23
ENDBRANCH  10  22
TORSDOF 6
ENDMDL
MODEL 5
REMARK VINA RESULT:      -6.5      3.947      5.712
REMARK  6 active torsions:
REMARK  status: ('A' for Active; 'I' for Inactive)
REMARK    1  A    between atoms: O_2  and  C_25 
REMARK    2  A    between atoms: N_4  and  C_13 
REMARK    3  A    between atoms: C_10  and  C_11 
REMARK    4  A    between atoms: C_10  and  C_13 
REMARK    5  A    between atoms: C_15  and  C_20 
REMARK    6  A    between atoms: C_20  and  C_25 
ROOT
HETATM    1  O   UNK N   1      25.240  24.103  -7.317  0.00  0.00    -0.346 OA
HETATM    2  C   UNK N   1      27.740  24.220  -5.587  0.00  0.00    -0.016 C 
HETATM    3  C   UNK N   1      27.396  23.176  -6.666  0.00  0.00     0.009 A 
HETATM    4  C   UNK N   1      26.889  25.436  -5.250  0.00  0.00    -0.017 A 
HETATM    5  C   UNK N   1      25.868  25.959  -6.075  0.00  0.00    -0.023 A 
HETATM    6  C   UNK N   1      26.174  23.147  -7.409  0.00  0.00     0.080 A 
HETATM    7  C   UNK N   1      28.806  24.033  -4.752  0.00  0.00    -0.012 C 
HETATM    8  C   UNK N   1      25.591  25.415  -7.409  0.00  0.00     0.215 C 
HETATM    9  C   UNK N   1      28.297  22.118  -6.893  0.00  0.00     0.022 A 
HETATM   10  C   UNK N   1      28.033  21.078  -7.781  0.00  0.00    -0.047 A 
HETATM   11  C   UNK N   1      27.126  26.094  -4.020  0.00  0.00     0.013 A 
HETATM   12  C   UNK N   1      25.907  22.082  -8.281  0.00  0.00     0.038 A 
HETATM   13  C   UNK N   1      25.116  27.067  -5.666  0.00  0.00     0.010 A 
HETATM   14  C   UNK N   1      26.823  21.053  -8.466  0.00  0.00     0.010 A 
HETATM   15  C   UNK N   1      26.373  27.197  -3.618  0.00  0.00     0.001 A 
HETATM   16  C   UNK N   1      25.359  27.678  -4.438  0.00  0.00     0.001 A 
ENDROOT
BRANCH   7  17
HETATM   17  C   UNK N   1      29.768  22.881  -4.710  0.00  0.00     0.058 C 
BRANCH  17  18
HETATM   18  C   UNK N   1      30.016  22.376  -3.294  0.00  0.00     0.275 C 
BRANCH  18  19
HETATM   19  N   UNK N   1      30.891  21.209  -3.275  0.00  0.00     0.080 N 
HETATM   20  C   UNK N   1      30.971  20.733  -4.644  0.00  0.00     0.309 C 
HETATM   21  C   UNK N   1      32.241  21.621  -2.912  0.00  0.00     0.309 C 
ENDBRANCH  18  19
ENDBRANCH  17  18
ENDBRANCH   7  17
BRANCH  10  22
HETATM   22  C   UNK N   1      29.027  19.969  -7.930  0.00  0.00     0.148 C 
BRANCH  22  23
HETATM   23  C   UNK N   1      30.278  20.397  -8.633  0.00  0.00     0.143 C 
HETATM   24  O   UNK N   1      30.214  21.013  -9.685  0.00  0.00    -0.650 OA
BRANCH  23  25
HETATM   25  O   UNK N   1      31.478  20.063  -8.125  0.00  0.00    -0.776 OA
HETATM   26  H   UNK N   1      31.848  20.156  -7.270  0.00  0.00     0.167 HD
ENDBRANCH  23  25
ENDBRANCH  22  23
ENDBRANCH  10  22
TORSDOF 6
ENDMDL
MODEL 6
REMARK VINA RESULT:      -6.5      3.208      7.101
REMARK  6 active torsions:
REMARK  status: ('A' for Active; 'I' for Inactive)
REMARK    1  A    between atoms: O_2  and  C_25 
REMARK    2  A    between atoms: N_4  and  C_13 
REMARK    3  A    between atoms: C_10  and  C_11 
REMARK    4  A    between atoms: C_10  and  C_13 
REMARK    5  A    between atoms: C_15  and  C_20 
REMARK    6  A    between atoms: C_20  and  C_25 
ROOT
HETATM    1  O   UNK N   1      25.671  24.427  -7.467  0.00  0.00    -0.346 OA
HETATM    2  C   UNK N   1      27.777  23.737  -5.383  0.00  0.00    -0.016 C 
HETATM    3  C   UNK N   1      26.784  24.914  -5.356  0.00  0.00     0.009 A 
HETATM    4  C   UNK N   1      27.820  22.659  -6.455  0.00  0.00    -0.017 A 
HETATM    5  C   UNK N   1      26.778  22.390  -7.371  0.00  0.00    -0.023 A 
HETATM    6  C   UNK N   1      25.852  25.215  -6.399  0.00  0.00     0.080 A 
HETATM    7  C   UNK N   1      28.797  23.667  -4.476  0.00  0.00    -0.012 C 
HETATM    8  C   UNK N   1      25.489  23.088  -7.308  0.00  0.00     0.215 C 
HETATM    9  C   UNK N   1      26.839  25.820  -4.280  0.00  0.00     0.022 A 
HETATM   10  C   UNK N   1      26.045  26.963  -4.212  0.00  0.00    -0.047 A 
HETATM   11  C   UNK N   1      28.988  21.865  -6.555  0.00  0.00     0.013 A 
HETATM   12  C   UNK N   1      25.077  26.382  -6.335  0.00  0.00     0.038 A 
HETATM   13  C   UNK N   1      26.921  21.395  -8.346  0.00  0.00     0.010 A 
HETATM   14  C   UNK N   1      25.172  27.253  -5.256  0.00  0.00     0.010 A 
HETATM   15  C   UNK N   1      29.123  20.876  -7.528  0.00  0.00     0.001 A 
HETATM   16  C   UNK N   1      28.093  20.647  -8.432  0.00  0.00     0.001 A 
ENDROOT
BRANCH   7  17
HETATM   17  C   UNK N   1      29.136  24.630  -3.376  0.00  0.00     0.058 C 
BRANCH  17  18
HETATM   18  C   UNK N   1      30.414  25.413  -3.655  0.00  0.00     0.275 C 
BRANCH  18  19
HETATM   19  N   UNK N   1      30.155  26.839  -3.828  0.00  0.00     0.080 N 
HETATM   20  C   UNK N   1      31.228  27.537  -3.143  0.00  0.00     0.309 C 
HETATM   21  C   UNK N   1      30.281  27.188  -5.237  0.00  0.00     0.309 C 
ENDBRANCH  18  19
ENDBRANCH  17  18
ENDBRANCH   7  17
BRANCH  10  22
HETATM   22  C   UNK N   1      26.199  27.896  -3.052  0.00  0.00     0.148 C 
BRANCH  22  23
HETATM   23  C   UNK N   1      26.762  29.227  -3.444  0.00  0.00     0.143 C 
HETATM   24  O   UNK N   1      27.965  29.367  -3.592  0.00  0.00    -0.650 OA
BRANCH  23  25
HETATM   25  O   UNK N   1      25.942  30.283  -3.591  0.00  0.00    -0.776 OA
HETATM   26  H   UNK N   1      26.051  31.195  -3.408  0.00  0.00     0.167 HD
ENDBRANCH  23  25
ENDBRANCH  22  23
ENDBRANCH  10  22
TORSDOF 6
ENDMDL
MODEL 7
REMARK VINA RESULT:      -6.4      2.503      3.640
REMARK  6 active torsions:
REMARK  status: ('A' for Active; 'I' for Inactive)
REMARK    1  A    between atoms: O_2  and  C_25 
REMARK    2  A    between atoms: N_4  and  C_13 
REMARK    3  A    between atoms: C_10  and  C_11 
REMARK    4  A    between atoms: C_10  and  C_13 
REMARK    5  A    between atoms: C_15  and  C_20 
REMARK    6  A    between atoms: C_20  and  C_25 
ROOT
HETATM    1  O   UNK N   1      28.554  24.270  -4.232  0.00  0.00    -0.346 OA
HETATM    2  C   UNK N   1      26.413  24.344  -6.392  0.00  0.00    -0.016 C 
HETATM    3  C   UNK N   1      27.540  23.308  -6.226  0.00  0.00     0.009 A 
HETATM    4  C   UNK N   1      26.140  25.494  -5.434  0.00  0.00    -0.017 A 
HETATM    5  C   UNK N   1      26.644  25.583  -4.116  0.00  0.00    -0.023 A 
HETATM    6  C   UNK N   1      28.552  23.361  -5.216  0.00  0.00     0.080 A 
HETATM    7  C   UNK N   1      25.646  24.363  -7.523  0.00  0.00    -0.012 C 
HETATM    8  C   UNK N   1      27.425  24.499  -3.508  0.00  0.00     0.215 C 
HETATM    9  C   UNK N   1      27.653  22.274  -7.176  0.00  0.00     0.022 A 
HETATM   10  C   UNK N   1      28.690  21.345  -7.163  0.00  0.00    -0.047 A 
HETATM   11  C   UNK N   1      25.328  26.560  -5.887  0.00  0.00     0.013 A 
HETATM   12  C   UNK N   1      29.606  22.437  -5.227  0.00  0.00     0.038 A 
HETATM   13  C   UNK N   1      26.363  26.697  -3.316  0.00  0.00     0.010 A 
HETATM   14  C   UNK N   1      29.681  21.439  -6.191  0.00  0.00     0.010 A 
HETATM   15  C   UNK N   1      25.052  27.667  -5.086  0.00  0.00     0.001 A 
HETATM   16  C   UNK N   1      25.579  27.741  -3.802  0.00  0.00     0.001 A 
ENDROOT
BRANCH   7  17
HETATM   17  C   UNK N   1      25.736  23.471  -8.727  0.00  0.00     0.058 C 
BRANCH  17  18
HETATM   18  C   UNK N   1      26.060  24.238 -10.003  0.00  0.00     0.275 C 
BRANCH  18  19
HETATM   19  N   UNK N   1      25.760  25.661  -9.877  0.00  0.00     0.080 N 
HETATM   20  C   UNK N   1      26.931  26.372 -10.357  0.00  0.00     0.309 C 
HETATM   21  C   UNK N   1      24.676  26.009 -10.786  0.00  0.00     0.309 C 
ENDBRANCH  18  19
ENDBRANCH  17  18
ENDBRANCH   7  17
BRANCH  10  22
HETATM   22  C   UNK N   1      28.758  20.305  -8.237  0.00  0.00     0.148 C 
BRANCH  22  23
HETATM   23  C   UNK N   1      28.835  20.890  -9.613  0.00  0.00     0.143 C 
HETATM   24  O   UNK N   1      29.871  21.405 -10.006  0.00  0.00    -0.650 OA
BRANCH  23  25
HETATM   25  O   UNK N   1      27.748  20.888 -10.403  0.00  0.00    -0.776 OA
HETATM   26  H   UNK N   1      27.373  20.232 -10.957  0.00  0.00     0.167 HD
ENDBRANCH  23  25
ENDBRANCH  22  23
ENDBRANCH  10  22
TORSDOF 6
ENDMDL
MODEL 8
REMARK VINA RESULT:      -6.4      3.996      6.791
REMARK  6 active torsions:
REMARK  status: ('A' for Active; 'I' for Inactive)
REMARK    1  A    between atoms: O_2  and  C_25 
REMARK    2  A    between atoms: N_4  and  C_13 
REMARK    3  A    between atoms: C_10  and  C_11 
REMARK    4  A    between atoms: C_10  and  C_13 
REMARK    5  A    between atoms: C_15  and  C_20 
REMARK    6  A    between atoms: C_20  and  C_25 
ROOT
HETATM    1  O   UNK N   1      31.745  26.090  -4.002  0.00  0.00    -0.346 OA
HETATM    2  C   UNK N   1      29.154  24.501  -4.127  0.00  0.00    -0.016 C 
HETATM    3  C   UNK N   1      29.319  26.031  -4.197  0.00  0.00     0.009 A 
HETATM    4  C   UNK N   1      30.301  23.505  -4.048  0.00  0.00    -0.017 A 
HETATM    5  C   UNK N   1      31.648  23.800  -4.361  0.00  0.00    -0.023 A 
HETATM    6  C   UNK N   1      30.566  26.721  -4.077  0.00  0.00     0.080 A 
HETATM    7  C   UNK N   1      27.915  23.940  -3.995  0.00  0.00    -0.012 C 
HETATM    8  C   UNK N   1      32.055  25.107  -4.890  0.00  0.00     0.215 C 
HETATM    9  C   UNK N   1      28.164  26.831  -4.300  0.00  0.00     0.022 A 
HETATM   10  C   UNK N   1      28.204  28.223  -4.279  0.00  0.00    -0.047 A 
HETATM   11  C   UNK N   1      30.011  22.186  -3.627  0.00  0.00     0.013 A 
HETATM   12  C   UNK N   1      30.593  28.122  -4.031  0.00  0.00     0.038 A 
HETATM   13  C   UNK N   1      32.643  22.823  -4.231  0.00  0.00     0.010 A 
HETATM   14  C   UNK N   1      29.426  28.870  -4.127  0.00  0.00     0.010 A 
HETATM   15  C   UNK N   1      31.007  21.218  -3.499  0.00  0.00     0.001 A 
HETATM   16  C   UNK N   1      32.327  21.540  -3.791  0.00  0.00     0.001 A 
ENDROOT
BRANCH   7  17
HETATM   17  C   UNK N   1      26.584  24.628  -3.894  0.00  0.00     0.058 C 
BRANCH  17  18
HETATM   18  C   UNK N   1      25.621  24.207  -4.997  0.00  0.00     0.275 C 
BRANCH  18  19
HETATM   19  N   UNK N   1      26.301  24.023  -6.276  0.00  0.00     0.080 N 
HETATM   20  C   UNK N   1      25.788  22.788  -6.839  0.00  0.00     0.309 C 
HETATM   21  C   UNK N   1      25.902  25.082  -7.194  0.00  0.00     0.309 C 
ENDBRANCH  18  19
ENDBRANCH  17  18
ENDBRANCH   7  17
BRANCH  10  22
HETATM   22  C   UNK N   1      26.925  28.995  -4.350  0.00  0.00     0.148 C 
BRANCH  22  23
HETATM   23  C   UNK N   1      25.722  28.166  -4.018  0.00  0.00     0.143 C 
HETATM   24  O   UNK N   1      25.472  27.882  -2.858  0.00  0.00    -0.650 OA
BRANCH  23  25
HETATM   25  O   UNK N   1      24.940  27.696  -5.006  0.00  0.00    -0.776 OA
HETATM   26  H   UNK N   1      24.662  28.068  -5.820  0.00  0.00     0.167 HD
ENDBRANCH  23  25
ENDBRANCH  22  23
ENDBRANCH  10  22
TORSDOF 6
ENDMDL
MODEL 9
REMARK VINA RESULT:      -6.4     15.328     18.311
REMARK  6 active torsions:
REMARK  status: ('A' for Active; 'I' for Inactive)
REMARK    1  A    between atoms: O_2  and  C_25 
REMARK    2  A    between atoms: N_4  and  C_13 
REMARK    3  A    between atoms: C_10  and  C_11 
REMARK    4  A    between atoms: C_10  and  C_13 
REMARK    5  A    between atoms: C_15  and  C_20 
REMARK    6  A    between atoms: C_20  and  C_25 
ROOT
HETATM    1  O   UNK N   1      19.896  14.420   7.698  0.00  0.00    -0.346 OA
HETATM    2  C   UNK N   1      22.859  14.850   7.154  0.00  0.00    -0.016 C 
HETATM    3  C   UNK N   1      21.668  15.488   6.414  0.00  0.00     0.009 A 
HETATM    4  C   UNK N   1      22.741  13.926   8.357  0.00  0.00    -0.017 A 
HETATM    5  C   UNK N   1      21.585  13.789   9.159  0.00  0.00    -0.023 A 
HETATM    6  C   UNK N   1      20.293  15.201   6.685  0.00  0.00     0.080 A 
HETATM    7  C   UNK N   1      24.130  14.983   6.671  0.00  0.00    -0.012 C 
HETATM    8  C   UNK N   1      20.392  14.617   8.950  0.00  0.00     0.215 C 
HETATM    9  C   UNK N   1      21.930  16.354   5.334  0.00  0.00     0.022 A 
HETATM   10  C   UNK N   1      20.922  16.907   4.548  0.00  0.00    -0.047 A 
HETATM   11  C   UNK N   1      23.863  13.136   8.702  0.00  0.00     0.013 A 
HETATM   12  C   UNK N   1      19.288  15.742   5.871  0.00  0.00     0.038 A 
HETATM   13  C   UNK N   1      21.560  12.888  10.231  0.00  0.00     0.010 A 
HETATM   14  C   UNK N   1      19.595  16.585   4.809  0.00  0.00     0.010 A 
HETATM   15  C   UNK N   1      23.832  12.241   9.771  0.00  0.00     0.001 A 
HETATM   16  C   UNK N   1      22.675  12.108  10.530  0.00  0.00     0.001 A 
ENDROOT
BRANCH   7  17
HETATM   17  C   UNK N   1      24.590  15.701   5.436  0.00  0.00     0.058 C 
BRANCH  17  18
HETATM   18  C   UNK N   1      25.951  16.362   5.614  0.00  0.00     0.275 C 
BRANCH  18  19
HETATM   19  N   UNK N   1      26.084  17.566   4.801  0.00  0.00     0.080 N 
HETATM   20  C   UNK N   1      27.385  17.488   4.161  0.00  0.00     0.309 C 
HETATM   21  C   UNK N   1      25.103  17.536   3.724  0.00  0.00     0.309 C 
ENDBRANCH  18  19
ENDBRANCH  17  18
ENDBRANCH   7  17
BRANCH  10  22
HETATM   22  C   UNK N   1      21.291  17.783   3.391  0.00  0.00     0.148 C 
BRANCH  22  23
HETATM   23  C   UNK N   1      20.496  19.051   3.342  0.00  0.00     0.143 C 
HETATM   24  O   UNK N   1      20.695  19.934   4.161  0.00  0.00    -0.650 OA
BRANCH  23  25
HETATM   25  O   UNK N   1      19.530  19.200   2.419  0.00  0.00    -0.776 OA
HETATM   26  H   UNK N   1      19.470  19.731   1.650  0.00  0.00     0.167 HD
ENDBRANCH  23  25
ENDBRANCH  22  23
ENDBRANCH  10  22
TORSDOF 6
ENDMDL
