MODEL 1
REMARK VINA RESULT:      -5.9      0.000      0.000
REMARK  16 active torsions:
REMARK  status: ('A' for Active; 'I' for Inactive)
REMARK    1  A    between atoms: C_8  and  O_1 
REMARK    2  A    between atoms: C_17  and  O_3 
REMARK    3  A    between atoms: O_4  and  C_24 
REMARK    4  A    between atoms: C_6  and  C_10 
REMARK    5  A    between atoms: C_7  and  C_13 
REMARK    6  A    between atoms: C_10  and  C_12 
REMARK    7  A    between atoms: C_12  and  C_14 
REMARK    8  A    between atoms: C_14  and  C_16 
REMARK    9  A    between atoms: C_15  and  C_17 
REMARK   10  A    between atoms: C_16  and  C_19 
REMARK   11  A    between atoms: C_17  and  C_18 
REMARK   12  A    between atoms: C_18  and  C_20 
REMARK   13  A    between atoms: C_19  and  C_21 
REMARK   14  A    between atoms: C_20  and  C_22 
REMARK   15  A    between atoms: C_21  and  C_24 
REMARK   16  A    between atoms: C_22  and  C_23 
ROOT
HETATM    1  O   UNK N   1      21.169  18.589   6.769  0.00  0.00    -0.297 OA
HETATM    2  C   UNK N   1      21.805  16.301   6.581  0.00  0.00     0.065 C 
HETATM    3  C   UNK N   1      21.072  15.124   7.210  0.00  0.00     0.048 C 
HETATM    4  C   UNK N   1      20.591  15.646   8.553  0.00  0.00     0.133 C 
HETATM    5  C   UNK N   1      20.125  17.064   8.262  0.00  0.00     0.111 C 
HETATM    6  C   UNK N   1      21.029  17.436   7.144  0.00  0.00     0.134 C 
ENDROOT
BRANCH   2   7
HETATM    7  C   UNK N   1      21.692  16.235   5.070  0.00  0.00     0.013 C 
BRANCH   7   8
HETATM    8  C   UNK N   1      20.274  15.841   4.700  0.00  0.00     0.001 C 
BRANCH   8   9
HETATM    9  C   UNK N   1      19.662  16.885   3.787  0.00  0.00     0.000 C 
BRANCH   9  10
HETATM   10  C   UNK N   1      20.486  16.991   2.516  0.00  0.00     0.001 C 
BRANCH  10  11
HETATM   11  C   UNK N   1      20.267  18.346   1.876  0.00  0.00     0.010 C 
BRANCH  11  12
HETATM   12  C   UNK N   1      20.739  19.439   2.817  0.00  0.00     0.110 C 
BRANCH  12  13
HETATM   13  C   UNK N   1      21.306  20.577   2.039  0.00  0.00     0.139 C 
HETATM   14  O   UNK N   1      21.376  20.514   0.822  0.00  0.00    -0.650 OA
BRANCH  13  15
HETATM   15  O   UNK N   1      21.724  21.685   2.677  0.00  0.00    -0.776 OA
HETATM   16  H   UNK N   1      21.894  21.697   3.599  0.00  0.00     0.167 HD
ENDBRANCH  13  15
ENDBRANCH  12  13
ENDBRANCH  11  12
ENDBRANCH  10  11
ENDBRANCH   9  10
ENDBRANCH   8   9
ENDBRANCH   7   8
ENDBRANCH   2   7
BRANCH   3  17
HETATM   17  C   UNK N   1      21.925  13.903   7.335  0.00  0.00    -0.020 C 
HETATM   18  C   UNK N   1      23.180  13.997   7.775  0.00  0.00     0.001 C 
BRANCH  18  19
HETATM   19  C   UNK N   1      24.027  12.781   7.937  0.00  0.00     0.140 C 
BRANCH  19  20
HETATM   20  O   UNK N   1      24.148  12.135   6.707  0.00  0.00    -0.392 OA
HETATM   21  H   UNK N   1      24.972  12.108   6.195  0.00  0.00     0.210 HD
ENDBRANCH  19  20
BRANCH  19  22
HETATM   22  C   UNK N   1      23.430  11.828   8.959  0.00  0.00     0.036 C 
BRANCH  22  23
HETATM   23  C   UNK N   1      24.026  12.129  10.318  0.00  0.00     0.003 C 
BRANCH  23  24
HETATM   24  C   UNK N   1      22.940  12.212  11.365  0.00  0.00    -0.000 C 
BRANCH  24  25
HETATM   25  C   UNK N   1      21.615  12.437  10.667  0.00  0.00    -0.005 C 
HETATM   26  C   UNK N   1      20.479  12.089  11.605  0.00  0.00     0.005 C 
ENDBRANCH  24  25
ENDBRANCH  23  24
ENDBRANCH  22  23
ENDBRANCH  19  22
ENDBRANCH  18  19
ENDBRANCH   3  17
BRANCH   4  27
HETATM   27  O   UNK N   1      19.545  14.869   9.051  0.00  0.00    -0.394 OA
HETATM   28  H   UNK N   1      18.813  14.427   8.594  0.00  0.00     0.210 HD
ENDBRANCH   4  27
TORSDOF 16
ENDMDL
MODEL 2
REMARK VINA RESULT:      -5.8      8.291      9.977
REMARK  16 active torsions:
REMARK  status: ('A' for Active; 'I' for Inactive)
REMARK    1  A    between atoms: C_8  and  O_1 
REMARK    2  A    between atoms: C_17  and  O_3 
REMARK    3  A    between atoms: O_4  and  C_24 
REMARK    4  A    between atoms: C_6  and  C_10 
REMARK    5  A    between atoms: C_7  and  C_13 
REMARK    6  A    between atoms: C_10  and  C_12 
REMARK    7  A    between atoms: C_12  and  C_14 
REMARK    8  A    between atoms: C_14  and  C_16 
REMARK    9  A    between atoms: C_15  and  C_17 
REMARK   10  A    between atoms: C_16  and  C_19 
REMARK   11  A    between atoms: C_17  and  C_18 
REMARK   12  A    between atoms: C_18  and  C_20 
REMARK   13  A    between atoms: C_19  and  C_21 
REMARK   14  A    between atoms: C_20  and  C_22 
REMARK   15  A    between atoms: C_21  and  C_24 
REMARK   16  A    between atoms: C_22  and  C_23 
ROOT
HETATM    1  O   UNK N   1      26.556  20.275   3.267  0.00  0.00    -0.297 OA
HETATM    2  C   UNK N   1      27.789  19.151   4.968  0.00  0.00     0.065 C 
HETATM    3  C   UNK N   1      27.489  19.203   6.459  0.00  0.00     0.048 C 
HETATM    4  C   UNK N   1      27.026  20.629   6.706  0.00  0.00     0.133 C 
HETATM    5  C   UNK N   1      26.151  20.955   5.507  0.00  0.00     0.111 C 
HETATM    6  C   UNK N   1      26.789  20.123   4.455  0.00  0.00     0.134 C 
ENDROOT
BRANCH   2   7
HETATM    7  C   UNK N   1      27.539  17.752   4.437  0.00  0.00     0.013 C 
BRANCH   7   8
HETATM    8  C   UNK N   1      28.834  17.204   3.868  0.00  0.00     0.001 C 
BRANCH   8   9
HETATM    9  C   UNK N   1      29.326  16.042   4.709  0.00  0.00     0.000 C 
BRANCH   9  10
HETATM   10  C   UNK N   1      30.669  16.396   5.324  0.00  0.00     0.001 C 
BRANCH  10  11
HETATM   11  C   UNK N   1      31.292  17.547   4.563  0.00  0.00     0.010 C 
BRANCH  11  12
HETATM   12  C   UNK N   1      32.804  17.463   4.656  0.00  0.00     0.110 C 
BRANCH  12  13
HETATM   13  C   UNK N   1      33.311  16.339   3.819  0.00  0.00     0.139 C 
HETATM   14  O   UNK N   1      33.958  15.438   4.329  0.00  0.00    -0.650 OA
BRANCH  13  15
HETATM   15  O   UNK N   1      33.036  16.304   2.502  0.00  0.00    -0.776 OA
HETATM   16  H   UNK N   1      33.121  17.060   1.954  0.00  0.00     0.167 HD
ENDBRANCH  13  15
ENDBRANCH  12  13
ENDBRANCH  11  12
ENDBRANCH  10  11
ENDBRANCH   9  10
ENDBRANCH   8   9
ENDBRANCH   7   8
ENDBRANCH   2   7
BRANCH   3  17
HETATM   17  C   UNK N   1      28.661  18.820   7.305  0.00  0.00    -0.020 C 
HETATM   18  C   UNK N   1      28.580  17.787   8.144  0.00  0.00     0.001 C 
BRANCH  18  19
HETATM   19  C   UNK N   1      29.754  17.374   8.965  0.00  0.00     0.140 C 
BRANCH  19  20
HETATM   20  O   UNK N   1      29.325  17.039  10.250  0.00  0.00    -0.392 OA
HETATM   21  H   UNK N   1      28.951  16.173  10.479  0.00  0.00     0.210 HD
ENDBRANCH  19  20
BRANCH  19  22
HETATM   22  C   UNK N   1      30.786  18.487   9.045  0.00  0.00     0.036 C 
BRANCH  22  23
HETATM   23  C   UNK N   1      32.009  18.079   8.252  0.00  0.00     0.003 C 
BRANCH  23  24
HETATM   24  C   UNK N   1      32.352  16.630   8.517  0.00  0.00    -0.000 C 
BRANCH  24  25
HETATM   25  C   UNK N   1      33.784  16.389   8.088  0.00  0.00    -0.005 C 
HETATM   26  C   UNK N   1      34.510  17.712   7.970  0.00  0.00     0.005 C 
ENDBRANCH  24  25
ENDBRANCH  23  24
ENDBRANCH  22  23
ENDBRANCH  19  22
ENDBRANCH  18  19
ENDBRANCH   3  17
BRANCH   4  27
HETATM   27  O   UNK N   1      26.302  20.725   7.895  0.00  0.00    -0.394 OA
HETATM   28  H   UNK N   1      26.547  20.493   8.804  0.00  0.00     0.210 HD
ENDBRANCH   4  27
TORSDOF 16
ENDMDL
MODEL 3
REMARK VINA RESULT:      -5.7     15.227     16.857
REMARK  16 active torsions:
REMARK  status: ('A' for Active; 'I' for Inactive)
REMARK    1  A    between atoms: C_8  and  O_1 
REMARK    2  A    between atoms: C_17  and  O_3 
REMARK    3  A    between atoms: O_4  and  C_24 
REMARK    4  A    between atoms: C_6  and  C_10 
REMARK    5  A    between atoms: C_7  and  C_13 
REMARK    6  A    between atoms: C_10  and  C_12 
REMARK    7  A    between atoms: C_12  and  C_14 
REMARK    8  A    between atoms: C_14  and  C_16 
REMARK    9  A    between atoms: C_15  and  C_17 
REMARK   10  A    between atoms: C_16  and  C_19 
REMARK   11  A    between atoms: C_17  and  C_18 
REMARK   12  A    between atoms: C_18  and  C_20 
REMARK   13  A    between atoms: C_19  and  C_21 
REMARK   14  A    between atoms: C_20  and  C_22 
REMARK   15  A    between atoms: C_21  and  C_24 
REMARK   16  A    between atoms: C_22  and  C_23 
ROOT
HETATM    1  O   UNK N   1      30.986  20.247  -4.054  0.00  0.00    -0.297 OA
HETATM    2  C   UNK N   1      29.720  21.921  -5.182  0.00  0.00     0.065 C 
HETATM    3  C   UNK N   1      29.773  23.414  -4.895  0.00  0.00     0.048 C 
HETATM    4  C   UNK N   1      29.940  23.509  -3.388  0.00  0.00     0.133 C 
HETATM    5  C   UNK N   1      30.919  22.398  -3.045  0.00  0.00     0.111 C 
HETATM    6  C   UNK N   1      30.604  21.405  -4.104  0.00  0.00     0.134 C 
ENDROOT
BRANCH   2   7
HETATM    7  C   UNK N   1      30.286  21.636  -6.560  0.00  0.00     0.013 C 
BRANCH   7   8
HETATM    8  C   UNK N   1      29.788  20.280  -7.025  0.00  0.00     0.001 C 
BRANCH   8   9
HETATM    9  C   UNK N   1      28.448  20.424  -7.719  0.00  0.00     0.000 C 
BRANCH   9  10
HETATM   10  C   UNK N   1      28.406  21.743  -8.471  0.00  0.00     0.001 C 
BRANCH  10  11
HETATM   11  C   UNK N   1      27.010  22.325  -8.403  0.00  0.00     0.010 C 
BRANCH  11  12
HETATM   12  C   UNK N   1      26.013  21.228  -8.081  0.00  0.00     0.110 C 
BRANCH  12  13
HETATM   13  C   UNK N   1      24.681  21.820  -7.765  0.00  0.00     0.139 C 
HETATM   14  O   UNK N   1      24.287  22.802  -8.374  0.00  0.00    -0.650 OA
BRANCH  13  15
HETATM   15  O   UNK N   1      23.903  21.259  -6.822  0.00  0.00    -0.776 OA
HETATM   16  H   UNK N   1      23.943  20.344  -6.621  0.00  0.00     0.167 HD
ENDBRANCH  13  15
ENDBRANCH  12  13
ENDBRANCH  11  12
ENDBRANCH  10  11
ENDBRANCH   9  10
ENDBRANCH   8   9
ENDBRANCH   7   8
ENDBRANCH   2   7
BRANCH   3  17
HETATM   17  C   UNK N   1      28.570  24.149  -5.392  0.00  0.00    -0.020 C 
HETATM   18  C   UNK N   1      27.372  23.932  -4.846  0.00  0.00     0.001 C 
BRANCH  18  19
HETATM   19  C   UNK N   1      26.173  24.685  -5.311  0.00  0.00     0.140 C 
BRANCH  19  20
HETATM   20  O   UNK N   1      25.140  23.787  -5.584  0.00  0.00    -0.392 OA
HETATM   21  H   UNK N   1      25.139  23.191  -6.349  0.00  0.00     0.210 HD
ENDBRANCH  19  20
BRANCH  19  22
HETATM   22  C   UNK N   1      26.484  25.501  -6.555  0.00  0.00     0.036 C 
BRANCH  22  23
HETATM   23  C   UNK N   1      25.810  26.851  -6.437  0.00  0.00     0.003 C 
BRANCH  23  24
HETATM   24  C   UNK N   1      26.648  27.789  -5.598  0.00  0.00    -0.000 C 
BRANCH  24  25
HETATM   25  C   UNK N   1      25.767  28.385  -4.520  0.00  0.00    -0.005 C 
HETATM   26  C   UNK N   1      25.900  27.576  -3.248  0.00  0.00     0.005 C 
ENDBRANCH  24  25
ENDBRANCH  23  24
ENDBRANCH  22  23
ENDBRANCH  19  22
ENDBRANCH  18  19
ENDBRANCH   3  17
BRANCH   4  27
HETATM   27  O   UNK N   1      30.445  24.754  -3.014  0.00  0.00    -0.394 OA
HETATM   28  H   UNK N   1      30.322  25.631  -3.409  0.00  0.00     0.210 HD
ENDBRANCH   4  27
TORSDOF 16
ENDMDL
MODEL 4
REMARK VINA RESULT:      -5.7      1.806      2.754
REMARK  16 active torsions:
REMARK  status: ('A' for Active; 'I' for Inactive)
REMARK    1  A    between atoms: C_8  and  O_1 
REMARK    2  A    between atoms: C_17  and  O_3 
REMARK    3  A    between atoms: O_4  and  C_24 
REMARK    4  A    between atoms: C_6  and  C_10 
REMARK    5  A    between atoms: C_7  and  C_13 
REMARK    6  A    between atoms: C_10  and  C_12 
REMARK    7  A    between atoms: C_12  and  C_14 
REMARK    8  A    between atoms: C_14  and  C_16 
REMARK    9  A    between atoms: C_15  and  C_17 
REMARK   10  A    between atoms: C_16  and  C_19 
REMARK   11  A    between atoms: C_17  and  C_18 
REMARK   12  A    between atoms: C_18  and  C_20 
REMARK   13  A    between atoms: C_19  and  C_21 
REMARK   14  A    between atoms: C_20  and  C_22 
REMARK   15  A    between atoms: C_21  and  C_24 
REMARK   16  A    between atoms: C_22  and  C_23 
ROOT
HETATM    1  O   UNK N   1      21.092  18.362   6.994  0.00  0.00    -0.297 OA
HETATM    2  C   UNK N   1      21.340  16.012   7.294  0.00  0.00     0.065 C 
HETATM    3  C   UNK N   1      20.318  15.090   7.943  0.00  0.00     0.048 C 
HETATM    4  C   UNK N   1      19.719  15.916   9.069  0.00  0.00     0.133 C 
HETATM    5  C   UNK N   1      19.564  17.307   8.475  0.00  0.00     0.111 C 
HETATM    6  C   UNK N   1      20.692  17.331   7.510  0.00  0.00     0.134 C 
ENDROOT
BRANCH   2   7
HETATM    7  C   UNK N   1      21.471  15.683   5.818  0.00  0.00     0.013 C 
BRANCH   7   8
HETATM    8  C   UNK N   1      22.889  15.988   5.372  0.00  0.00     0.001 C 
BRANCH   8   9
HETATM    9  C   UNK N   1      22.880  16.614   3.991  0.00  0.00     0.000 C 
BRANCH   9  10
HETATM   10  C   UNK N   1      23.548  17.977   4.049  0.00  0.00     0.001 C 
BRANCH  10  11
HETATM   11  C   UNK N   1      22.503  19.064   3.913  0.00  0.00     0.010 C 
BRANCH  11  12
HETATM   12  C   UNK N   1      21.349  18.562   3.065  0.00  0.00     0.110 C 
BRANCH  12  13
HETATM   13  C   UNK N   1      20.196  19.503   3.156  0.00  0.00     0.139 C 
HETATM   14  O   UNK N   1      20.294  20.531   3.807  0.00  0.00    -0.650 OA
BRANCH  13  15
HETATM   15  O   UNK N   1      19.052  19.230   2.503  0.00  0.00    -0.776 OA
HETATM   16  H   UNK N   1      18.876  18.386   2.135  0.00  0.00     0.167 HD
ENDBRANCH  13  15
ENDBRANCH  12  13
ENDBRANCH  11  12
ENDBRANCH  10  11
ENDBRANCH   9  10
ENDBRANCH   8   9
ENDBRANCH   7   8
ENDBRANCH   2   7
BRANCH   3  17
HETATM   17  C   UNK N   1      20.912  13.804   8.421  0.00  0.00    -0.020 C 
HETATM   18  C   UNK N   1      21.381  13.697   9.665  0.00  0.00     0.001 C 
BRANCH  18  19
HETATM   19  C   UNK N   1      21.942  12.408  10.162  0.00  0.00     0.140 C 
BRANCH  19  20
HETATM   20  O   UNK N   1      21.175  11.954  11.236  0.00  0.00    -0.392 OA
HETATM   21  H   UNK N   1      21.174  12.377  12.109  0.00  0.00     0.210 HD
ENDBRANCH  19  20
BRANCH  19  22
HETATM   22  C   UNK N   1      23.389  12.571  10.599  0.00  0.00     0.036 C 
BRANCH  22  23
HETATM   23  C   UNK N   1      24.295  12.166   9.456  0.00  0.00     0.003 C 
BRANCH  23  24
HETATM   24  C   UNK N   1      23.604  11.160   8.565  0.00  0.00    -0.000 C 
BRANCH  24  25
HETATM   25  C   UNK N   1      23.706  11.638   7.131  0.00  0.00    -0.005 C 
HETATM   26  C   UNK N   1      24.346  13.009   7.096  0.00  0.00     0.005 C 
ENDBRANCH  24  25
ENDBRANCH  23  24
ENDBRANCH  22  23
ENDBRANCH  19  22
ENDBRANCH  18  19
ENDBRANCH   3  17
BRANCH   4  27
HETATM   27  O   UNK N   1      18.485  15.402   9.469  0.00  0.00    -0.394 OA
HETATM   28  H   UNK N   1      17.938  14.700   9.084  0.00  0.00     0.210 HD
ENDBRANCH   4  27
TORSDOF 16
ENDMDL
MODEL 5
REMARK VINA RESULT:      -5.6     14.638     16.587
REMARK  16 active torsions:
REMARK  status: ('A' for Active; 'I' for Inactive)
REMARK    1  A    between atoms: C_8  and  O_1 
REMARK    2  A    between atoms: C_17  and  O_3 
REMARK    3  A    between atoms: O_4  and  C_24 
REMARK    4  A    between atoms: C_6  and  C_10 
REMARK    5  A    between atoms: C_7  and  C_13 
REMARK    6  A    between atoms: C_10  and  C_12 
REMARK    7  A    between atoms: C_12  and  C_14 
REMARK    8  A    between atoms: C_14  and  C_16 
REMARK    9  A    between atoms: C_15  and  C_17 
REMARK   10  A    between atoms: C_16  and  C_19 
REMARK   11  A    between atoms: C_17  and  C_18 
REMARK   12  A    between atoms: C_18  and  C_20 
REMARK   13  A    between atoms: C_19  and  C_21 
REMARK   14  A    between atoms: C_20  and  C_22 
REMARK   15  A    between atoms: C_21  and  C_24 
REMARK   16  A    between atoms: C_22  and  C_23 
ROOT
HETATM    1  O   UNK N   1      23.995  22.300  -8.036  0.00  0.00    -0.297 OA
HETATM    2  C   UNK N   1      26.113  22.489  -6.963  0.00  0.00     0.065 C 
HETATM    3  C   UNK N   1      27.463  22.224  -7.615  0.00  0.00     0.048 C 
HETATM    4  C   UNK N   1      27.213  21.051  -8.548  0.00  0.00     0.133 C 
HETATM    5  C   UNK N   1      25.853  21.341  -9.164  0.00  0.00     0.111 C 
HETATM    6  C   UNK N   1      25.197  22.091  -8.062  0.00  0.00     0.134 C 
ENDROOT
BRANCH   2   7
HETATM    7  C   UNK N   1      25.981  23.963  -6.625  0.00  0.00     0.013 C 
BRANCH   7   8
HETATM    8  C   UNK N   1      26.451  24.783  -7.812  0.00  0.00     0.001 C 
BRANCH   8   9
HETATM    9  C   UNK N   1      25.844  26.171  -7.763  0.00  0.00     0.000 C 
BRANCH   9  10
HETATM   10  C   UNK N   1      25.556  26.546  -6.320  0.00  0.00     0.001 C 
BRANCH  10  11
HETATM   11  C   UNK N   1      26.398  27.742  -5.925  0.00  0.00     0.010 C 
BRANCH  11  12
HETATM   12  C   UNK N   1      27.159  27.433  -4.650  0.00  0.00     0.110 C 
BRANCH  12  13
HETATM   13  C   UNK N   1      26.214  27.313  -3.503  0.00  0.00     0.139 C 
HETATM   14  O   UNK N   1      26.220  26.311  -2.806  0.00  0.00    -0.650 OA
BRANCH  13  15
HETATM   15  O   UNK N   1      25.366  28.320  -3.222  0.00  0.00    -0.776 OA
HETATM   16  H   UNK N   1      24.537  28.175  -2.811  0.00  0.00     0.167 HD
ENDBRANCH  13  15
ENDBRANCH  12  13
ENDBRANCH  11  12
ENDBRANCH  10  11
ENDBRANCH   9  10
ENDBRANCH   8   9
ENDBRANCH   7   8
ENDBRANCH   2   7
BRANCH   3  17
HETATM   17  C   UNK N   1      28.549  21.955  -6.623  0.00  0.00    -0.020 C 
HETATM   18  C   UNK N   1      29.746  22.526  -6.760  0.00  0.00     0.001 C 
BRANCH  18  19
HETATM   19  C   UNK N   1      30.823  22.292  -5.757  0.00  0.00     0.140 C 
BRANCH  19  20
HETATM   20  O   UNK N   1      32.067  22.400  -6.380  0.00  0.00    -0.392 OA
HETATM   21  H   UNK N   1      32.177  22.602  -7.323  0.00  0.00     0.210 HD
ENDBRANCH  19  20
BRANCH  19  22
HETATM   22  C   UNK N   1      30.690  20.920  -5.116  0.00  0.00     0.036 C 
BRANCH  22  23
HETATM   23  C   UNK N   1      30.501  21.092  -3.624  0.00  0.00     0.003 C 
BRANCH  23  24
HETATM   24  C   UNK N   1      30.602  22.551  -3.243  0.00  0.00    -0.000 C 
BRANCH  24  25
HETATM   25  C   UNK N   1      29.388  22.916  -2.414  0.00  0.00    -0.005 C 
HETATM   26  C   UNK N   1      28.467  23.803  -3.224  0.00  0.00     0.005 C 
ENDBRANCH  24  25
ENDBRANCH  23  24
ENDBRANCH  22  23
ENDBRANCH  19  22
ENDBRANCH  18  19
ENDBRANCH   3  17
BRANCH   4  27
HETATM   27  O   UNK N   1      28.200  20.969  -9.530  0.00  0.00    -0.394 OA
HETATM   28  H   UNK N   1      28.168  20.604 -10.428  0.00  0.00     0.210 HD
ENDBRANCH   4  27
TORSDOF 16
ENDMDL
MODEL 6
REMARK VINA RESULT:      -5.6      7.932      9.260
REMARK  16 active torsions:
REMARK  status: ('A' for Active; 'I' for Inactive)
REMARK    1  A    between atoms: C_8  and  O_1 
REMARK    2  A    between atoms: C_17  and  O_3 
REMARK    3  A    between atoms: O_4  and  C_24 
REMARK    4  A    between atoms: C_6  and  C_10 
REMARK    5  A    between atoms: C_7  and  C_13 
REMARK    6  A    between atoms: C_10  and  C_12 
REMARK    7  A    between atoms: C_12  and  C_14 
REMARK    8  A    between atoms: C_14  and  C_16 
REMARK    9  A    between atoms: C_15  and  C_17 
REMARK   10  A    between atoms: C_16  and  C_19 
REMARK   11  A    between atoms: C_17  and  C_18 
REMARK   12  A    between atoms: C_18  and  C_20 
REMARK   13  A    between atoms: C_19  and  C_21 
REMARK   14  A    between atoms: C_20  and  C_22 
REMARK   15  A    between atoms: C_21  and  C_24 
REMARK   16  A    between atoms: C_22  and  C_23 
ROOT
HETATM    1  O   UNK N   1      27.575  19.163   6.939  0.00  0.00    -0.297 OA
HETATM    2  C   UNK N   1      29.539  17.817   6.890  0.00  0.00     0.065 C 
HETATM    3  C   UNK N   1      30.104  17.032   8.066  0.00  0.00     0.048 C 
HETATM    4  C   UNK N   1      29.848  17.916   9.274  0.00  0.00     0.133 C 
HETATM    5  C   UNK N   1      28.458  18.486   9.038  0.00  0.00     0.111 C 
HETATM    6  C   UNK N   1      28.419  18.533   7.554  0.00  0.00     0.134 C 
ENDROOT
BRANCH   2   7
HETATM    7  C   UNK N   1      29.043  16.863   5.820  0.00  0.00     0.013 C 
BRANCH   7   8
HETATM    8  C   UNK N   1      29.263  17.496   4.458  0.00  0.00     0.001 C 
BRANCH   8   9
HETATM    9  C   UNK N   1      28.173  17.062   3.497  0.00  0.00     0.000 C 
BRANCH   9  10
HETATM   10  C   UNK N   1      26.824  17.145   4.190  0.00  0.00     0.001 C 
BRANCH  10  11
HETATM   11  C   UNK N   1      25.847  17.905   3.318  0.00  0.00     0.010 C 
BRANCH  11  12
HETATM   12  C   UNK N   1      25.863  19.375   3.692  0.00  0.00     0.110 C 
BRANCH  12  13
HETATM   13  C   UNK N   1      24.683  20.069   3.100  0.00  0.00     0.139 C 
HETATM   14  O   UNK N   1      23.562  19.845   3.528  0.00  0.00    -0.650 OA
BRANCH  13  15
HETATM   15  O   UNK N   1      24.856  20.960   2.107  0.00  0.00    -0.776 OA
HETATM   16  H   UNK N   1      25.706  21.188   1.782  0.00  0.00     0.167 HD
ENDBRANCH  13  15
ENDBRANCH  12  13
ENDBRANCH  11  12
ENDBRANCH  10  11
ENDBRANCH   9  10
ENDBRANCH   8   9
ENDBRANCH   7   8
ENDBRANCH   2   7
BRANCH   3  17
HETATM   17  C   UNK N   1      31.548  16.684   7.897  0.00  0.00    -0.020 C 
HETATM   18  C   UNK N   1      32.391  17.551   7.335  0.00  0.00     0.001 C 
BRANCH  18  19
HETATM   19  C   UNK N   1      33.839  17.228   7.195  0.00  0.00     0.140 C 
BRANCH  19  20
HETATM   20  O   UNK N   1      34.595  18.372   7.455  0.00  0.00    -0.392 OA
HETATM   21  H   UNK N   1      34.231  19.271   7.431  0.00  0.00     0.210 HD
ENDBRANCH  19  20
BRANCH  19  22
HETATM   22  C   UNK N   1      34.155  16.712   5.801  0.00  0.00     0.036 C 
BRANCH  22  23
HETATM   23  C   UNK N   1      33.111  17.233   4.837  0.00  0.00     0.003 C 
BRANCH  23  24
HETATM   24  C   UNK N   1      32.868  16.234   3.729  0.00  0.00    -0.000 C 
BRANCH  24  25
HETATM   25  C   UNK N   1      32.043  15.092   4.285  0.00  0.00    -0.005 C 
HETATM   26  C   UNK N   1      31.096  14.583   3.220  0.00  0.00     0.005 C 
ENDBRANCH  24  25
ENDBRANCH  23  24
ENDBRANCH  22  23
ENDBRANCH  19  22
ENDBRANCH  18  19
ENDBRANCH   3  17
BRANCH   4  27
HETATM   27  O   UNK N   1      29.891  17.178  10.457  0.00  0.00    -0.394 OA
HETATM   28  H   UNK N   1      30.418  17.304  11.262  0.00  0.00     0.210 HD
ENDBRANCH   4  27
TORSDOF 16
ENDMDL
MODEL 7
REMARK VINA RESULT:      -5.6      6.725      7.993
REMARK  16 active torsions:
REMARK  status: ('A' for Active; 'I' for Inactive)
REMARK    1  A    between atoms: C_8  and  O_1 
REMARK    2  A    between atoms: C_17  and  O_3 
REMARK    3  A    between atoms: O_4  and  C_24 
REMARK    4  A    between atoms: C_6  and  C_10 
REMARK    5  A    between atoms: C_7  and  C_13 
REMARK    6  A    between atoms: C_10  and  C_12 
REMARK    7  A    between atoms: C_12  and  C_14 
REMARK    8  A    between atoms: C_14  and  C_16 
REMARK    9  A    between atoms: C_15  and  C_17 
REMARK   10  A    between atoms: C_16  and  C_19 
REMARK   11  A    between atoms: C_17  and  C_18 
REMARK   12  A    between atoms: C_18  and  C_20 
REMARK   13  A    between atoms: C_19  and  C_21 
REMARK   14  A    between atoms: C_20  and  C_22 
REMARK   15  A    between atoms: C_21  and  C_24 
REMARK   16  A    between atoms: C_22  and  C_23 
ROOT
HETATM    1  O   UNK N   1      26.874  20.386   3.567  0.00  0.00    -0.297 OA
HETATM    2  C   UNK N   1      27.954  18.621   4.748  0.00  0.00     0.065 C 
HETATM    3  C   UNK N   1      27.811  18.334   6.236  0.00  0.00     0.048 C 
HETATM    4  C   UNK N   1      27.723  19.706   6.883  0.00  0.00     0.133 C 
HETATM    5  C   UNK N   1      26.846  20.513   5.940  0.00  0.00     0.111 C 
HETATM    6  C   UNK N   1      27.170  19.878   4.637  0.00  0.00     0.134 C 
ENDROOT
BRANCH   2   7
HETATM    7  C   UNK N   1      27.332  17.496   3.941  0.00  0.00     0.013 C 
BRANCH   7   8
HETATM    8  C   UNK N   1      26.051  17.054   4.622  0.00  0.00     0.001 C 
BRANCH   8   9
HETATM    9  C   UNK N   1      25.062  16.540   3.594  0.00  0.00     0.000 C 
BRANCH   9  10
HETATM   10  C   UNK N   1      23.673  17.058   3.925  0.00  0.00     0.001 C 
BRANCH  10  11
HETATM   11  C   UNK N   1      23.717  18.562   4.098  0.00  0.00     0.010 C 
BRANCH  11  12
HETATM   12  C   UNK N   1      22.427  19.174   3.584  0.00  0.00     0.110 C 
BRANCH  12  13
HETATM   13  C   UNK N   1      22.715  20.441   2.853  0.00  0.00     0.139 C 
HETATM   14  O   UNK N   1      21.883  20.913   2.095  0.00  0.00    -0.650 OA
BRANCH  13  15
HETATM   15  O   UNK N   1      23.885  21.077   3.044  0.00  0.00    -0.776 OA
HETATM   16  H   UNK N   1      24.574  20.710   3.562  0.00  0.00     0.167 HD
ENDBRANCH  13  15
ENDBRANCH  12  13
ENDBRANCH  11  12
ENDBRANCH  10  11
ENDBRANCH   9  10
ENDBRANCH   8   9
ENDBRANCH   7   8
ENDBRANCH   2   7
BRANCH   3  17
HETATM   17  C   UNK N   1      28.930  17.507   6.782  0.00  0.00    -0.020 C 
HETATM   18  C   UNK N   1      29.695  17.972   7.770  0.00  0.00     0.001 C 
BRANCH  18  19
HETATM   19  C   UNK N   1      30.790  17.140   8.346  0.00  0.00     0.140 C 
BRANCH  19  20
HETATM   20  O   UNK N   1      30.473  16.805   9.663  0.00  0.00    -0.392 OA
HETATM   21  H   UNK N   1      31.096  16.376  10.270  0.00  0.00     0.210 HD
ENDBRANCH  19  20
BRANCH  19  22
HETATM   22  C   UNK N   1      32.118  17.880   8.311  0.00  0.00     0.036 C 
BRANCH  22  23
HETATM   23  C   UNK N   1      33.132  17.032   7.574  0.00  0.00     0.003 C 
BRANCH  23  24
HETATM   24  C   UNK N   1      33.371  17.580   6.186  0.00  0.00    -0.000 C 
BRANCH  24  25
HETATM   25  C   UNK N   1      32.557  16.766   5.202  0.00  0.00    -0.005 C 
HETATM   26  C   UNK N   1      32.237  17.609   3.986  0.00  0.00     0.005 C 
ENDBRANCH  24  25
ENDBRANCH  23  24
ENDBRANCH  22  23
ENDBRANCH  19  22
ENDBRANCH  18  19
ENDBRANCH   3  17
BRANCH   4  27
HETATM   27  O   UNK N   1      27.153  19.629   8.154  0.00  0.00    -0.394 OA
HETATM   28  H   UNK N   1      26.913  20.328   8.782  0.00  0.00     0.210 HD
ENDBRANCH   4  27
TORSDOF 16
ENDMDL
MODEL 8
REMARK VINA RESULT:      -5.6      8.025     10.981
REMARK  16 active torsions:
REMARK  status: ('A' for Active; 'I' for Inactive)
REMARK    1  A    between atoms: C_8  and  O_1 
REMARK    2  A    between atoms: C_17  and  O_3 
REMARK    3  A    between atoms: O_4  and  C_24 
REMARK    4  A    between atoms: C_6  and  C_10 
REMARK    5  A    between atoms: C_7  and  C_13 
REMARK    6  A    between atoms: C_10  and  C_12 
REMARK    7  A    between atoms: C_12  and  C_14 
REMARK    8  A    between atoms: C_14  and  C_16 
REMARK    9  A    between atoms: C_15  and  C_17 
REMARK   10  A    between atoms: C_16  and  C_19 
REMARK   11  A    between atoms: C_17  and  C_18 
REMARK   12  A    between atoms: C_18  and  C_20 
REMARK   13  A    between atoms: C_19  and  C_21 
REMARK   14  A    between atoms: C_20  and  C_22 
REMARK   15  A    between atoms: C_21  and  C_24 
REMARK   16  A    between atoms: C_22  and  C_23 
ROOT
HETATM    1  O   UNK N   1      33.403  15.625   2.667  0.00  0.00    -0.297 OA
HETATM    2  C   UNK N   1      31.962  17.195   3.732  0.00  0.00     0.065 C 
HETATM    3  C   UNK N   1      30.635  16.865   4.400  0.00  0.00     0.048 C 
HETATM    4  C   UNK N   1      30.025  15.781   3.528  0.00  0.00     0.133 C 
HETATM    5  C   UNK N   1      31.200  14.888   3.160  0.00  0.00     0.111 C 
HETATM    6  C   UNK N   1      32.314  15.870   3.159  0.00  0.00     0.134 C 
ENDROOT
BRANCH   2   7
HETATM    7  C   UNK N   1      32.970  17.645   4.772  0.00  0.00     0.013 C 
BRANCH   7   8
HETATM    8  C   UNK N   1      32.617  17.010   6.104  0.00  0.00     0.001 C 
BRANCH   8   9
HETATM    9  C   UNK N   1      33.180  17.836   7.244  0.00  0.00     0.000 C 
BRANCH   9  10
HETATM   10  C   UNK N   1      32.430  17.510   8.524  0.00  0.00     0.001 C 
BRANCH  10  11
HETATM   11  C   UNK N   1      30.957  17.328   8.220  0.00  0.00     0.010 C 
BRANCH  11  12
HETATM   12  C   UNK N   1      30.152  18.399   8.932  0.00  0.00     0.110 C 
BRANCH  12  13
HETATM   13  C   UNK N   1      28.968  17.791   9.605  0.00  0.00     0.139 C 
HETATM   14  O   UNK N   1      29.119  16.882  10.405  0.00  0.00    -0.650 OA
BRANCH  13  15
HETATM   15  O   UNK N   1      27.734  18.258   9.345  0.00  0.00    -0.776 OA
HETATM   16  H   UNK N   1      27.208  18.672  10.001  0.00  0.00     0.167 HD
ENDBRANCH  13  15
ENDBRANCH  12  13
ENDBRANCH  11  12
ENDBRANCH  10  11
ENDBRANCH   9  10
ENDBRANCH   8   9
ENDBRANCH   7   8
ENDBRANCH   2   7
BRANCH   3  17
HETATM   17  C   UNK N   1      29.744  18.056   4.551  0.00  0.00    -0.020 C 
HETATM   18  C   UNK N   1      28.846  18.109   5.535  0.00  0.00     0.001 C 
BRANCH  18  19
HETATM   19  C   UNK N   1      27.978  19.308   5.715  0.00  0.00     0.140 C 
BRANCH  19  20
HETATM   20  O   UNK N   1      26.960  19.010   6.621  0.00  0.00    -0.392 OA
HETATM   21  H   UNK N   1      26.369  19.679   7.000  0.00  0.00     0.210 HD
ENDBRANCH  19  20
BRANCH  19  22
HETATM   22  C   UNK N   1      27.374  19.752   4.393  0.00  0.00     0.036 C 
BRANCH  22  23
HETATM   23  C   UNK N   1      25.924  20.125   4.619  0.00  0.00     0.003 C 
BRANCH  23  24
HETATM   24  C   UNK N   1      25.027  19.359   3.673  0.00  0.00    -0.000 C 
BRANCH  24  25
HETATM   25  C   UNK N   1      25.698  18.044   3.335  0.00  0.00    -0.005 C 
HETATM   26  C   UNK N   1      25.037  16.922   4.107  0.00  0.00     0.005 C 
ENDBRANCH  24  25
ENDBRANCH  23  24
ENDBRANCH  22  23
ENDBRANCH  19  22
ENDBRANCH  18  19
ENDBRANCH   3  17
BRANCH   4  27
HETATM   27  O   UNK N   1      29.050  15.064   4.222  0.00  0.00    -0.394 OA
HETATM   28  H   UNK N   1      28.939  14.109   4.351  0.00  0.00     0.210 HD
ENDBRANCH   4  27
TORSDOF 16
ENDMDL
MODEL 9
REMARK VINA RESULT:      -5.5     13.939     17.546
REMARK  16 active torsions:
REMARK  status: ('A' for Active; 'I' for Inactive)
REMARK    1  A    between atoms: C_8  and  O_1 
REMARK    2  A    between atoms: C_17  and  O_3 
REMARK    3  A    between atoms: O_4  and  C_24 
REMARK    4  A    between atoms: C_6  and  C_10 
REMARK    5  A    between atoms: C_7  and  C_13 
REMARK    6  A    between atoms: C_10  and  C_12 
REMARK    7  A    between atoms: C_12  and  C_14 
REMARK    8  A    between atoms: C_14  and  C_16 
REMARK    9  A    between atoms: C_15  and  C_17 
REMARK   10  A    between atoms: C_16  and  C_19 
REMARK   11  A    between atoms: C_17  and  C_18 
REMARK   12  A    between atoms: C_18  and  C_20 
REMARK   13  A    between atoms: C_19  and  C_21 
REMARK   14  A    between atoms: C_20  and  C_22 
REMARK   15  A    between atoms: C_21  and  C_24 
REMARK   16  A    between atoms: C_22  and  C_23 
ROOT
HETATM    1  O   UNK N   1      31.012  22.556  -1.980  0.00  0.00    -0.297 OA
HETATM    2  C   UNK N   1      30.173  23.971  -3.703  0.00  0.00     0.065 C 
HETATM    3  C   UNK N   1      28.824  24.676  -3.691  0.00  0.00     0.048 C 
HETATM    4  C   UNK N   1      27.881  23.686  -3.028  0.00  0.00     0.133 C 
HETATM    5  C   UNK N   1      28.698  23.088  -1.894  0.00  0.00     0.111 C 
HETATM    6  C   UNK N   1      30.069  23.163  -2.460  0.00  0.00     0.134 C 
ENDROOT
BRANCH   2   7
HETATM    7  C   UNK N   1      31.292  24.992  -3.619  0.00  0.00     0.013 C 
BRANCH   7   8
HETATM    8  C   UNK N   1      32.196  24.830  -4.827  0.00  0.00     0.001 C 
BRANCH   8   9
HETATM    9  C   UNK N   1      31.783  23.613  -5.631  0.00  0.00     0.000 C 
BRANCH   9  10
HETATM   10  C   UNK N   1      33.000  22.744  -5.896  0.00  0.00     0.001 C 
BRANCH  10  11
HETATM   11  C   UNK N   1      33.912  22.761  -4.688  0.00  0.00     0.010 C 
BRANCH  11  12
HETATM   12  C   UNK N   1      34.440  21.363  -4.425  0.00  0.00     0.110 C 
BRANCH  12  13
HETATM   13  C   UNK N   1      33.439  20.573  -3.651  0.00  0.00     0.139 C 
HETATM   14  O   UNK N   1      32.831  19.661  -4.187  0.00  0.00    -0.650 OA
BRANCH  13  15
HETATM   15  O   UNK N   1      33.221  20.852  -2.353  0.00  0.00    -0.776 OA
HETATM   16  H   UNK N   1      33.089  20.180  -1.713  0.00  0.00     0.167 HD
ENDBRANCH  13  15
ENDBRANCH  12  13
ENDBRANCH  11  12
ENDBRANCH  10  11
ENDBRANCH   9  10
ENDBRANCH   8   9
ENDBRANCH   7   8
ENDBRANCH   2   7
BRANCH   3  17
HETATM   17  C   UNK N   1      28.367  25.087  -5.054  0.00  0.00    -0.020 C 
HETATM   18  C   UNK N   1      27.658  24.249  -5.811  0.00  0.00     0.001 C 
BRANCH  18  19
HETATM   19  C   UNK N   1      27.168  24.663  -7.156  0.00  0.00     0.140 C 
BRANCH  19  20
HETATM   20  O   UNK N   1      27.961  25.705  -7.638  0.00  0.00    -0.392 OA
HETATM   21  H   UNK N   1      28.601  26.187  -7.090  0.00  0.00     0.210 HD
ENDBRANCH  19  20
BRANCH  19  22
HETATM   22  C   UNK N   1      25.716  25.110  -7.099  0.00  0.00     0.036 C 
BRANCH  22  23
HETATM   23  C   UNK N   1      25.672  26.616  -6.960  0.00  0.00     0.003 C 
BRANCH  23  24
HETATM   24  C   UNK N   1      24.792  27.015  -5.797  0.00  0.00    -0.000 C 
BRANCH  24  25
HETATM   25  C   UNK N   1      25.640  27.759  -4.786  0.00  0.00    -0.005 C 
HETATM   26  C   UNK N   1      26.828  28.387  -5.482  0.00  0.00     0.005 C 
ENDBRANCH  24  25
ENDBRANCH  23  24
ENDBRANCH  22  23
ENDBRANCH  19  22
ENDBRANCH  18  19
ENDBRANCH   3  17
BRANCH   4  27
HETATM   27  O   UNK N   1      26.741  24.324  -2.542  0.00  0.00    -0.394 OA
HETATM   28  H   UNK N   1      26.116  24.923  -2.980  0.00  0.00     0.210 HD
ENDBRANCH   4  27
TORSDOF 16
ENDMDL
