MODEL 1
REMARK VINA RESULT:      -4.4      0.000      0.000
REMARK  11 active torsions:
REMARK  status: ('A' for Active; 'I' for Inactive)
REMARK    1  A    between atoms: S_1  and  P_3 
REMARK    2  A    between atoms: S_1  and  C_10 
REMARK    3  A    between atoms: P_3  and  O_6 
REMARK    4  A    between atoms: P_3  and  O_7 
REMARK    5  A    between atoms: O_4  and  C_12 
REMARK    6  A    between atoms: O_4  and  C_14 
REMARK    7  A    between atoms: O_5  and  C_13 
REMARK    8  A    between atoms: O_5  and  C_15 
REMARK    9  A    between atoms: C_10  and  C_11 
REMARK   10  A    between atoms: C_10  and  C_12 
REMARK   11  A    between atoms: C_11  and  C_13 
ROOT
HETATM    1  C   UNK N   1      29.169  24.594  -4.046  0.00  0.00     0.165 C 
ENDROOT
BRANCH   1   2
HETATM    2  S   UNK N   1      28.930  26.396  -4.166  0.00  0.00    -0.059 SA
BRANCH   2   3
HETATM    3  P   UNK N   1      26.763  26.289  -4.040  0.00  0.00     0.248 P 
HETATM    4  S   UNK N   1      26.057  26.694  -5.616  0.00  0.00    -0.026 SA
BRANCH   3   5
HETATM    5  O   UNK N   1      26.198  24.669  -3.702  0.00  0.00    -0.332 OA
HETATM    6  C   UNK N   1      25.560  24.216  -4.861  0.00  0.00     0.211 C 
ENDBRANCH   3   5
BRANCH   3   7
HETATM    7  O   UNK N   1      26.060  27.400  -2.898  0.00  0.00    -0.332 OA
HETATM    8  C   UNK N   1      26.097  28.645  -3.527  0.00  0.00     0.211 C 
ENDBRANCH   3   7
ENDBRANCH   2   3
ENDBRANCH   1   2
BRANCH   1   9
HETATM    9  C   UNK N   1      30.392  24.330  -3.175  0.00  0.00     0.137 C 
BRANCH   9  10
HETATM   10  C   UNK N   1      30.209  23.171  -2.248  0.00  0.00     0.260 C 
HETATM   11  O   UNK N   1      29.123  22.971  -1.722  0.00  0.00    -0.265 OA
BRANCH  10  12
HETATM   12  O   UNK N   1      31.243  22.316  -2.058  0.00  0.00    -0.322 OA
BRANCH  12  13
HETATM   13  C   UNK N   1      31.891  21.695  -3.101  0.00  0.00     0.174 C 
HETATM   14  C   UNK N   1      30.911  20.811  -3.844  0.00  0.00     0.034 C 
ENDBRANCH  12  13
ENDBRANCH  10  12
ENDBRANCH   9  10
ENDBRANCH   1   9
BRANCH   1  15
HETATM   15  C   UNK N   1      29.144  23.953  -5.432  0.00  0.00     0.273 C 
HETATM   16  O   UNK N   1      29.625  24.589  -6.355  0.00  0.00    -0.264 OA
BRANCH  15  17
HETATM   17  O   UNK N   1      28.606  22.733  -5.718  0.00  0.00    -0.321 OA
BRANCH  17  18
HETATM   18  C   UNK N   1      28.313  22.242  -6.968  0.00  0.00     0.174 C 
HETATM   19  C   UNK N   1      29.274  21.126  -7.314  0.00  0.00     0.034 C 
ENDBRANCH  17  18
ENDBRANCH  15  17
ENDBRANCH   1  15
TORSDOF 11
ENDMDL
MODEL 2
REMARK VINA RESULT:      -4.4      2.421      5.958
REMARK  11 active torsions:
REMARK  status: ('A' for Active; 'I' for Inactive)
REMARK    1  A    between atoms: S_1  and  P_3 
REMARK    2  A    between atoms: S_1  and  C_10 
REMARK    3  A    between atoms: P_3  and  O_6 
REMARK    4  A    between atoms: P_3  and  O_7 
REMARK    5  A    between atoms: O_4  and  C_12 
REMARK    6  A    between atoms: O_4  and  C_14 
REMARK    7  A    between atoms: O_5  and  C_13 
REMARK    8  A    between atoms: O_5  and  C_15 
REMARK    9  A    between atoms: C_10  and  C_11 
REMARK   10  A    between atoms: C_10  and  C_12 
REMARK   11  A    between atoms: C_11  and  C_13 
ROOT
HETATM    1  C   UNK N   1      27.878  24.523  -4.642  0.00  0.00     0.165 C 
ENDROOT
BRANCH   1   2
HETATM    2  S   UNK N   1      29.545  25.233  -4.455  0.00  0.00    -0.059 SA
BRANCH   2   3
HETATM    3  P   UNK N   1      30.572  23.348  -4.798  0.00  0.00     0.248 P 
HETATM    4  S   UNK N   1      32.321  23.586  -4.624  0.00  0.00    -0.026 SA
BRANCH   3   5
HETATM    5  O   UNK N   1      30.165  22.143  -3.599  0.00  0.00    -0.332 OA
HETATM    6  C   UNK N   1      30.354  22.741  -2.349  0.00  0.00     0.211 C 
ENDBRANCH   3   5
BRANCH   3   7
HETATM    7  O   UNK N   1      30.333  22.687  -6.392  0.00  0.00    -0.332 OA
HETATM    8  C   UNK N   1      29.570  21.535  -6.201  0.00  0.00     0.211 C 
ENDBRANCH   3   7
ENDBRANCH   2   3
ENDBRANCH   1   2
BRANCH   1   9
HETATM    9  C   UNK N   1      27.324  24.951  -5.997  0.00  0.00     0.137 C 
BRANCH   9  10
HETATM   10  C   UNK N   1      25.876  24.620  -6.165  0.00  0.00     0.260 C 
HETATM   11  O   UNK N   1      25.059  25.510  -6.351  0.00  0.00    -0.265 OA
BRANCH  10  12
HETATM   12  O   UNK N   1      25.499  23.318  -6.174  0.00  0.00    -0.322 OA
BRANCH  12  13
HETATM   13  C   UNK N   1      25.885  22.443  -7.164  0.00  0.00     0.174 C 
HETATM   14  C   UNK N   1      24.766  21.455  -7.422  0.00  0.00     0.034 C 
ENDBRANCH  12  13
ENDBRANCH  10  12
ENDBRANCH   9  10
ENDBRANCH   1   9
BRANCH   1  15
HETATM   15  C   UNK N   1      27.024  24.818  -3.411  0.00  0.00     0.273 C 
HETATM   16  O   UNK N   1      27.042  24.000  -2.506  0.00  0.00    -0.264 OA
BRANCH  15  17
HETATM   17  O   UNK N   1      26.227  25.914  -3.258  0.00  0.00    -0.321 OA
BRANCH  17  18
HETATM   18  C   UNK N   1      26.637  27.225  -3.228  0.00  0.00     0.174 C 
HETATM   19  C   UNK N   1      25.635  28.087  -3.966  0.00  0.00     0.034 C 
ENDBRANCH  17  18
ENDBRANCH  15  17
ENDBRANCH   1  15
TORSDOF 11
ENDMDL
MODEL 3
REMARK VINA RESULT:      -4.3     14.277     17.024
REMARK  11 active torsions:
REMARK  status: ('A' for Active; 'I' for Inactive)
REMARK    1  A    between atoms: S_1  and  P_3 
REMARK    2  A    between atoms: S_1  and  C_10 
REMARK    3  A    between atoms: P_3  and  O_6 
REMARK    4  A    between atoms: P_3  and  O_7 
REMARK    5  A    between atoms: O_4  and  C_12 
REMARK    6  A    between atoms: O_4  and  C_14 
REMARK    7  A    between atoms: O_5  and  C_13 
REMARK    8  A    between atoms: O_5  and  C_15 
REMARK    9  A    between atoms: C_10  and  C_11 
REMARK   10  A    between atoms: C_10  and  C_12 
REMARK   11  A    between atoms: C_11  and  C_13 
ROOT
HETATM    1  C   UNK N   1      34.555  16.093   8.286  0.00  0.00     0.165 C 
ENDROOT
BRANCH   1   2
HETATM    2  S   UNK N   1      35.288  14.466   7.920  0.00  0.00    -0.059 SA
BRANCH   2   3
HETATM    3  P   UNK N   1      36.561  14.453   9.681  0.00  0.00     0.248 P 
HETATM    4  S   UNK N   1      36.031  13.172  10.787  0.00  0.00    -0.026 SA
BRANCH   3   5
HETATM    5  O   UNK N   1      38.219  14.052   9.298  0.00  0.00    -0.332 OA
HETATM    6  C   UNK N   1      38.666  13.188  10.302  0.00  0.00     0.211 C 
ENDBRANCH   3   5
BRANCH   3   7
HETATM    7  O   UNK N   1      36.518  15.931  10.602  0.00  0.00    -0.332 OA
HETATM    8  C   UNK N   1      35.835  15.612  11.777  0.00  0.00     0.211 C 
ENDBRANCH   3   7
ENDBRANCH   2   3
ENDBRANCH   1   2
BRANCH   1   9
HETATM    9  C   UNK N   1      33.233  15.871   9.013  0.00  0.00     0.137 C 
BRANCH   9  10
HETATM   10  C   UNK N   1      32.088  15.631   8.081  0.00  0.00     0.260 C 
HETATM   11  O   UNK N   1      31.895  14.515   7.619  0.00  0.00    -0.265 OA
BRANCH  10  12
HETATM   12  O   UNK N   1      31.238  16.652   7.814  0.00  0.00    -0.322 OA
BRANCH  12  13
HETATM   13  C   UNK N   1      31.225  17.816   8.548  0.00  0.00     0.174 C 
HETATM   14  C   UNK N   1      29.864  17.990   9.187  0.00  0.00     0.034 C 
ENDBRANCH  12  13
ENDBRANCH  10  12
ENDBRANCH   9  10
ENDBRANCH   1   9
BRANCH   1  15
HETATM   15  C   UNK N   1      34.527  16.967   7.035  0.00  0.00     0.273 C 
HETATM   16  O   UNK N   1      34.450  18.175   7.194  0.00  0.00    -0.264 OA
BRANCH  15  17
HETATM   17  O   UNK N   1      34.560  16.500   5.754  0.00  0.00    -0.321 OA
BRANCH  17  18
HETATM   18  C   UNK N   1      33.475  16.204   4.964  0.00  0.00     0.174 C 
HETATM   19  C   UNK N   1      32.896  17.482   4.397  0.00  0.00     0.034 C 
ENDBRANCH  17  18
ENDBRANCH  15  17
ENDBRANCH   1  15
TORSDOF 11
ENDMDL
MODEL 4
REMARK VINA RESULT:      -4.3     12.999     15.151
REMARK  11 active torsions:
REMARK  status: ('A' for Active; 'I' for Inactive)
REMARK    1  A    between atoms: S_1  and  P_3 
REMARK    2  A    between atoms: S_1  and  C_10 
REMARK    3  A    between atoms: P_3  and  O_6 
REMARK    4  A    between atoms: P_3  and  O_7 
REMARK    5  A    between atoms: O_4  and  C_12 
REMARK    6  A    between atoms: O_4  and  C_14 
REMARK    7  A    between atoms: O_5  and  C_13 
REMARK    8  A    between atoms: O_5  and  C_15 
REMARK    9  A    between atoms: C_10  and  C_11 
REMARK   10  A    between atoms: C_10  and  C_12 
REMARK   11  A    between atoms: C_11  and  C_13 
ROOT
HETATM    1  C   UNK N   1      32.009  16.992   7.036  0.00  0.00     0.165 C 
ENDROOT
BRANCH   1   2
HETATM    2  S   UNK N   1      32.401  15.231   7.289  0.00  0.00    -0.059 SA
BRANCH   2   3
HETATM    3  P   UNK N   1      33.636  15.074   5.508  0.00  0.00     0.248 P 
HETATM    4  S   UNK N   1      35.340  14.928   5.979  0.00  0.00    -0.026 SA
BRANCH   3   5
HETATM    5  O   UNK N   1      33.301  13.622   4.594  0.00  0.00    -0.332 OA
HETATM    6  C   UNK N   1      33.712  12.545   5.386  0.00  0.00     0.211 C 
ENDBRANCH   3   5
BRANCH   3   7
HETATM    7  O   UNK N   1      33.546  16.458   4.454  0.00  0.00    -0.332 OA
HETATM    8  C   UNK N   1      32.989  15.981   3.267  0.00  0.00     0.211 C 
ENDBRANCH   3   7
ENDBRANCH   2   3
ENDBRANCH   1   2
BRANCH   1   9
HETATM    9  C   UNK N   1      32.576  17.783   8.210  0.00  0.00     0.137 C 
BRANCH   9  10
HETATM   10  C   UNK N   1      34.064  17.927   8.152  0.00  0.00     0.260 C 
HETATM   11  O   UNK N   1      34.603  18.331   7.131  0.00  0.00    -0.265 OA
BRANCH  10  12
HETATM   12  O   UNK N   1      34.790  17.668   9.266  0.00  0.00    -0.322 OA
BRANCH  12  13
HETATM   13  C   UNK N   1      35.054  16.387   9.696  0.00  0.00     0.174 C 
HETATM   14  C   UNK N   1      35.365  16.411  11.178  0.00  0.00     0.034 C 
ENDBRANCH  12  13
ENDBRANCH  10  12
ENDBRANCH   9  10
ENDBRANCH   1   9
BRANCH   1  15
HETATM   15  C   UNK N   1      30.527  17.176   6.719  0.00  0.00     0.273 C 
HETATM   16  O   UNK N   1      30.084  16.591   5.744  0.00  0.00    -0.264 OA
BRANCH  15  17
HETATM   17  O   UNK N   1      29.668  17.962   7.429  0.00  0.00    -0.321 OA
BRANCH  17  18
HETATM   18  C   UNK N   1      28.910  17.575   8.509  0.00  0.00     0.174 C 
HETATM   19  C   UNK N   1      29.301  18.393   9.721  0.00  0.00     0.034 C 
ENDBRANCH  17  18
ENDBRANCH  15  17
ENDBRANCH   1  15
TORSDOF 11
ENDMDL
MODEL 5
REMARK VINA RESULT:      -4.3      2.589      6.204
REMARK  11 active torsions:
REMARK  status: ('A' for Active; 'I' for Inactive)
REMARK    1  A    between atoms: S_1  and  P_3 
REMARK    2  A    between atoms: S_1  and  C_10 
REMARK    3  A    between atoms: P_3  and  O_6 
REMARK    4  A    between atoms: P_3  and  O_7 
REMARK    5  A    between atoms: O_4  and  C_12 
REMARK    6  A    between atoms: O_4  and  C_14 
REMARK    7  A    between atoms: O_5  and  C_13 
REMARK    8  A    between atoms: O_5  and  C_15 
REMARK    9  A    between atoms: C_10  and  C_11 
REMARK   10  A    between atoms: C_10  and  C_12 
REMARK   11  A    between atoms: C_11  and  C_13 
ROOT
HETATM    1  C   UNK N   1      27.920  23.884  -4.760  0.00  0.00     0.165 C 
ENDROOT
BRANCH   1   2
HETATM    2  S   UNK N   1      29.524  24.678  -5.096  0.00  0.00    -0.059 SA
BRANCH   2   3
HETATM    3  P   UNK N   1      30.682  23.180  -4.028  0.00  0.00     0.248 P 
HETATM    4  S   UNK N   1      32.366  23.226  -4.581  0.00  0.00    -0.026 SA
BRANCH   3   5
HETATM    5  O   UNK N   1      30.768  23.508  -2.313  0.00  0.00    -0.332 OA
HETATM    6  C   UNK N   1      29.615  22.961  -1.741  0.00  0.00     0.211 C 
ENDBRANCH   3   5
BRANCH   3   7
HETATM    7  O   UNK N   1      30.137  21.545  -4.281  0.00  0.00    -0.332 OA
HETATM    8  C   UNK N   1      31.297  20.768  -4.288  0.00  0.00     0.211 C 
ENDBRANCH   3   7
ENDBRANCH   2   3
ENDBRANCH   1   2
BRANCH   1   9
HETATM    9  C   UNK N   1      27.314  23.447  -6.089  0.00  0.00     0.137 C 
BRANCH   9  10
HETATM   10  C   UNK N   1      26.426  24.486  -6.695  0.00  0.00     0.260 C 
HETATM   11  O   UNK N   1      25.219  24.453  -6.501  0.00  0.00    -0.265 OA
BRANCH  10  12
HETATM   12  O   UNK N   1      26.989  25.496  -7.402  0.00  0.00    -0.322 OA
BRANCH  12  13
HETATM   13  C   UNK N   1      26.526  26.790  -7.341  0.00  0.00     0.174 C 
HETATM   14  C   UNK N   1      27.680  27.721  -7.030  0.00  0.00     0.034 C 
ENDBRANCH  12  13
ENDBRANCH  10  12
ENDBRANCH   9  10
ENDBRANCH   1   9
BRANCH   1  15
HETATM   15  C   UNK N   1      27.061  24.763  -3.854  0.00  0.00     0.273 C 
HETATM   16  O   UNK N   1      26.290  24.203  -3.093  0.00  0.00    -0.264 OA
BRANCH  15  17
HETATM   17  O   UNK N   1      27.074  26.127  -3.848  0.00  0.00    -0.321 OA
BRANCH  17  18
HETATM   18  C   UNK N   1      26.291  26.949  -3.074  0.00  0.00     0.174 C 
HETATM   19  C   UNK N   1      25.575  27.947  -3.957  0.00  0.00     0.034 C 
ENDBRANCH  17  18
ENDBRANCH  15  17
ENDBRANCH   1  15
TORSDOF 11
ENDMDL
MODEL 6
REMARK VINA RESULT:      -4.3     13.196     16.091
REMARK  11 active torsions:
REMARK  status: ('A' for Active; 'I' for Inactive)
REMARK    1  A    between atoms: S_1  and  P_3 
REMARK    2  A    between atoms: S_1  and  C_10 
REMARK    3  A    between atoms: P_3  and  O_6 
REMARK    4  A    between atoms: P_3  and  O_7 
REMARK    5  A    between atoms: O_4  and  C_12 
REMARK    6  A    between atoms: O_4  and  C_14 
REMARK    7  A    between atoms: O_5  and  C_13 
REMARK    8  A    between atoms: O_5  and  C_15 
REMARK    9  A    between atoms: C_10  and  C_11 
REMARK   10  A    between atoms: C_10  and  C_12 
REMARK   11  A    between atoms: C_11  and  C_13 
ROOT
HETATM    1  C   UNK N   1      33.307  17.112   7.968  0.00  0.00     0.165 C 
ENDROOT
BRANCH   1   2
HETATM    2  S   UNK N   1      33.698  17.525   6.237  0.00  0.00    -0.059 SA
BRANCH   2   3
HETATM    3  P   UNK N   1      34.365  15.520   5.730  0.00  0.00     0.248 P 
HETATM    4  S   UNK N   1      33.516  14.339   6.745  0.00  0.00    -0.026 SA
BRANCH   3   5
HETATM    5  O   UNK N   1      33.948  15.078   4.091  0.00  0.00    -0.332 OA
HETATM    6  C   UNK N   1      33.241  16.156   3.551  0.00  0.00     0.211 C 
ENDBRANCH   3   5
BRANCH   3   7
HETATM    7  O   UNK N   1      36.065  15.246   5.993  0.00  0.00    -0.332 OA
HETATM    8  C   UNK N   1      36.130  14.256   6.973  0.00  0.00     0.211 C 
ENDBRANCH   3   7
ENDBRANCH   2   3
ENDBRANCH   1   2
BRANCH   1   9
HETATM    9  C   UNK N   1      32.051  17.876   8.371  0.00  0.00     0.137 C 
BRANCH   9  10
HETATM   10  C   UNK N   1      30.817  17.031   8.332  0.00  0.00     0.260 C 
HETATM   11  O   UNK N   1      30.631  16.257   7.404  0.00  0.00    -0.265 OA
BRANCH  10  12
HETATM   12  O   UNK N   1      29.950  17.092   9.371  0.00  0.00    -0.322 OA
BRANCH  12  13
HETATM   13  C   UNK N   1      29.326  18.260   9.746  0.00  0.00     0.174 C 
HETATM   14  C   UNK N   1      28.220  18.576   8.760  0.00  0.00     0.034 C 
ENDBRANCH  12  13
ENDBRANCH  10  12
ENDBRANCH   9  10
ENDBRANCH   1   9
BRANCH   1  15
HETATM   15  C   UNK N   1      34.540  17.276   8.854  0.00  0.00     0.273 C 
HETATM   16  O   UNK N   1      35.104  18.357   8.838  0.00  0.00    -0.264 OA
BRANCH  15  17
HETATM   17  O   UNK N   1      35.069  16.298   9.644  0.00  0.00    -0.321 OA
BRANCH  17  18
HETATM   18  C   UNK N   1      35.643  16.469  10.881  0.00  0.00     0.174 C 
HETATM   19  C   UNK N   1      35.524  15.187  11.677  0.00  0.00     0.034 C 
ENDBRANCH  17  18
ENDBRANCH  15  17
ENDBRANCH   1  15
TORSDOF 11
ENDMDL
MODEL 7
REMARK VINA RESULT:      -4.3     16.563     19.297
REMARK  11 active torsions:
REMARK  status: ('A' for Active; 'I' for Inactive)
REMARK    1  A    between atoms: S_1  and  P_3 
REMARK    2  A    between atoms: S_1  and  C_10 
REMARK    3  A    between atoms: P_3  and  O_6 
REMARK    4  A    between atoms: P_3  and  O_7 
REMARK    5  A    between atoms: O_4  and  C_12 
REMARK    6  A    between atoms: O_4  and  C_14 
REMARK    7  A    between atoms: O_5  and  C_13 
REMARK    8  A    between atoms: O_5  and  C_15 
REMARK    9  A    between atoms: C_10  and  C_11 
REMARK   10  A    between atoms: C_10  and  C_12 
REMARK   11  A    between atoms: C_11  and  C_13 
ROOT
HETATM    1  C   UNK N   1      35.250  15.328   9.913  0.00  0.00     0.165 C 
ENDROOT
BRANCH   1   2
HETATM    2  S   UNK N   1      35.119  14.458   8.318  0.00  0.00    -0.059 SA
BRANCH   2   3
HETATM    3  P   UNK N   1      37.004  13.400   8.547  0.00  0.00     0.248 P 
HETATM    4  S   UNK N   1      36.698  11.775   9.189  0.00  0.00    -0.026 SA
BRANCH   3   5
HETATM    5  O   UNK N   1      37.802  13.129   7.015  0.00  0.00    -0.332 OA
HETATM    6  C   UNK N   1      37.741  11.754   6.768  0.00  0.00     0.211 C 
ENDBRANCH   3   5
BRANCH   3   7
HETATM    7  O   UNK N   1      38.114  14.155   9.657  0.00  0.00    -0.332 OA
HETATM    8  C   UNK N   1      38.503  13.141  10.533  0.00  0.00     0.211 C 
ENDBRANCH   3   7
ENDBRANCH   2   3
ENDBRANCH   1   2
BRANCH   1   9
HETATM    9  C   UNK N   1      34.431  14.561  10.945  0.00  0.00     0.137 C 
BRANCH   9  10
HETATM   10  C   UNK N   1      35.186  14.298  12.209  0.00  0.00     0.260 C 
HETATM   11  O   UNK N   1      36.180  14.957  12.480  0.00  0.00    -0.265 OA
BRANCH  10  12
HETATM   12  O   UNK N   1      34.711  13.368  13.073  0.00  0.00    -0.322 OA
BRANCH  12  13
HETATM   13  C   UNK N   1      35.524  12.699  13.960  0.00  0.00     0.174 C 
HETATM   14  C   UNK N   1      35.094  13.025  15.376  0.00  0.00     0.034 C 
ENDBRANCH  12  13
ENDBRANCH  10  12
ENDBRANCH   9  10
ENDBRANCH   1   9
BRANCH   1  15
HETATM   15  C   UNK N   1      34.947  16.815   9.744  0.00  0.00     0.273 C 
HETATM   16  O   UNK N   1      35.637  17.604  10.368  0.00  0.00    -0.264 OA
BRANCH  15  17
HETATM   17  O   UNK N   1      33.950  17.326   8.965  0.00  0.00    -0.321 OA
BRANCH  17  18
HETATM   18  C   UNK N   1      34.095  18.238   7.947  0.00  0.00     0.174 C 
HETATM   19  C   UNK N   1      33.669  17.609   6.638  0.00  0.00     0.034 C 
ENDBRANCH  17  18
ENDBRANCH  15  17
ENDBRANCH   1  15
TORSDOF 11
ENDMDL
MODEL 8
REMARK VINA RESULT:      -4.2     15.898     17.341
REMARK  11 active torsions:
REMARK  status: ('A' for Active; 'I' for Inactive)
REMARK    1  A    between atoms: S_1  and  P_3 
REMARK    2  A    between atoms: S_1  and  C_10 
REMARK    3  A    between atoms: P_3  and  O_6 
REMARK    4  A    between atoms: P_3  and  O_7 
REMARK    5  A    between atoms: O_4  and  C_12 
REMARK    6  A    between atoms: O_4  and  C_14 
REMARK    7  A    between atoms: O_5  and  C_13 
REMARK    8  A    between atoms: O_5  and  C_15 
REMARK    9  A    between atoms: C_10  and  C_11 
REMARK   10  A    between atoms: C_10  and  C_12 
REMARK   11  A    between atoms: C_11  and  C_13 
ROOT
HETATM    1  C   UNK N   1      21.477  14.313   7.558  0.00  0.00     0.165 C 
ENDROOT
BRANCH   1   2
HETATM    2  S   UNK N   1      22.842  15.054   6.606  0.00  0.00    -0.059 SA
BRANCH   2   3
HETATM    3  P   UNK N   1      21.550  15.865   5.058  0.00  0.00     0.248 P 
HETATM    4  S   UNK N   1      20.355  14.643   4.584  0.00  0.00    -0.026 SA
BRANCH   3   5
HETATM    5  O   UNK N   1      20.601  17.218   5.629  0.00  0.00    -0.332 OA
HETATM    6  C   UNK N   1      21.494  18.111   6.227  0.00  0.00     0.211 C 
ENDBRANCH   3   5
BRANCH   3   7
HETATM    7  O   UNK N   1      22.384  16.314   3.597  0.00  0.00    -0.332 OA
HETATM    8  C   UNK N   1      21.606  15.804   2.557  0.00  0.00     0.211 C 
ENDBRANCH   3   7
ENDBRANCH   2   3
ENDBRANCH   1   2
BRANCH   1   9
HETATM    9  C   UNK N   1      21.100  15.273   8.681  0.00  0.00     0.137 C 
BRANCH   9  10
HETATM   10  C   UNK N   1      19.635  15.273   8.980  0.00  0.00     0.260 C 
HETATM   11  O   UNK N   1      19.168  14.465   9.770  0.00  0.00    -0.265 OA
BRANCH  10  12
HETATM   12  O   UNK N   1      18.852  16.224   8.414  0.00  0.00    -0.322 OA
BRANCH  12  13
HETATM   13  C   UNK N   1      18.315  17.266   9.134  0.00  0.00     0.174 C 
HETATM   14  C   UNK N   1      19.371  18.335   9.330  0.00  0.00     0.034 C 
ENDBRANCH  12  13
ENDBRANCH  10  12
ENDBRANCH   9  10
ENDBRANCH   1   9
BRANCH   1  15
HETATM   15  C   UNK N   1      21.808  12.875   7.948  0.00  0.00     0.273 C 
HETATM   16  O   UNK N   1      21.100  11.992   7.494  0.00  0.00    -0.264 OA
BRANCH  15  17
HETATM   17  O   UNK N   1      22.822  12.506   8.783  0.00  0.00    -0.321 OA
BRANCH  17  18
HETATM   18  C   UNK N   1      22.971  12.873  10.099  0.00  0.00     0.174 C 
HETATM   19  C   UNK N   1      21.864  12.258  10.927  0.00  0.00     0.034 C 
ENDBRANCH  17  18
ENDBRANCH  15  17
ENDBRANCH   1  15
TORSDOF 11
ENDMDL
MODEL 9
REMARK VINA RESULT:      -4.2      2.480      5.121
REMARK  11 active torsions:
REMARK  status: ('A' for Active; 'I' for Inactive)
REMARK    1  A    between atoms: S_1  and  P_3 
REMARK    2  A    between atoms: S_1  and  C_10 
REMARK    3  A    between atoms: P_3  and  O_6 
REMARK    4  A    between atoms: P_3  and  O_7 
REMARK    5  A    between atoms: O_4  and  C_12 
REMARK    6  A    between atoms: O_4  and  C_14 
REMARK    7  A    between atoms: O_5  and  C_13 
REMARK    8  A    between atoms: O_5  and  C_15 
REMARK    9  A    between atoms: C_10  and  C_11 
REMARK   10  A    between atoms: C_10  and  C_12 
REMARK   11  A    between atoms: C_11  and  C_13 
ROOT
HETATM    1  C   UNK N   1      26.633  25.818  -4.508  0.00  0.00     0.165 C 
ENDROOT
BRANCH   1   2
HETATM    2  S   UNK N   1      26.200  27.108  -3.297  0.00  0.00    -0.059 SA
BRANCH   2   3
HETATM    3  P   UNK N   1      27.808  28.445  -3.892  0.00  0.00     0.248 P 
HETATM    4  S   UNK N   1      27.644  28.841  -5.613  0.00  0.00    -0.026 SA
BRANCH   3   5
HETATM    5  O   UNK N   1      27.726  29.986  -3.070  0.00  0.00    -0.332 OA
HETATM    6  C   UNK N   1      26.539  30.599  -3.483  0.00  0.00     0.211 C 
ENDBRANCH   3   5
BRANCH   3   7
HETATM    7  O   UNK N   1      29.402  27.769  -3.704  0.00  0.00    -0.332 OA
HETATM    8  C   UNK N   1      29.873  27.571  -5.002  0.00  0.00     0.211 C 
ENDBRANCH   3   7
ENDBRANCH   2   3
ENDBRANCH   1   2
BRANCH   1   9
HETATM    9  C   UNK N   1      25.475  25.675  -5.490  0.00  0.00     0.137 C 
BRANCH   9  10
HETATM   10  C   UNK N   1      25.848  24.916  -6.724  0.00  0.00     0.260 C 
HETATM   11  O   UNK N   1      26.771  25.302  -7.428  0.00  0.00    -0.265 OA
BRANCH  10  12
HETATM   12  O   UNK N   1      25.191  23.765  -7.008  0.00  0.00    -0.322 OA
BRANCH  12  13
HETATM   13  C   UNK N   1      25.802  22.533  -6.962  0.00  0.00     0.174 C 
HETATM   14  C   UNK N   1      24.798  21.462  -7.332  0.00  0.00     0.034 C 
ENDBRANCH  12  13
ENDBRANCH  10  12
ENDBRANCH   9  10
ENDBRANCH   1   9
BRANCH   1  15
HETATM   15  C   UNK N   1      27.112  24.552  -3.801  0.00  0.00     0.273 C 
HETATM   16  O   UNK N   1      26.372  24.061  -2.965  0.00  0.00    -0.264 OA
BRANCH  15  17
HETATM   17  O   UNK N   1      28.312  23.942  -4.018  0.00  0.00    -0.321 OA
BRANCH  17  18
HETATM   18  C   UNK N   1      29.472  24.145  -3.309  0.00  0.00     0.174 C 
HETATM   19  C   UNK N   1      29.629  23.054  -2.272  0.00  0.00     0.034 C 
ENDBRANCH  17  18
ENDBRANCH  15  17
ENDBRANCH   1  15
TORSDOF 11
ENDMDL
