MODEL 1
REMARK VINA RESULT:      -9.0      0.000      0.000
REMARK  8 active torsions:
REMARK  status: ('A' for Active; 'I' for Inactive)
REMARK    1  A    between atoms: C_16  and  O_1 
REMARK    2  A    between atoms: C_22  and  O_1 
REMARK    3  A    between atoms: C_24  and  O_6 
REMARK    4  A    between atoms: C_26  and  O_8 
REMARK    5  A    between atoms: O_11  and  C_36 
REMARK    6  A    between atoms: O_12  and  C_37 
REMARK    7  A    between atoms: O_13  and  C_39 
REMARK    8  A    between atoms: C_17  and  C_23 
ROOT
HETATM    1  O   UNK N   1      23.853  20.980   2.334  0.00  0.00    -0.321 OA
HETATM    2  O   UNK N   1      25.931  20.303   2.756  0.00  0.00    -0.265 OA
HETATM    3  O   UNK N   1      20.915  15.569   7.950  0.00  0.00    -0.323 OA
HETATM    4  O   UNK N   1      22.850  14.545   7.617  0.00  0.00    -0.323 OA
HETATM    5  C   UNK N   1      22.669  19.368   3.396  0.00  0.00     0.058 C 
HETATM    6  C   UNK N   1      24.093  19.238   3.909  0.00  0.00     0.107 C 
HETATM    7  C   UNK N   1      21.590  18.953   4.417  0.00  0.00     0.165 C 
HETATM    8  C   UNK N   1      24.367  17.715   4.026  0.00  0.00     0.066 C 
HETATM    9  C   UNK N   1      22.062  17.773   5.240  0.00  0.00    -0.019 A 
HETATM   10  C   UNK N   1      23.352  17.145   5.048  0.00  0.00    -0.037 A 
HETATM   11  C   UNK N   1      22.596  20.794   2.848  0.00  0.00     0.187 C 
HETATM   12  C   UNK N   1      24.730  20.138   2.890  0.00  0.00     0.264 C 
HETATM   13  C   UNK N   1      21.184  17.282   6.228  0.00  0.00     0.050 A 
HETATM   14  C   UNK N   1      23.665  16.004   5.825  0.00  0.00     0.048 A 
HETATM   15  C   UNK N   1      21.578  16.185   6.971  0.00  0.00     0.105 A 
HETATM   16  C   UNK N   1      22.745  15.569   6.775  0.00  0.00     0.105 A 
HETATM   17  C   UNK N   1      21.693  14.501   8.405  0.00  0.00     0.352 A 
ENDROOT
BRANCH   7  18
HETATM   18  O   UNK N   1      20.379  18.550   3.788  0.00  0.00    -0.348 OA
BRANCH  18  19
HETATM   19  C   UNK N   1      20.622  17.516   2.873  0.00  0.00     0.292 C 
HETATM   20  O   UNK N   1      20.233  16.281   3.450  0.00  0.00    -0.348 OA
HETATM   21  C   UNK N   1      20.540  15.174   2.612  0.00  0.00     0.180 C 
HETATM   22  C   UNK N   1      21.119  15.539   1.219  0.00  0.00     0.187 C 
HETATM   23  C   UNK N   1      21.521  14.204   3.284  0.00  0.00     0.205 C 
HETATM   24  O   UNK N   1      21.320  14.386   0.413  0.00  0.00    -0.351 OA
HETATM   25  C   UNK N   1      20.167  16.559   0.568  0.00  0.00     0.183 C 
HETATM   26  C   UNK N   1      21.718  13.267   1.205  0.00  0.00     0.256 C 
HETATM   27  O   UNK N   1      22.439  13.654   2.357  0.00  0.00    -0.359 OA
HETATM   28  C   UNK N   1      22.572  12.331   0.376  0.00  0.00     0.070 C 
HETATM   29  C   UNK N   1      19.884  17.730   1.539  0.00  0.00     0.204 C 
BRANCH  25  30
HETATM   30  O   UNK N   1      18.957  15.950   0.228  0.00  0.00    -0.390 OA
HETATM   31  H   UNK N   1      18.206  15.444   0.575  0.00  0.00     0.210 HD
ENDBRANCH  25  30
BRANCH  29  32
HETATM   32  O   UNK N   1      20.263  18.938   0.955  0.00  0.00    -0.388 OA
HETATM   33  H   UNK N   1      20.945  19.308   0.373  0.00  0.00     0.210 HD
ENDBRANCH  29  32
ENDBRANCH  18  19
ENDBRANCH   7  18
BRANCH   8  34
HETATM   34  C   UNK N   1      25.843  17.463   4.299  0.00  0.00    -0.043 A 
HETATM   35  C   UNK N   1      26.571  16.694   3.391  0.00  0.00     0.047 A 
HETATM   36  C   UNK N   1      27.950  16.535   3.498  0.00  0.00     0.104 A 
HETATM   37  C   UNK N   1      28.624  17.126   4.594  0.00  0.00     0.132 A 
HETATM   38  C   UNK N   1      27.901  17.859   5.546  0.00  0.00     0.104 A 
HETATM   39  C   UNK N   1      26.519  18.035   5.380  0.00  0.00     0.047 A 
BRANCH  36  40
HETATM   40  O   UNK N   1      28.575  15.839   2.512  0.00  0.00    -0.353 OA
HETATM   41  C   UNK N   1      28.056  14.741   1.866  0.00  0.00     0.210 C 
ENDBRANCH  36  40
BRANCH  37  42
HETATM   42  O   UNK N   1      29.955  16.993   4.743  0.00  0.00    -0.356 OA
HETATM   43  H   UNK N   1      30.515  17.744   4.718  0.00  0.00     0.218 HD
ENDBRANCH  37  42
BRANCH  38  44
HETATM   44  O   UNK N   1      28.549  18.402   6.605  0.00  0.00    -0.353 OA
HETATM   45  C   UNK N   1      28.043  19.449   7.343  0.00  0.00     0.210 C 
ENDBRANCH  38  44
ENDBRANCH   8  34
TORSDOF 8
ENDMDL
MODEL 2
REMARK VINA RESULT:      -8.8      0.618      2.045
REMARK  8 active torsions:
REMARK  status: ('A' for Active; 'I' for Inactive)
REMARK    1  A    between atoms: C_16  and  O_1 
REMARK    2  A    between atoms: C_22  and  O_1 
REMARK    3  A    between atoms: C_24  and  O_6 
REMARK    4  A    between atoms: C_26  and  O_8 
REMARK    5  A    between atoms: O_11  and  C_36 
REMARK    6  A    between atoms: O_12  and  C_37 
REMARK    7  A    between atoms: O_13  and  C_39 
REMARK    8  A    between atoms: C_17  and  C_23 
ROOT
HETATM    1  O   UNK N   1      23.255  20.933   2.447  0.00  0.00    -0.321 OA
HETATM    2  O   UNK N   1      25.438  20.586   2.703  0.00  0.00    -0.265 OA
HETATM    3  O   UNK N   1      21.619  14.961   8.024  0.00  0.00    -0.323 OA
HETATM    4  O   UNK N   1      23.661  14.270   7.523  0.00  0.00    -0.323 OA
HETATM    5  C   UNK N   1      22.419  19.122   3.519  0.00  0.00     0.058 C 
HETATM    6  C   UNK N   1      23.879  19.207   3.931  0.00  0.00     0.107 C 
HETATM    7  C   UNK N   1      21.496  18.510   4.592  0.00  0.00     0.165 C 
HETATM    8  C   UNK N   1      24.397  17.745   3.969  0.00  0.00     0.066 C 
HETATM    9  C   UNK N   1      22.206  17.398   5.334  0.00  0.00    -0.019 A 
HETATM   10  C   UNK N   1      23.562  16.990   5.032  0.00  0.00    -0.037 A 
HETATM   11  C   UNK N   1      22.083  20.533   3.035  0.00  0.00     0.187 C 
HETATM   12  C   UNK N   1      24.291  20.226   2.909  0.00  0.00     0.264 C 
HETATM   13  C   UNK N   1      21.489  16.744   6.358  0.00  0.00     0.050 A 
HETATM   14  C   UNK N   1      24.106  15.892   5.740  0.00  0.00     0.048 A 
HETATM   15  C   UNK N   1      22.104  15.703   7.028  0.00  0.00     0.105 A 
HETATM   16  C   UNK N   1      23.336  15.288   6.731  0.00  0.00     0.105 A 
HETATM   17  C   UNK N   1      22.586  14.019   8.383  0.00  0.00     0.352 A 
ENDROOT
BRANCH   7  18
HETATM   18  O   UNK N   1      20.322  17.937   4.030  0.00  0.00    -0.348 OA
BRANCH  18  19
HETATM   19  C   UNK N   1      20.656  17.012   3.031  0.00  0.00     0.292 C 
HETATM   20  O   UNK N   1      20.501  15.698   3.541  0.00  0.00    -0.348 OA
HETATM   21  C   UNK N   1      20.917  14.706   2.611  0.00  0.00     0.180 C 
HETATM   22  C   UNK N   1      21.337  15.241   1.216  0.00  0.00     0.187 C 
HETATM   23  C   UNK N   1      22.078  13.863   3.156  0.00  0.00     0.205 C 
HETATM   24  O   UNK N   1      21.658  14.186   0.320  0.00  0.00    -0.351 OA
HETATM   25  C   UNK N   1      20.198  16.137   0.695  0.00  0.00     0.183 C 
HETATM   26  C   UNK N   1      22.275  13.096   1.008  0.00  0.00     0.256 C 
HETATM   27  O   UNK N   1      23.004  13.521   2.141  0.00  0.00    -0.359 OA
HETATM   28  C   UNK N   1      23.203  12.358   0.067  0.00  0.00     0.070 C 
HETATM   29  C   UNK N   1      19.806  17.187   1.761  0.00  0.00     0.204 C 
BRANCH  25  30
HETATM   30  O   UNK N   1      19.076  15.367   0.383  0.00  0.00    -0.390 OA
HETATM   31  H   UNK N   1      18.142  15.407   0.123  0.00  0.00     0.210 HD
ENDBRANCH  25  30
BRANCH  29  32
HETATM   32  O   UNK N   1      19.955  18.473   1.242  0.00  0.00    -0.388 OA
HETATM   33  H   UNK N   1      20.164  18.927   0.411  0.00  0.00     0.210 HD
ENDBRANCH  29  32
ENDBRANCH  18  19
ENDBRANCH   7  18
BRANCH   8  34
HETATM   34  C   UNK N   1      25.911  17.725   4.133  0.00  0.00    -0.043 A 
HETATM   35  C   UNK N   1      26.478  18.417   5.203  0.00  0.00     0.047 A 
HETATM   36  C   UNK N   1      27.835  18.332   5.499  0.00  0.00     0.104 A 
HETATM   37  C   UNK N   1      28.674  17.565   4.654  0.00  0.00     0.132 A 
HETATM   38  C   UNK N   1      28.130  16.904   3.542  0.00  0.00     0.104 A 
HETATM   39  C   UNK N   1      26.750  16.977   3.302  0.00  0.00     0.047 A 
BRANCH  36  40
HETATM   40  O   UNK N   1      28.271  18.974   6.614  0.00  0.00    -0.353 OA
HETATM   41  C   UNK N   1      28.282  18.440   7.883  0.00  0.00     0.210 C 
ENDBRANCH  36  40
BRANCH  37  42
HETATM   42  O   UNK N   1      29.994  17.460   4.896  0.00  0.00    -0.356 OA
HETATM   43  H   UNK N   1      30.549  16.983   4.312  0.00  0.00     0.218 HD
ENDBRANCH  37  42
BRANCH  38  44
HETATM   44  O   UNK N   1      28.942  16.192   2.726  0.00  0.00    -0.353 OA
HETATM   45  C   UNK N   1      29.033  14.817   2.764  0.00  0.00     0.210 C 
ENDBRANCH  38  44
ENDBRANCH   8  34
TORSDOF 8
ENDMDL
MODEL 3
REMARK VINA RESULT:      -8.1      2.829      9.186
REMARK  8 active torsions:
REMARK  status: ('A' for Active; 'I' for Inactive)
REMARK    1  A    between atoms: C_16  and  O_1 
REMARK    2  A    between atoms: C_22  and  O_1 
REMARK    3  A    between atoms: C_24  and  O_6 
REMARK    4  A    between atoms: C_26  and  O_8 
REMARK    5  A    between atoms: O_11  and  C_36 
REMARK    6  A    between atoms: O_12  and  C_37 
REMARK    7  A    between atoms: O_13  and  C_39 
REMARK    8  A    between atoms: C_17  and  C_23 
ROOT
HETATM    1  O   UNK N   1      26.884  13.015   3.865  0.00  0.00    -0.321 OA
HETATM    2  O   UNK N   1      24.717  13.185   4.340  0.00  0.00    -0.265 OA
HETATM    3  O   UNK N   1      28.034  20.955   6.119  0.00  0.00    -0.323 OA
HETATM    4  O   UNK N   1      25.857  21.122   5.750  0.00  0.00    -0.323 OA
HETATM    5  C   UNK N   1      27.496  15.195   3.935  0.00  0.00     0.058 C 
HETATM    6  C   UNK N   1      26.130  15.129   4.598  0.00  0.00     0.107 C 
HETATM    7  C   UNK N   1      28.408  16.312   4.480  0.00  0.00     0.165 C 
HETATM    8  C   UNK N   1      25.365  16.393   4.124  0.00  0.00     0.066 C 
HETATM    9  C   UNK N   1      27.597  17.546   4.814  0.00  0.00    -0.019 A 
HETATM   10  C   UNK N   1      26.165  17.624   4.618  0.00  0.00    -0.037 A 
HETATM   11  C   UNK N   1      28.024  13.762   4.019  0.00  0.00     0.187 C 
HETATM   12  C   UNK N   1      25.796  13.728   4.174  0.00  0.00     0.264 C 
HETATM   13  C   UNK N   1      28.294  18.656   5.335  0.00  0.00     0.050 A 
HETATM   14  C   UNK N   1      25.515  18.849   4.899  0.00  0.00     0.048 A 
HETATM   15  C   UNK N   1      27.581  19.806   5.618  0.00  0.00     0.105 A 
HETATM   16  C   UNK N   1      26.269  19.907   5.401  0.00  0.00     0.105 A 
HETATM   17  C   UNK N   1      26.959  21.842   6.226  0.00  0.00     0.352 A 
ENDROOT
BRANCH   7  18
HETATM   18  O   UNK N   1      29.390  16.717   3.533  0.00  0.00    -0.348 OA
BRANCH  18  19
HETATM   19  C   UNK N   1      30.614  16.963   4.170  0.00  0.00     0.292 C 
HETATM   20  O   UNK N   1      30.658  16.245   5.391  0.00  0.00    -0.348 OA
HETATM   21  C   UNK N   1      31.835  16.524   6.138  0.00  0.00     0.180 C 
HETATM   22  C   UNK N   1      32.865  17.445   5.432  0.00  0.00     0.187 C 
HETATM   23  C   UNK N   1      31.511  17.147   7.503  0.00  0.00     0.205 C 
HETATM   24  O   UNK N   1      34.046  17.608   6.206  0.00  0.00    -0.351 OA
HETATM   25  C   UNK N   1      33.145  16.854   4.039  0.00  0.00     0.183 C 
HETATM   26  C   UNK N   1      33.749  17.619   7.603  0.00  0.00     0.256 C 
HETATM   27  O   UNK N   1      32.460  18.131   7.873  0.00  0.00    -0.359 OA
HETATM   28  C   UNK N   1      34.778  18.451   8.338  0.00  0.00     0.070 C 
HETATM   29  C   UNK N   1      31.818  16.581   3.291  0.00  0.00     0.204 C 
BRANCH  25  30
HETATM   30  O   UNK N   1      33.857  15.658   4.150  0.00  0.00    -0.390 OA
HETATM   31  H   UNK N   1      34.221  15.015   4.777  0.00  0.00     0.210 HD
ENDBRANCH  25  30
BRANCH  29  32
HETATM   32  O   UNK N   1      31.793  17.287   2.088  0.00  0.00    -0.388 OA
HETATM   33  H   UNK N   1      31.268  17.367   1.277  0.00  0.00     0.210 HD
ENDBRANCH  29  32
ENDBRANCH  18  19
ENDBRANCH   7  18
BRANCH   8  34
HETATM   34  C   UNK N   1      23.901  16.308   4.532  0.00  0.00    -0.043 A 
HETATM   35  C   UNK N   1      22.923  16.384   3.539  0.00  0.00     0.047 A 
HETATM   36  C   UNK N   1      21.575  16.176   3.815  0.00  0.00     0.104 A 
HETATM   37  C   UNK N   1      21.178  15.937   5.154  0.00  0.00     0.132 A 
HETATM   38  C   UNK N   1      22.142  15.908   6.173  0.00  0.00     0.104 A 
HETATM   39  C   UNK N   1      23.496  16.078   5.850  0.00  0.00     0.047 A 
BRANCH  36  40
HETATM   40  O   UNK N   1      20.715  16.186   2.763  0.00  0.00    -0.353 OA
HETATM   41  C   UNK N   1      20.209  17.316   2.164  0.00  0.00     0.210 C 
ENDBRANCH  36  40
BRANCH  37  42
HETATM   42  O   UNK N   1      19.886  15.738   5.469  0.00  0.00    -0.356 OA
HETATM   43  H   UNK N   1      19.633  15.020   6.016  0.00  0.00     0.218 HD
ENDBRANCH  37  42
BRANCH  38  44
HETATM   44  O   UNK N   1      21.752  15.701   7.454  0.00  0.00    -0.353 OA
HETATM   45  C   UNK N   1      21.894  14.492   8.099  0.00  0.00     0.210 C 
ENDBRANCH  38  44
ENDBRANCH   8  34
TORSDOF 8
ENDMDL
MODEL 4
REMARK VINA RESULT:      -8.0      1.318      1.487
REMARK  8 active torsions:
REMARK  status: ('A' for Active; 'I' for Inactive)
REMARK    1  A    between atoms: C_16  and  O_1 
REMARK    2  A    between atoms: C_22  and  O_1 
REMARK    3  A    between atoms: C_24  and  O_6 
REMARK    4  A    between atoms: C_26  and  O_8 
REMARK    5  A    between atoms: O_11  and  C_36 
REMARK    6  A    between atoms: O_12  and  C_37 
REMARK    7  A    between atoms: O_13  and  C_39 
REMARK    8  A    between atoms: C_17  and  C_23 
ROOT
HETATM    1  O   UNK N   1      24.200  19.667   3.237  0.00  0.00    -0.321 OA
HETATM    2  O   UNK N   1      26.261  18.987   3.730  0.00  0.00    -0.265 OA
HETATM    3  O   UNK N   1      21.074  14.398   8.885  0.00  0.00    -0.323 OA
HETATM    4  O   UNK N   1      23.010  13.355   8.627  0.00  0.00    -0.323 OA
HETATM    5  C   UNK N   1      22.977  18.087   4.300  0.00  0.00     0.058 C 
HETATM    6  C   UNK N   1      24.385  17.959   4.855  0.00  0.00     0.107 C 
HETATM    7  C   UNK N   1      21.868  17.701   5.301  0.00  0.00     0.165 C 
HETATM    8  C   UNK N   1      24.645  16.437   5.012  0.00  0.00     0.066 C 
HETATM    9  C   UNK N   1      22.309  16.536   6.161  0.00  0.00    -0.019 A 
HETATM   10  C   UNK N   1      23.600  15.895   6.018  0.00  0.00    -0.037 A 
HETATM   11  C   UNK N   1      22.928  19.501   3.720  0.00  0.00     0.187 C 
HETATM   12  C   UNK N   1      25.056  18.832   3.835  0.00  0.00     0.264 C 
HETATM   13  C   UNK N   1      21.401  16.072   7.135  0.00  0.00     0.050 A 
HETATM   14  C   UNK N   1      23.884  14.770   6.827  0.00  0.00     0.048 A 
HETATM   15  C   UNK N   1      21.768  14.988   7.912  0.00  0.00     0.105 A 
HETATM   16  C   UNK N   1      22.935  14.361   7.761  0.00  0.00     0.105 A 
HETATM   17  C   UNK N   1      21.832  13.335   9.384  0.00  0.00     0.352 A 
ENDROOT
BRANCH   7  18
HETATM   18  O   UNK N   1      20.672  17.292   4.648  0.00  0.00    -0.348 OA
BRANCH  18  19
HETATM   19  C   UNK N   1      20.969  16.542   3.501  0.00  0.00     0.292 C 
HETATM   20  O   UNK N   1      20.870  15.162   3.808  0.00  0.00    -0.348 OA
HETATM   21  C   UNK N   1      21.253  14.338   2.714  0.00  0.00     0.180 C 
HETATM   22  C   UNK N   1      21.583  15.094   1.400  0.00  0.00     0.187 C 
HETATM   23  C   UNK N   1      22.460  13.455   3.060  0.00  0.00     0.205 C 
HETATM   24  O   UNK N   1      21.875  14.199   0.335  0.00  0.00    -0.351 OA
HETATM   25  C   UNK N   1      20.399  16.025   1.085  0.00  0.00     0.183 C 
HETATM   26  C   UNK N   1      22.552  13.035   0.811  0.00  0.00     0.256 C 
HETATM   27  O   UNK N   1      23.335  13.301   1.957  0.00  0.00    -0.359 OA
HETATM   28  C   UNK N   1      23.441  12.478  -0.280  0.00  0.00     0.070 C 
HETATM   29  C   UNK N   1      20.046  16.887   2.320  0.00  0.00     0.204 C 
BRANCH  25  30
HETATM   30  O   UNK N   1      19.277  15.281   0.715  0.00  0.00    -0.390 OA
HETATM   31  H   UNK N   1      18.591  14.677   1.041  0.00  0.00     0.210 HD
ENDBRANCH  25  30
BRANCH  29  32
HETATM   32  O   UNK N   1      20.139  18.241   2.001  0.00  0.00    -0.388 OA
HETATM   33  H   UNK N   1      19.771  18.894   1.385  0.00  0.00     0.210 HD
ENDBRANCH  29  32
ENDBRANCH  18  19
ENDBRANCH   7  18
BRANCH   8  34
HETATM   34  C   UNK N   1      26.112  16.181   5.330  0.00  0.00    -0.043 A 
HETATM   35  C   UNK N   1      26.866  15.412   4.444  0.00  0.00     0.047 A 
HETATM   36  C   UNK N   1      28.240  15.250   4.593  0.00  0.00     0.104 A 
HETATM   37  C   UNK N   1      28.882  15.838   5.711  0.00  0.00     0.132 A 
HETATM   38  C   UNK N   1      28.131  16.572   6.641  0.00  0.00     0.104 A 
HETATM   39  C   UNK N   1      26.755  16.751   6.432  0.00  0.00     0.047 A 
BRANCH  36  40
HETATM   40  O   UNK N   1      28.894  14.554   3.627  0.00  0.00    -0.353 OA
HETATM   41  C   UNK N   1      28.670  14.674   2.275  0.00  0.00     0.210 C 
ENDBRANCH  36  40
BRANCH  37  42
HETATM   42  O   UNK N   1      30.207  15.702   5.901  0.00  0.00    -0.356 OA
HETATM   43  H   UNK N   1      30.755  15.368   5.218  0.00  0.00     0.218 HD
ENDBRANCH  37  42
BRANCH  38  44
HETATM   44  O   UNK N   1      28.747  17.112   7.720  0.00  0.00    -0.353 OA
HETATM   45  C   UNK N   1      28.090  17.410   8.894  0.00  0.00     0.210 C 
ENDBRANCH  38  44
ENDBRANCH   8  34
TORSDOF 8
ENDMDL
MODEL 5
REMARK VINA RESULT:      -7.7      2.368      8.024
REMARK  8 active torsions:
REMARK  status: ('A' for Active; 'I' for Inactive)
REMARK    1  A    between atoms: C_16  and  O_1 
REMARK    2  A    between atoms: C_22  and  O_1 
REMARK    3  A    between atoms: C_24  and  O_6 
REMARK    4  A    between atoms: C_26  and  O_8 
REMARK    5  A    between atoms: O_11  and  C_36 
REMARK    6  A    between atoms: O_12  and  C_37 
REMARK    7  A    between atoms: O_13  and  C_39 
REMARK    8  A    between atoms: C_17  and  C_23 
ROOT
HETATM    1  O   UNK N   1      26.674  20.555   3.181  0.00  0.00    -0.321 OA
HETATM    2  O   UNK N   1      24.702  20.323   2.175  0.00  0.00    -0.265 OA
HETATM    3  O   UNK N   1      25.398  13.473   7.384  0.00  0.00    -0.323 OA
HETATM    4  O   UNK N   1      23.268  13.866   6.922  0.00  0.00    -0.323 OA
HETATM    5  C   UNK N   1      26.498  18.984   4.803  0.00  0.00     0.058 C 
HETATM    6  C   UNK N   1      25.381  18.685   3.818  0.00  0.00     0.107 C 
HETATM    7  C   UNK N   1      27.051  17.739   5.525  0.00  0.00     0.165 C 
HETATM    8  C   UNK N   1      24.155  18.273   4.676  0.00  0.00     0.066 C 
HETATM    9  C   UNK N   1      25.938  16.756   5.820  0.00  0.00    -0.019 A 
HETATM   10  C   UNK N   1      24.556  17.001   5.465  0.00  0.00    -0.037 A 
HETATM   11  C   UNK N   1      27.494  19.820   3.998  0.00  0.00     0.187 C 
HETATM   12  C   UNK N   1      25.480  19.968   3.044  0.00  0.00     0.264 C 
HETATM   13  C   UNK N   1      26.291  15.557   6.473  0.00  0.00     0.050 A 
HETATM   14  C   UNK N   1      23.585  16.046   5.849  0.00  0.00     0.048 A 
HETATM   15  C   UNK N   1      25.288  14.657   6.782  0.00  0.00     0.105 A 
HETATM   16  C   UNK N   1      24.005  14.890   6.501  0.00  0.00     0.105 A 
HETATM   17  C   UNK N   1      24.121  12.917   7.498  0.00  0.00     0.352 A 
ENDROOT
BRANCH   7  18
HETATM   18  O   UNK N   1      27.648  18.061   6.775  0.00  0.00    -0.348 OA
BRANCH  18  19
HETATM   19  C   UNK N   1      28.887  17.419   6.909  0.00  0.00     0.292 C 
HETATM   20  O   UNK N   1      29.705  17.747   5.800  0.00  0.00    -0.348 OA
HETATM   21  C   UNK N   1      30.945  17.052   5.820  0.00  0.00     0.180 C 
HETATM   22  C   UNK N   1      31.197  16.184   7.082  0.00  0.00     0.187 C 
HETATM   23  C   UNK N   1      31.113  16.147   4.592  0.00  0.00     0.205 C 
HETATM   24  O   UNK N   1      32.488  15.590   7.065  0.00  0.00    -0.351 OA
HETATM   25  C   UNK N   1      30.969  17.074   8.316  0.00  0.00     0.183 C 
HETATM   26  C   UNK N   1      32.881  15.248   5.736  0.00  0.00     0.256 C 
HETATM   27  O   UNK N   1      31.774  14.937   4.913  0.00  0.00    -0.359 OA
HETATM   28  C   UNK N   1      33.823  14.064   5.769  0.00  0.00     0.070 C 
HETATM   29  C   UNK N   1      29.602  17.793   8.220  0.00  0.00     0.204 C 
BRANCH  25  30
HETATM   30  O   UNK N   1      31.979  18.034   8.420  0.00  0.00    -0.390 OA
HETATM   31  H   UNK N   1      32.474  18.709   7.932  0.00  0.00     0.210 HD
ENDBRANCH  25  30
BRANCH  29  32
HETATM   32  O   UNK N   1      28.812  17.468   9.322  0.00  0.00    -0.388 OA
HETATM   33  H   UNK N   1      28.442  16.695   9.778  0.00  0.00     0.210 HD
ENDBRANCH  29  32
ENDBRANCH  18  19
ENDBRANCH   7  18
BRANCH   8  34
HETATM   34  C   UNK N   1      22.907  18.186   3.808  0.00  0.00    -0.043 A 
HETATM   35  C   UNK N   1      22.487  16.932   3.363  0.00  0.00     0.047 A 
HETATM   36  C   UNK N   1      21.284  16.756   2.685  0.00  0.00     0.104 A 
HETATM   37  C   UNK N   1      20.492  17.893   2.389  0.00  0.00     0.132 A 
HETATM   38  C   UNK N   1      20.925  19.168   2.782  0.00  0.00     0.104 A 
HETATM   39  C   UNK N   1      22.121  19.300   3.503  0.00  0.00     0.047 A 
BRANCH  36  40
HETATM   40  O   UNK N   1      20.925  15.484   2.373  0.00  0.00    -0.353 OA
HETATM   41  C   UNK N   1      21.264  14.826   1.213  0.00  0.00     0.210 C 
ENDBRANCH  36  40
BRANCH  37  42
HETATM   42  O   UNK N   1      19.326  17.773   1.729  0.00  0.00    -0.356 OA
HETATM   43  H   UNK N   1      18.529  18.088   2.107  0.00  0.00     0.218 HD
ENDBRANCH  37  42
BRANCH  38  44
HETATM   44  O   UNK N   1      20.174  20.252   2.475  0.00  0.00    -0.353 OA
HETATM   45  C   UNK N   1      20.485  21.120   1.450  0.00  0.00     0.210 C 
ENDBRANCH  38  44
ENDBRANCH   8  34
TORSDOF 8
ENDMDL
MODEL 6
REMARK VINA RESULT:      -7.7      2.685      8.823
REMARK  8 active torsions:
REMARK  status: ('A' for Active; 'I' for Inactive)
REMARK    1  A    between atoms: C_16  and  O_1 
REMARK    2  A    between atoms: C_22  and  O_1 
REMARK    3  A    between atoms: C_24  and  O_6 
REMARK    4  A    between atoms: C_26  and  O_8 
REMARK    5  A    between atoms: O_11  and  C_36 
REMARK    6  A    between atoms: O_12  and  C_37 
REMARK    7  A    between atoms: O_13  and  C_39 
REMARK    8  A    between atoms: C_17  and  C_23 
ROOT
HETATM    1  O   UNK N   1      27.891  19.943   5.382  0.00  0.00    -0.321 OA
HETATM    2  O   UNK N   1      25.797  20.667   5.171  0.00  0.00    -0.265 OA
HETATM    3  O   UNK N   1      25.922  12.959   1.284  0.00  0.00    -0.323 OA
HETATM    4  O   UNK N   1      23.855  13.474   1.890  0.00  0.00    -0.323 OA
HETATM    5  C   UNK N   1      27.648  17.783   4.748  0.00  0.00     0.058 C 
HETATM    6  C   UNK N   1      26.378  18.488   4.303  0.00  0.00     0.107 C 
HETATM    7  C   UNK N   1      28.058  16.597   3.852  0.00  0.00     0.165 C 
HETATM    8  C   UNK N   1      25.219  17.494   4.580  0.00  0.00     0.066 C 
HETATM    9  C   UNK N   1      26.834  15.852   3.361  0.00  0.00    -0.019 A 
HETATM   10  C   UNK N   1      25.484  16.231   3.722  0.00  0.00    -0.037 A 
HETATM   11  C   UNK N   1      28.665  18.912   4.916  0.00  0.00     0.187 C 
HETATM   12  C   UNK N   1      26.605  19.759   5.069  0.00  0.00     0.264 C 
HETATM   13  C   UNK N   1      27.048  14.742   2.518  0.00  0.00     0.050 A 
HETATM   14  C   UNK N   1      24.416  15.425   3.264  0.00  0.00     0.048 A 
HETATM   15  C   UNK N   1      25.948  14.026   2.083  0.00  0.00     0.105 A 
HETATM   16  C   UNK N   1      24.703  14.337   2.444  0.00  0.00     0.105 A 
HETATM   17  C   UNK N   1      24.591  12.562   1.124  0.00  0.00     0.352 A 
ENDROOT
BRANCH   7  18
HETATM   18  O   UNK N   1      28.858  15.647   4.546  0.00  0.00    -0.348 OA
BRANCH  18  19
HETATM   19  C   UNK N   1      30.091  16.211   4.903  0.00  0.00     0.292 C 
HETATM   20  O   UNK N   1      30.630  15.497   6.002  0.00  0.00    -0.348 OA
HETATM   21  C   UNK N   1      31.838  16.075   6.481  0.00  0.00     0.180 C 
HETATM   22  C   UNK N   1      32.372  17.272   5.652  0.00  0.00     0.187 C 
HETATM   23  C   UNK N   1      31.711  16.537   7.939  0.00  0.00     0.205 C 
HETATM   24  O   UNK N   1      33.621  17.739   6.143  0.00  0.00    -0.351 OA
HETATM   25  C   UNK N   1      32.442  16.829   4.179  0.00  0.00     0.183 C 
HETATM   26  C   UNK N   1      33.693  17.621   7.564  0.00  0.00     0.256 C 
HETATM   27  O   UNK N   1      32.424  17.737   8.176  0.00  0.00    -0.359 OA
HETATM   28  C   UNK N   1      34.612  18.687   8.120  0.00  0.00     0.070 C 
HETATM   29  C   UNK N   1      31.093  16.215   3.735  0.00  0.00     0.204 C 
BRANCH  25  30
HETATM   30  O   UNK N   1      33.452  15.882   4.001  0.00  0.00    -0.390 OA
HETATM   31  H   UNK N   1      33.993  15.215   4.452  0.00  0.00     0.210 HD
ENDBRANCH  25  30
BRANCH  29  32
HETATM   32  O   UNK N   1      30.580  16.922   2.649  0.00  0.00    -0.388 OA
HETATM   33  H   UNK N   1      29.792  16.960   2.083  0.00  0.00     0.210 HD
ENDBRANCH  29  32
ENDBRANCH  18  19
ENDBRANCH   7  18
BRANCH   8  34
HETATM   34  C   UNK N   1      23.874  18.185   4.398  0.00  0.00    -0.043 A 
HETATM   35  C   UNK N   1      22.907  18.040   5.393  0.00  0.00     0.047 A 
HETATM   36  C   UNK N   1      21.710  18.750   5.366  0.00  0.00     0.104 A 
HETATM   37  C   UNK N   1      21.444  19.603   4.266  0.00  0.00     0.132 A 
HETATM   38  C   UNK N   1      22.383  19.721   3.231  0.00  0.00     0.104 A 
HETATM   39  C   UNK N   1      23.597  19.024   3.316  0.00  0.00     0.047 A 
BRANCH  36  40
HETATM   40  O   UNK N   1      20.874  18.602   6.427  0.00  0.00    -0.353 OA
HETATM   41  C   UNK N   1      20.659  17.426   7.108  0.00  0.00     0.210 C 
ENDBRANCH  36  40
BRANCH  37  42
HETATM   42  O   UNK N   1      20.297  20.303   4.193  0.00  0.00    -0.356 OA
HETATM   43  H   UNK N   1      20.312  21.226   4.032  0.00  0.00     0.218 HD
ENDBRANCH  37  42
BRANCH  38  44
HETATM   44  O   UNK N   1      22.111  20.521   2.172  0.00  0.00    -0.353 OA
HETATM   45  C   UNK N   1      21.111  20.254   1.263  0.00  0.00     0.210 C 
ENDBRANCH  38  44
ENDBRANCH   8  34
TORSDOF 8
ENDMDL
MODEL 7
REMARK VINA RESULT:      -7.6      9.928     14.137
REMARK  8 active torsions:
REMARK  status: ('A' for Active; 'I' for Inactive)
REMARK    1  A    between atoms: C_16  and  O_1 
REMARK    2  A    between atoms: C_22  and  O_1 
REMARK    3  A    between atoms: C_24  and  O_6 
REMARK    4  A    between atoms: C_26  and  O_8 
REMARK    5  A    between atoms: O_11  and  C_36 
REMARK    6  A    between atoms: O_12  and  C_37 
REMARK    7  A    between atoms: O_13  and  C_39 
REMARK    8  A    between atoms: C_17  and  C_23 
ROOT
HETATM    1  O   UNK N   1      36.220  16.030  11.587  0.00  0.00    -0.321 OA
HETATM    2  O   UNK N   1      36.502  15.014  13.547  0.00  0.00    -0.265 OA
HETATM    3  O   UNK N   1      31.707   9.579   8.856  0.00  0.00    -0.323 OA
HETATM    4  O   UNK N   1      32.752   8.477  10.467  0.00  0.00    -0.323 OA
HETATM    5  C   UNK N   1      35.372  14.328  10.357  0.00  0.00     0.058 C 
HETATM    6  C   UNK N   1      35.268  13.881  11.805  0.00  0.00     0.107 C 
HETATM    7  C   UNK N   1      34.270  13.759   9.440  0.00  0.00     0.165 C 
HETATM    8  C   UNK N   1      35.628  12.372  11.812  0.00  0.00     0.066 C 
HETATM    9  C   UNK N   1      33.928  12.339   9.838  0.00  0.00    -0.019 A 
HETATM   10  C   UNK N   1      34.582  11.647  10.929  0.00  0.00    -0.037 A 
HETATM   11  C   UNK N   1      35.488  15.851  10.442  0.00  0.00     0.187 C 
HETATM   12  C   UNK N   1      36.134  14.961  12.386  0.00  0.00     0.264 C 
HETATM   13  C   UNK N   1      32.925  11.684   9.094  0.00  0.00     0.050 A 
HETATM   14  C   UNK N   1      34.234  10.297  11.172  0.00  0.00     0.048 A 
HETATM   15  C   UNK N   1      32.616  10.376   9.418  0.00  0.00     0.105 A 
HETATM   16  C   UNK N   1      33.242   9.711  10.390  0.00  0.00     0.105 A 
HETATM   17  C   UNK N   1      31.751   8.339   9.498  0.00  0.00     0.352 A 
ENDROOT
BRANCH   7  18
HETATM   18  O   UNK N   1      34.675  13.711   8.077  0.00  0.00    -0.348 OA
BRANCH  18  19
HETATM   19  C   UNK N   1      33.979  14.667   7.324  0.00  0.00     0.292 C 
HETATM   20  O   UNK N   1      32.985  15.267   8.137  0.00  0.00    -0.348 OA
HETATM   21  C   UNK N   1      32.174  16.181   7.409  0.00  0.00     0.180 C 
HETATM   22  C   UNK N   1      32.603  16.421   5.937  0.00  0.00     0.187 C 
HETATM   23  C   UNK N   1      30.699  15.756   7.401  0.00  0.00     0.205 C 
HETATM   24  O   UNK N   1      31.797  17.406   5.306  0.00  0.00    -0.351 OA
HETATM   25  C   UNK N   1      34.098  16.789   5.939  0.00  0.00     0.183 C 
HETATM   26  C   UNK N   1      30.449  17.346   5.774  0.00  0.00     0.256 C 
HETATM   27  O   UNK N   1      30.074  16.040   6.163  0.00  0.00    -0.359 OA
HETATM   28  C   UNK N   1      29.509  17.831   4.690  0.00  0.00     0.070 C 
HETATM   29  C   UNK N   1      34.910  15.748   6.746  0.00  0.00     0.204 C 
BRANCH  25  30
HETATM   30  O   UNK N   1      34.289  18.051   6.504  0.00  0.00    -0.390 OA
HETATM   31  H   UNK N   1      34.846  18.566   7.108  0.00  0.00     0.210 HD
ENDBRANCH  25  30
BRANCH  29  32
HETATM   32  O   UNK N   1      35.889  15.173   5.938  0.00  0.00    -0.388 OA
HETATM   33  H   UNK N   1      36.032  14.403   5.365  0.00  0.00     0.210 HD
ENDBRANCH  29  32
ENDBRANCH  18  19
ENDBRANCH   7  18
BRANCH   8  34
HETATM   34  C   UNK N   1      35.793  11.874  13.241  0.00  0.00    -0.043 A 
HETATM   35  C   UNK N   1      36.803  10.952  13.517  0.00  0.00     0.047 A 
HETATM   36  C   UNK N   1      37.105  10.557  14.818  0.00  0.00     0.104 A 
HETATM   37  C   UNK N   1      36.325  11.063  15.886  0.00  0.00     0.132 A 
HETATM   38  C   UNK N   1      35.272  11.951  15.622  0.00  0.00     0.104 A 
HETATM   39  C   UNK N   1      35.027  12.361  14.303  0.00  0.00     0.047 A 
BRANCH  36  40
HETATM   40  O   UNK N   1      38.164   9.722  14.985  0.00  0.00    -0.353 OA
HETATM   41  C   UNK N   1      38.207   8.407  14.582  0.00  0.00     0.210 C 
ENDBRANCH  36  40
BRANCH  37  42
HETATM   42  O   UNK N   1      36.575  10.704  17.158  0.00  0.00    -0.356 OA
HETATM   43  H   UNK N   1      36.175   9.940  17.525  0.00  0.00     0.218 HD
ENDBRANCH  37  42
BRANCH  38  44
HETATM   44  O   UNK N   1      34.516  12.414  16.647  0.00  0.00    -0.353 OA
HETATM   45  C   UNK N   1      34.897  13.467  17.449  0.00  0.00     0.210 C 
ENDBRANCH  38  44
ENDBRANCH   8  34
TORSDOF 8
ENDMDL
MODEL 8
REMARK VINA RESULT:      -7.5      2.160      5.602
REMARK  8 active torsions:
REMARK  status: ('A' for Active; 'I' for Inactive)
REMARK    1  A    between atoms: C_16  and  O_1 
REMARK    2  A    between atoms: C_22  and  O_1 
REMARK    3  A    between atoms: C_24  and  O_6 
REMARK    4  A    between atoms: C_26  and  O_8 
REMARK    5  A    between atoms: O_11  and  C_36 
REMARK    6  A    between atoms: O_12  and  C_37 
REMARK    7  A    between atoms: O_13  and  C_39 
REMARK    8  A    between atoms: C_17  and  C_23 
ROOT
HETATM    1  O   UNK N   1      20.884  16.546   7.506  0.00  0.00    -0.321 OA
HETATM    2  O   UNK N   1      21.448  18.515   6.636  0.00  0.00    -0.265 OA
HETATM    3  O   UNK N   1      26.913  12.839   3.107  0.00  0.00    -0.323 OA
HETATM    4  O   UNK N   1      26.757  14.642   1.831  0.00  0.00    -0.323 OA
HETATM    5  C   UNK N   1      22.061  15.149   6.167  0.00  0.00     0.058 C 
HETATM    6  C   UNK N   1      22.636  16.534   5.925  0.00  0.00     0.107 C 
HETATM    7  C   UNK N   1      23.080  14.005   5.994  0.00  0.00     0.165 C 
HETATM    8  C   UNK N   1      22.918  16.618   4.401  0.00  0.00     0.066 C 
HETATM    9  C   UNK N   1      24.035  14.310   4.860  0.00  0.00    -0.019 A 
HETATM   10  C   UNK N   1      23.956  15.518   4.066  0.00  0.00    -0.037 A 
HETATM   11  C   UNK N   1      21.368  15.263   7.526  0.00  0.00     0.187 C 
HETATM   12  C   UNK N   1      21.554  17.300   6.629  0.00  0.00     0.264 C 
HETATM   13  C   UNK N   1      25.036  13.355   4.584  0.00  0.00     0.050 A 
HETATM   14  C   UNK N   1      24.856  15.671   2.985  0.00  0.00     0.048 A 
HETATM   15  C   UNK N   1      25.901  13.595   3.533  0.00  0.00     0.105 A 
HETATM   16  C   UNK N   1      25.812  14.683   2.765  0.00  0.00     0.105 A 
HETATM   17  C   UNK N   1      27.503  13.470   2.009  0.00  0.00     0.352 A 
ENDROOT
BRANCH   7  18
HETATM   18  O   UNK N   1      22.452  12.769   5.673  0.00  0.00    -0.348 OA
BRANCH  18  19
HETATM   19  C   UNK N   1      21.412  12.970   4.755  0.00  0.00     0.292 C 
HETATM   20  O   UNK N   1      21.842  12.567   3.466  0.00  0.00    -0.348 OA
HETATM   21  C   UNK N   1      20.868  12.834   2.465  0.00  0.00     0.180 C 
HETATM   22  C   UNK N   1      19.517  13.390   2.988  0.00  0.00     0.187 C 
HETATM   23  C   UNK N   1      21.393  13.808   1.402  0.00  0.00     0.205 C 
HETATM   24  O   UNK N   1      18.571  13.550   1.939  0.00  0.00    -0.351 OA
HETATM   25  C   UNK N   1      19.019  12.446   4.097  0.00  0.00     0.183 C 
HETATM   26  C   UNK N   1      19.211  13.941   0.724  0.00  0.00     0.256 C 
HETATM   27  O   UNK N   1      20.384  14.695   0.953  0.00  0.00    -0.359 OA
HETATM   28  C   UNK N   1      18.253  14.757  -0.118  0.00  0.00     0.070 C 
HETATM   29  C   UNK N   1      20.132  12.209   5.145  0.00  0.00     0.204 C 
BRANCH  25  30
HETATM   30  O   UNK N   1      18.635  11.217   3.557  0.00  0.00    -0.390 OA
HETATM   31  H   UNK N   1      17.880  10.702   3.233  0.00  0.00     0.210 HD
ENDBRANCH  25  30
BRANCH  29  32
HETATM   32  O   UNK N   1      19.691  12.601   6.408  0.00  0.00    -0.388 OA
HETATM   33  H   UNK N   1      19.829  13.300   7.067  0.00  0.00     0.210 HD
ENDBRANCH  29  32
ENDBRANCH  18  19
ENDBRANCH   7  18
BRANCH   8  34
HETATM   34  C   UNK N   1      23.269  18.046   4.006  0.00  0.00    -0.043 A 
HETATM   35  C   UNK N   1      24.552  18.520   4.277  0.00  0.00     0.047 A 
HETATM   36  C   UNK N   1      24.991  19.761   3.824  0.00  0.00     0.104 A 
HETATM   37  C   UNK N   1      24.087  20.590   3.115  0.00  0.00     0.132 A 
HETATM   38  C   UNK N   1      22.775  20.151   2.878  0.00  0.00     0.104 A 
HETATM   39  C   UNK N   1      22.384  18.876   3.311  0.00  0.00     0.047 A 
BRANCH  36  40
HETATM   40  O   UNK N   1      26.286  20.091   4.067  0.00  0.00    -0.353 OA
HETATM   41  C   UNK N   1      26.743  20.728   5.198  0.00  0.00     0.210 C 
ENDBRANCH  36  40
BRANCH  37  42
HETATM   42  O   UNK N   1      24.463  21.801   2.664  0.00  0.00    -0.356 OA
HETATM   43  H   UNK N   1      23.882  22.533   2.724  0.00  0.00     0.218 HD
ENDBRANCH  37  42
BRANCH  38  44
HETATM   44  O   UNK N   1      21.910  20.959   2.219  0.00  0.00    -0.353 OA
HETATM   45  C   UNK N   1      20.887  20.482   1.428  0.00  0.00     0.210 C 
ENDBRANCH  38  44
ENDBRANCH   8  34
TORSDOF 8
ENDMDL
MODEL 9
REMARK VINA RESULT:      -7.4      6.639     11.190
REMARK  8 active torsions:
REMARK  status: ('A' for Active; 'I' for Inactive)
REMARK    1  A    between atoms: C_16  and  O_1 
REMARK    2  A    between atoms: C_22  and  O_1 
REMARK    3  A    between atoms: C_24  and  O_6 
REMARK    4  A    between atoms: C_26  and  O_8 
REMARK    5  A    between atoms: O_11  and  C_36 
REMARK    6  A    between atoms: O_12  and  C_37 
REMARK    7  A    between atoms: O_13  and  C_39 
REMARK    8  A    between atoms: C_17  and  C_23 
ROOT
HETATM    1  O   UNK N   1      32.086  15.390   3.300  0.00  0.00    -0.321 OA
HETATM    2  O   UNK N   1      34.024  14.484   2.689  0.00  0.00    -0.265 OA
HETATM    3  O   UNK N   1      34.927  16.296  11.081  0.00  0.00    -0.323 OA
HETATM    4  O   UNK N   1      36.358  14.716  10.485  0.00  0.00    -0.323 OA
HETATM    5  C   UNK N   1      32.314  15.374   5.553  0.00  0.00     0.058 C 
HETATM    6  C   UNK N   1      33.705  15.125   4.997  0.00  0.00     0.107 C 
HETATM    7  C   UNK N   1      32.298  16.116   6.905  0.00  0.00     0.165 C 
HETATM    8  C   UNK N   1      34.351  14.062   5.925  0.00  0.00     0.066 C 
HETATM    9  C   UNK N   1      33.460  15.673   7.768  0.00  0.00    -0.019 A 
HETATM   10  C   UNK N   1      34.421  14.676   7.345  0.00  0.00    -0.037 A 
HETATM   11  C   UNK N   1      31.557  16.025   4.394  0.00  0.00     0.187 C 
HETATM   12  C   UNK N   1      33.285  14.869   3.579  0.00  0.00     0.264 C 
HETATM   13  C   UNK N   1      33.587  16.273   9.039  0.00  0.00     0.050 A 
HETATM   14  C   UNK N   1      35.429  14.285   8.258  0.00  0.00     0.048 A 
HETATM   15  C   UNK N   1      34.621  15.862   9.859  0.00  0.00     0.105 A 
HETATM   16  C   UNK N   1      35.487  14.913   9.500  0.00  0.00     0.105 A 
HETATM   17  C   UNK N   1      36.045  15.589  11.533  0.00  0.00     0.352 A 
ENDROOT
BRANCH   7  18
HETATM   18  O   UNK N   1      31.116  15.853   7.651  0.00  0.00    -0.348 OA
BRANCH  18  19
HETATM   19  C   UNK N   1      30.199  16.903   7.506  0.00  0.00     0.292 C 
HETATM   20  O   UNK N   1      29.098  16.457   6.732  0.00  0.00    -0.348 OA
HETATM   21  C   UNK N   1      28.171  17.501   6.462  0.00  0.00     0.180 C 
HETATM   22  C   UNK N   1      28.483  18.857   7.148  0.00  0.00     0.187 C 
HETATM   23  C   UNK N   1      28.028  17.763   4.957  0.00  0.00     0.205 C 
HETATM   24  O   UNK N   1      27.469  19.822   6.898  0.00  0.00    -0.351 OA
HETATM   25  C   UNK N   1      28.687  18.587   8.650  0.00  0.00     0.183 C 
HETATM   26  C   UNK N   1      26.922  19.665   5.588  0.00  0.00     0.256 C 
HETATM   27  O   UNK N   1      27.862  19.140   4.673  0.00  0.00    -0.359 OA
HETATM   28  C   UNK N   1      26.425  21.001   5.079  0.00  0.00     0.070 C 
HETATM   29  C   UNK N   1      29.707  17.443   8.860  0.00  0.00     0.204 C 
BRANCH  25  30
HETATM   30  O   UNK N   1      27.477  18.231   9.251  0.00  0.00    -0.390 OA
HETATM   31  H   UNK N   1      26.659  18.579   9.637  0.00  0.00     0.210 HD
ENDBRANCH  25  30
BRANCH  29  32
HETATM   32  O   UNK N   1      30.779  17.894   9.629  0.00  0.00    -0.388 OA
HETATM   33  H   UNK N   1      31.352  18.670   9.735  0.00  0.00     0.210 HD
ENDBRANCH  29  32
ENDBRANCH  18  19
ENDBRANCH   7  18
BRANCH   8  34
HETATM   34  C   UNK N   1      35.655  13.557   5.323  0.00  0.00    -0.043 A 
HETATM   35  C   UNK N   1      35.652  12.338   4.645  0.00  0.00     0.047 A 
HETATM   36  C   UNK N   1      36.767  11.877   3.951  0.00  0.00     0.104 A 
HETATM   37  C   UNK N   1      37.958  12.644   3.982  0.00  0.00     0.132 A 
HETATM   38  C   UNK N   1      37.995  13.847   4.702  0.00  0.00     0.104 A 
HETATM   39  C   UNK N   1      36.838  14.301   5.351  0.00  0.00     0.047 A 
BRANCH  36  40
HETATM   40  O   UNK N   1      36.632  10.720   3.253  0.00  0.00    -0.353 OA
HETATM   41  C   UNK N   1      35.724   9.726   3.534  0.00  0.00     0.210 C 
ENDBRANCH  36  40
BRANCH  37  42
HETATM   42  O   UNK N   1      39.063  12.235   3.333  0.00  0.00    -0.356 OA
HETATM   43  H   UNK N   1      39.883  12.168   3.782  0.00  0.00     0.218 HD
ENDBRANCH  37  42
BRANCH  38  44
HETATM   44  O   UNK N   1      39.144  14.563   4.746  0.00  0.00    -0.353 OA
HETATM   45  C   UNK N   1      39.968  14.600   5.850  0.00  0.00     0.210 C 
ENDBRANCH  38  44
ENDBRANCH   8  34
TORSDOF 8
ENDMDL
