MODEL 1
REMARK VINA RESULT:      -6.5      0.000      0.000
REMARK  3 active torsions:
REMARK  status: ('A' for Active; 'I' for Inactive)
REMARK    1  A    between atoms: S_2  and  N_12 
REMARK    2  A    between atoms: S_2  and  C_15 
REMARK    3  A    between atoms: C_16  and  C_20 
ROOT
HETATM    1  S   UNK N   1      33.993  17.099   7.925  0.00  0.00     0.262 S 
HETATM    2  O   UNK N   1      34.812  18.387   7.756  0.00  0.00    -0.200 OA
HETATM    3  O   UNK N   1      34.205  16.667   9.383  0.00  0.00    -0.200 OA
HETATM    4  N   UNK N   1      33.003  15.847   5.407  0.00  0.00    -0.372 N 
HETATM    5  N   UNK N   1      34.837  15.876   6.981  0.00  0.00    -0.299 N 
HETATM    6  C   UNK N   1      32.304  17.099   7.398  0.00  0.00     0.107 A 
HETATM    7  C   UNK N   1      31.986  16.435   6.215  0.00  0.00     0.053 A 
HETATM    8  C   UNK N   1      29.949  17.496   7.858  0.00  0.00     0.096 A 
HETATM    9  C   UNK N   1      29.609  16.797   6.653  0.00  0.00     0.073 A 
HETATM   10  C   UNK N   1      31.301  17.628   8.204  0.00  0.00     0.053 A 
HETATM   11  C   UNK N   1      34.425  16.094   5.596  0.00  0.00     0.255 C 
HETATM   12  C   UNK N   1      30.650  16.289   5.855  0.00  0.00     0.048 A 
HETATM   13  H   UNK N   1      32.729  15.241   4.682  0.00  0.00     0.161 HD
HETATM   14  H   UNK N   1      35.480  15.164   7.328  0.00  0.00     0.174 HD
ENDROOT
BRANCH   8  15
HETATM   15  S   UNK N   1      28.784  18.217   9.047  0.00  0.00     0.257 S 
HETATM   16  O   UNK N   1      29.475  18.894  10.239  0.00  0.00    -0.201 OA
HETATM   17  O   UNK N   1      28.079  17.060   9.773  0.00  0.00    -0.201 OA
BRANCH  15  18
HETATM   18  N   UNK N   1      27.419  19.251   8.619  0.00  0.00    -0.324 N 
HETATM   19  H   UNK N   1      27.041  19.997   9.203  0.00  0.00     0.169 HD
HETATM   20  H   UNK N   1      26.972  19.089   7.717  0.00  0.00     0.169 HD
ENDBRANCH  15  18
ENDBRANCH   8  15
BRANCH   9  21
HETATM   21  C   UNK N   1      28.211  16.505   6.155  0.00  0.00     0.419 C 
HETATM   22  F   UNK N   1      27.390  15.914   7.080  0.00  0.00    -0.166 F 
HETATM   23  F   UNK N   1      27.610  17.682   5.750  0.00  0.00    -0.166 F 
HETATM   24  F   UNK N   1      28.304  15.659   5.062  0.00  0.00    -0.166 F 
ENDBRANCH   9  21
TORSDOF 3
ENDMDL
MODEL 2
REMARK VINA RESULT:      -6.3      9.179     10.245
REMARK  3 active torsions:
REMARK  status: ('A' for Active; 'I' for Inactive)
REMARK    1  A    between atoms: S_2  and  N_12 
REMARK    2  A    between atoms: S_2  and  C_15 
REMARK    3  A    between atoms: C_16  and  C_20 
ROOT
HETATM    1  S   UNK N   1      23.935  12.884   8.737  0.00  0.00     0.262 S 
HETATM    2  O   UNK N   1      24.110  11.688   7.789  0.00  0.00    -0.200 OA
HETATM    3  O   UNK N   1      25.265  13.649   8.682  0.00  0.00    -0.200 OA
HETATM    4  N   UNK N   1      21.556  12.785  10.531  0.00  0.00    -0.372 N 
HETATM    5  N   UNK N   1      23.894  12.198  10.359  0.00  0.00    -0.299 N 
HETATM    6  C   UNK N   1      22.497  13.899   8.558  0.00  0.00     0.107 A 
HETATM    7  C   UNK N   1      21.480  13.768   9.502  0.00  0.00     0.053 A 
HETATM    8  C   UNK N   1      21.364  15.794   7.538  0.00  0.00     0.096 A 
HETATM    9  C   UNK N   1      20.322  15.681   8.516  0.00  0.00     0.073 A 
HETATM   10  C   UNK N   1      22.436  14.893   7.587  0.00  0.00     0.053 A 
HETATM   11  C   UNK N   1      22.531  11.705  10.543  0.00  0.00     0.255 C 
HETATM   12  C   UNK N   1      20.408  14.655   9.475  0.00  0.00     0.048 A 
HETATM   13  H   UNK N   1      20.914  12.839  11.275  0.00  0.00     0.161 HD
HETATM   14  H   UNK N   1      24.662  12.154  11.029  0.00  0.00     0.174 HD
ENDROOT
BRANCH   8  15
HETATM   15  S   UNK N   1      21.475  17.040   6.225  0.00  0.00     0.257 S 
HETATM   16  O   UNK N   1      22.884  17.169   5.629  0.00  0.00    -0.201 OA
HETATM   17  O   UNK N   1      21.339  18.424   6.880  0.00  0.00    -0.201 OA
BRANCH  15  18
HETATM   18  N   UNK N   1      20.354  17.178   4.869  0.00  0.00    -0.324 N 
HETATM   19  H   UNK N   1      20.362  16.587   4.037  0.00  0.00     0.169 HD
HETATM   20  H   UNK N   1      19.642  17.906   4.921  0.00  0.00     0.169 HD
ENDBRANCH  15  18
ENDBRANCH   8  15
BRANCH   9  21
HETATM   21  C   UNK N   1      19.127  16.598   8.656  0.00  0.00     0.419 C 
HETATM   22  F   UNK N   1      19.437  17.886   9.010  0.00  0.00    -0.166 F 
HETATM   23  F   UNK N   1      18.439  16.645   7.458  0.00  0.00    -0.166 F 
HETATM   24  F   UNK N   1      18.288  16.076   9.627  0.00  0.00    -0.166 F 
ENDBRANCH   9  21
TORSDOF 3
ENDMDL
MODEL 3
REMARK VINA RESULT:      -6.2      7.065      8.772
REMARK  3 active torsions:
REMARK  status: ('A' for Active; 'I' for Inactive)
REMARK    1  A    between atoms: S_2  and  N_12 
REMARK    2  A    between atoms: S_2  and  C_15 
REMARK    3  A    between atoms: C_16  and  C_20 
ROOT
HETATM    1  S   UNK N   1      26.186  19.042   4.983  0.00  0.00     0.262 S 
HETATM    2  O   UNK N   1      27.340  19.316   4.008  0.00  0.00    -0.200 OA
HETATM    3  O   UNK N   1      26.093  20.291   5.871  0.00  0.00    -0.200 OA
HETATM    4  N   UNK N   1      25.206  16.228   5.080  0.00  0.00    -0.372 N 
HETATM    5  N   UNK N   1      26.772  17.782   6.065  0.00  0.00    -0.299 N 
HETATM    6  C   UNK N   1      24.638  18.493   4.326  0.00  0.00     0.107 A 
HETATM    7  C   UNK N   1      24.297  17.151   4.484  0.00  0.00     0.053 A 
HETATM    8  C   UNK N   1      22.443  18.986   3.402  0.00  0.00     0.096 A 
HETATM    9  C   UNK N   1      22.075  17.612   3.579  0.00  0.00     0.073 A 
HETATM   10  C   UNK N   1      23.727  19.395   3.786  0.00  0.00     0.053 A 
HETATM   11  C   UNK N   1      26.607  16.528   5.335  0.00  0.00     0.255 C 
HETATM   12  C   UNK N   1      23.026  16.724   4.113  0.00  0.00     0.048 A 
HETATM   13  H   UNK N   1      24.867  15.340   5.334  0.00  0.00     0.161 HD
HETATM   14  H   UNK N   1      27.150  17.903   7.006  0.00  0.00     0.174 HD
ENDROOT
BRANCH   8  15
HETATM   15  S   UNK N   1      21.384  20.307   2.753  0.00  0.00     0.257 S 
HETATM   16  O   UNK N   1      22.087  21.671   2.687  0.00  0.00    -0.201 OA
HETATM   17  O   UNK N   1      20.314  20.613   3.813  0.00  0.00    -0.201 OA
BRANCH  15  18
HETATM   18  N   UNK N   1      20.407  20.188   1.288  0.00  0.00    -0.324 N 
HETATM   19  H   UNK N   1      20.574  20.707   0.426  0.00  0.00     0.169 HD
HETATM   20  H   UNK N   1      19.613  19.548   1.304  0.00  0.00     0.169 HD
ENDBRANCH  15  18
ENDBRANCH   8  15
BRANCH   9  21
HETATM   21  C   UNK N   1      20.721  17.005   3.281  0.00  0.00     0.419 C 
HETATM   22  F   UNK N   1      19.677  17.591   3.948  0.00  0.00    -0.166 F 
HETATM   23  F   UNK N   1      20.461  17.100   1.926  0.00  0.00    -0.166 F 
HETATM   24  F   UNK N   1      20.756  15.665   3.630  0.00  0.00    -0.166 F 
ENDBRANCH   9  21
TORSDOF 3
ENDMDL
MODEL 4
REMARK VINA RESULT:      -6.1      2.861      3.494
REMARK  3 active torsions:
REMARK  status: ('A' for Active; 'I' for Inactive)
REMARK    1  A    between atoms: S_2  and  N_12 
REMARK    2  A    between atoms: S_2  and  C_15 
REMARK    3  A    between atoms: C_16  and  C_20 
ROOT
HETATM    1  S   UNK N   1      33.754  16.550   6.508  0.00  0.00     0.262 S 
HETATM    2  O   UNK N   1      34.132  15.157   5.982  0.00  0.00    -0.200 OA
HETATM    3  O   UNK N   1      34.286  17.540   5.462  0.00  0.00    -0.200 OA
HETATM    4  N   UNK N   1      32.826  16.665   9.338  0.00  0.00    -0.372 N 
HETATM    5  N   UNK N   1      34.775  16.815   7.917  0.00  0.00    -0.299 N 
HETATM    6  C   UNK N   1      32.081  16.838   7.006  0.00  0.00     0.107 A 
HETATM    7  C   UNK N   1      31.806  16.907   8.371  0.00  0.00     0.053 A 
HETATM    8  C   UNK N   1      29.802  17.496   6.471  0.00  0.00     0.096 A 
HETATM    9  C   UNK N   1      29.514  17.590   7.872  0.00  0.00     0.073 A 
HETATM   10  C   UNK N   1      31.092  17.122   6.071  0.00  0.00     0.053 A 
HETATM   11  C   UNK N   1      34.126  16.099   9.013  0.00  0.00     0.255 C 
HETATM   12  C   UNK N   1      30.534  17.281   8.791  0.00  0.00     0.048 A 
HETATM   13  H   UNK N   1      32.640  16.894  10.277  0.00  0.00     0.161 HD
HETATM   14  H   UNK N   1      35.639  17.355   7.960  0.00  0.00     0.174 HD
ENDROOT
BRANCH   8  15
HETATM   15  S   UNK N   1      28.658  17.861   5.112  0.00  0.00     0.257 S 
HETATM   16  O   UNK N   1      27.268  17.239   5.306  0.00  0.00    -0.201 OA
HETATM   17  O   UNK N   1      29.129  17.076   3.878  0.00  0.00    -0.201 OA
BRANCH  15  18
HETATM   18  N   UNK N   1      28.386  19.466   4.428  0.00  0.00    -0.324 N 
HETATM   19  H   UNK N   1      27.764  19.674   3.646  0.00  0.00     0.169 HD
HETATM   20  H   UNK N   1      28.891  20.246   4.847  0.00  0.00     0.169 HD
ENDBRANCH  15  18
ENDBRANCH   8  15
BRANCH   9  21
HETATM   21  C   UNK N   1      28.205  18.036   8.486  0.00  0.00     0.419 C 
HETATM   22  F   UNK N   1      27.667  19.163   7.922  0.00  0.00    -0.166 F 
HETATM   23  F   UNK N   1      27.272  17.022   8.371  0.00  0.00    -0.166 F 
HETATM   24  F   UNK N   1      28.417  18.289   9.831  0.00  0.00    -0.166 F 
ENDBRANCH   9  21
TORSDOF 3
ENDMDL
MODEL 5
REMARK VINA RESULT:      -6.1      2.663      5.624
REMARK  3 active torsions:
REMARK  status: ('A' for Active; 'I' for Inactive)
REMARK    1  A    between atoms: S_2  and  N_12 
REMARK    2  A    between atoms: S_2  and  C_15 
REMARK    3  A    between atoms: C_16  and  C_20 
ROOT
HETATM    1  S   UNK N   1      28.325  17.915   7.783  0.00  0.00     0.262 S 
HETATM    2  O   UNK N   1      27.595  16.769   8.499  0.00  0.00    -0.200 OA
HETATM    3  O   UNK N   1      28.647  18.943   8.878  0.00  0.00    -0.200 OA
HETATM    4  N   UNK N   1      28.203  17.876   4.805  0.00  0.00    -0.372 N 
HETATM    5  N   UNK N   1      27.104  18.705   6.791  0.00  0.00    -0.299 N 
HETATM    6  C   UNK N   1      29.687  17.518   6.726  0.00  0.00     0.107 A 
HETATM    7  C   UNK N   1      29.489  17.583   5.349  0.00  0.00     0.053 A 
HETATM    8  C   UNK N   1      32.063  17.112   6.408  0.00  0.00     0.096 A 
HETATM    9  C   UNK N   1      31.875  17.197   4.989  0.00  0.00     0.073 A 
HETATM   10  C   UNK N   1      30.954  17.279   7.247  0.00  0.00     0.053 A 
HETATM   11  C   UNK N   1      26.979  17.881   5.591  0.00  0.00     0.255 C 
HETATM   12  C   UNK N   1      30.577  17.425   4.496  0.00  0.00     0.048 A 
HETATM   13  H   UNK N   1      28.141  18.087   3.846  0.00  0.00     0.161 HD
HETATM   14  H   UNK N   1      26.590  19.559   7.008  0.00  0.00     0.174 HD
ENDROOT
BRANCH   8  15
HETATM   15  S   UNK N   1      33.638  16.845   7.268  0.00  0.00     0.257 S 
HETATM   16  O   UNK N   1      33.523  16.964   8.794  0.00  0.00    -0.201 OA
HETATM   17  O   UNK N   1      34.542  18.054   6.977  0.00  0.00    -0.201 OA
BRANCH  15  18
HETATM   18  N   UNK N   1      34.738  15.499   6.962  0.00  0.00    -0.324 N 
HETATM   19  H   UNK N   1      34.702  14.884   6.148  0.00  0.00     0.169 HD
HETATM   20  H   UNK N   1      35.466  15.322   7.653  0.00  0.00     0.169 HD
ENDBRANCH  15  18
ENDBRANCH   8  15
BRANCH   9  21
HETATM   21  C   UNK N   1      32.958  17.105   3.937  0.00  0.00     0.419 C 
HETATM   22  F   UNK N   1      33.726  15.972   4.010  0.00  0.00    -0.166 F 
HETATM   23  F   UNK N   1      32.385  17.146   2.680  0.00  0.00    -0.166 F 
HETATM   24  F   UNK N   1      33.795  18.201   4.076  0.00  0.00    -0.166 F 
ENDBRANCH   9  21
TORSDOF 3
ENDMDL
MODEL 6
REMARK VINA RESULT:      -6.1      7.340      8.779
REMARK  3 active torsions:
REMARK  status: ('A' for Active; 'I' for Inactive)
REMARK    1  A    between atoms: S_2  and  N_12 
REMARK    2  A    between atoms: S_2  and  C_15 
REMARK    3  A    between atoms: C_16  and  C_20 
ROOT
HETATM    1  S   UNK N   1      33.692  14.939   9.243  0.00  0.00     0.262 S 
HETATM    2  O   UNK N   1      34.300  14.579   7.880  0.00  0.00    -0.200 OA
HETATM    3  O   UNK N   1      32.252  14.407   9.203  0.00  0.00    -0.200 OA
HETATM    4  N   UNK N   1      35.251  16.868  10.896  0.00  0.00    -0.372 N 
HETATM    5  N   UNK N   1      33.509  16.690   9.230  0.00  0.00    -0.299 N 
HETATM    6  C   UNK N   1      34.589  14.513  10.707  0.00  0.00     0.107 A 
HETATM    7  C   UNK N   1      35.238  15.534  11.399  0.00  0.00     0.053 A 
HETATM    8  C   UNK N   1      35.128  12.922  12.465  0.00  0.00     0.096 A 
HETATM    9  C   UNK N   1      35.780  13.969  13.196  0.00  0.00     0.073 A 
HETATM   10  C   UNK N   1      34.541  13.225  11.230  0.00  0.00     0.053 A 
HETATM   11  C   UNK N   1      34.831  17.225   9.549  0.00  0.00     0.255 C 
HETATM   12  C   UNK N   1      35.823  15.257  12.630  0.00  0.00     0.048 A 
HETATM   13  H   UNK N   1      35.562  17.587  11.492  0.00  0.00     0.161 HD
HETATM   14  H   UNK N   1      32.659  17.220   9.040  0.00  0.00     0.174 HD
ENDROOT
BRANCH   8  15
HETATM   15  S   UNK N   1      34.933  11.200  13.001  0.00  0.00     0.257 S 
HETATM   16  O   UNK N   1      36.261  10.432  13.068  0.00  0.00    -0.201 OA
HETATM   17  O   UNK N   1      34.241  10.431  11.864  0.00  0.00    -0.201 OA
BRANCH  15  18
HETATM   18  N   UNK N   1      33.995  10.681  14.403  0.00  0.00    -0.324 N 
HETATM   19  H   UNK N   1      33.192  11.177  14.790  0.00  0.00     0.169 HD
HETATM   20  H   UNK N   1      34.277   9.816  14.862  0.00  0.00     0.169 HD
ENDBRANCH  15  18
ENDBRANCH   8  15
BRANCH   9  21
HETATM   21  C   UNK N   1      36.411  13.844  14.565  0.00  0.00     0.419 C 
HETATM   22  F   UNK N   1      37.360  12.860  14.666  0.00  0.00    -0.166 F 
HETATM   23  F   UNK N   1      37.009  15.042  14.909  0.00  0.00    -0.166 F 
HETATM   24  F   UNK N   1      35.410  13.571  15.483  0.00  0.00    -0.166 F 
ENDBRANCH   9  21
TORSDOF 3
ENDMDL
MODEL 7
REMARK VINA RESULT:      -6.1      9.787     12.096
REMARK  3 active torsions:
REMARK  status: ('A' for Active; 'I' for Inactive)
REMARK    1  A    between atoms: S_2  and  N_12 
REMARK    2  A    between atoms: S_2  and  C_15 
REMARK    3  A    between atoms: C_16  and  C_20 
ROOT
HETATM    1  S   UNK N   1      19.536  14.349   1.874  0.00  0.00     0.262 S 
HETATM    2  O   UNK N   1      20.464  13.268   1.301  0.00  0.00    -0.200 OA
HETATM    3  O   UNK N   1      18.852  13.701   3.086  0.00  0.00    -0.200 OA
HETATM    4  N   UNK N   1      19.086  16.730   0.139  0.00  0.00    -0.372 N 
HETATM    5  N   UNK N   1      18.243  14.534   0.693  0.00  0.00    -0.299 N 
HETATM    6  C   UNK N   1      20.204  15.958   2.182  0.00  0.00     0.107 A 
HETATM    7  C   UNK N   1      19.871  16.985   1.302  0.00  0.00     0.053 A 
HETATM    8  C   UNK N   1      21.332  17.529   3.656  0.00  0.00     0.096 A 
HETATM    9  C   UNK N   1      20.977  18.597   2.768  0.00  0.00     0.073 A 
HETATM   10  C   UNK N   1      20.929  16.225   3.338  0.00  0.00     0.053 A 
HETATM   11  C   UNK N   1      18.788  15.395  -0.355  0.00  0.00     0.255 C 
HETATM   12  C   UNK N   1      20.256  18.289   1.600  0.00  0.00     0.048 A 
HETATM   13  H   UNK N   1      18.725  17.500  -0.358  0.00  0.00     0.161 HD
HETATM   14  H   UNK N   1      17.309  14.127   0.732  0.00  0.00     0.174 HD
ENDROOT
BRANCH   8  15
HETATM   15  S   UNK N   1      22.237  17.688   5.219  0.00  0.00     0.257 S 
HETATM   16  O   UNK N   1      22.257  16.392   6.043  0.00  0.00    -0.201 OA
HETATM   17  O   UNK N   1      21.405  18.581   6.154  0.00  0.00    -0.201 OA
BRANCH  15  18
HETATM   18  N   UNK N   1      23.844  18.400   5.386  0.00  0.00    -0.324 N 
HETATM   19  H   UNK N   1      24.207  19.169   4.823  0.00  0.00     0.169 HD
HETATM   20  H   UNK N   1      24.457  18.011   6.101  0.00  0.00     0.169 HD
ENDBRANCH  15  18
ENDBRANCH   8  15
BRANCH   9  21
HETATM   21  C   UNK N   1      21.268  20.067   2.978  0.00  0.00     0.419 C 
HETATM   22  F   UNK N   1      22.578  20.351   3.266  0.00  0.00    -0.166 F 
HETATM   23  F   UNK N   1      20.926  20.772   1.840  0.00  0.00    -0.166 F 
HETATM   24  F   UNK N   1      20.489  20.521   4.030  0.00  0.00    -0.166 F 
ENDBRANCH   9  21
TORSDOF 3
ENDMDL
MODEL 8
REMARK VINA RESULT:      -6.0      7.012      9.869
REMARK  3 active torsions:
REMARK  status: ('A' for Active; 'I' for Inactive)
REMARK    1  A    between atoms: S_2  and  N_12 
REMARK    2  A    between atoms: S_2  and  C_15 
REMARK    3  A    between atoms: C_16  and  C_20 
ROOT
HETATM    1  S   UNK N   1      21.019  20.014   2.810  0.00  0.00     0.262 S 
HETATM    2  O   UNK N   1      20.260  20.915   3.796  0.00  0.00    -0.200 OA
HETATM    3  O   UNK N   1      21.338  20.905   1.601  0.00  0.00    -0.200 OA
HETATM    4  N   UNK N   1      20.948  17.093   3.399  0.00  0.00    -0.372 N 
HETATM    5  N   UNK N   1      19.827  18.869   2.204  0.00  0.00    -0.299 N 
HETATM    6  C   UNK N   1      22.393  19.075   3.412  0.00  0.00     0.107 A 
HETATM    7  C   UNK N   1      22.220  17.706   3.600  0.00  0.00     0.053 A 
HETATM    8  C   UNK N   1      24.768  18.884   3.897  0.00  0.00     0.096 A 
HETATM    9  C   UNK N   1      24.605  17.471   4.074  0.00  0.00     0.073 A 
HETATM   10  C   UNK N   1      23.648  19.657   3.564  0.00  0.00     0.053 A 
HETATM   11  C   UNK N   1      19.710  17.840   3.235  0.00  0.00     0.255 C 
HETATM   12  C   UNK N   1      23.320  16.919   3.927  0.00  0.00     0.048 A 
HETATM   13  H   UNK N   1      20.905  16.110   3.369  0.00  0.00     0.161 HD
HETATM   14  H   UNK N   1      19.322  18.914   1.319  0.00  0.00     0.174 HD
ENDROOT
BRANCH   8  15
HETATM   15  S   UNK N   1      26.324  19.809   4.018  0.00  0.00     0.257 S 
HETATM   16  O   UNK N   1      26.375  20.753   5.228  0.00  0.00    -0.201 OA
HETATM   17  O   UNK N   1      26.346  20.840   2.878  0.00  0.00    -0.201 OA
BRANCH  15  18
HETATM   18  N   UNK N   1      27.933  19.097   3.882  0.00  0.00    -0.324 N 
HETATM   19  H   UNK N   1      28.762  19.578   3.532  0.00  0.00     0.169 HD
HETATM   20  H   UNK N   1      28.043  18.127   4.177  0.00  0.00     0.169 HD
ENDBRANCH  15  18
ENDBRANCH   8  15
BRANCH   9  21
HETATM   21  C   UNK N   1      25.705  16.476   4.371  0.00  0.00     0.419 C 
HETATM   22  F   UNK N   1      26.467  16.782   5.469  0.00  0.00    -0.166 F 
HETATM   23  F   UNK N   1      25.153  15.225   4.578  0.00  0.00    -0.166 F 
HETATM   24  F   UNK N   1      26.545  16.411   3.272  0.00  0.00    -0.166 F 
ENDBRANCH   9  21
TORSDOF 3
ENDMDL
MODEL 9
REMARK VINA RESULT:      -5.9     11.207     12.484
REMARK  3 active torsions:
REMARK  status: ('A' for Active; 'I' for Inactive)
REMARK    1  A    between atoms: S_2  and  N_12 
REMARK    2  A    between atoms: S_2  and  C_15 
REMARK    3  A    between atoms: C_16  and  C_20 
ROOT
HETATM    1  S   UNK N   1      38.336   8.478  15.021  0.00  0.00     0.262 S 
HETATM    2  O   UNK N   1      37.787   7.449  14.022  0.00  0.00    -0.200 OA
HETATM    3  O   UNK N   1      39.705   8.899  14.465  0.00  0.00    -0.200 OA
HETATM    4  N   UNK N   1      36.899   8.657  17.626  0.00  0.00    -0.372 N 
HETATM    5  N   UNK N   1      38.721   7.563  16.476  0.00  0.00    -0.299 N 
HETATM    6  C   UNK N   1      37.295   9.824  15.505  0.00  0.00     0.107 A 
HETATM    7  C   UNK N   1      36.723   9.787  16.774  0.00  0.00     0.053 A 
HETATM    8  C   UNK N   1      36.455  12.077  15.145  0.00  0.00     0.096 A 
HETATM    9  C   UNK N   1      35.878  12.058  16.458  0.00  0.00     0.073 A 
HETATM   10  C   UNK N   1      37.157  10.950  14.700  0.00  0.00     0.053 A 
HETATM   11  C   UNK N   1      37.451   7.388  17.177  0.00  0.00     0.255 C 
HETATM   12  C   UNK N   1      36.024  10.897  17.239  0.00  0.00     0.048 A 
HETATM   13  H   UNK N   1      36.633   8.740  18.570  0.00  0.00     0.161 HD
HETATM   14  H   UNK N   1      39.638   7.225  16.768  0.00  0.00     0.174 HD
ENDROOT
BRANCH   8  15
HETATM   15  S   UNK N   1      36.411  13.461  13.973  0.00  0.00     0.257 S 
HETATM   16  O   UNK N   1      36.748  14.813  14.619  0.00  0.00    -0.201 OA
HETATM   17  O   UNK N   1      34.942  13.708  13.594  0.00  0.00    -0.201 OA
BRANCH  15  18
HETATM   18  N   UNK N   1      37.191  13.465  12.390  0.00  0.00    -0.324 N 
HETATM   19  H   UNK N   1      38.091  13.034  12.176  0.00  0.00     0.169 HD
HETATM   20  H   UNK N   1      36.704  13.937  11.628  0.00  0.00     0.169 HD
ENDBRANCH  15  18
ENDBRANCH   8  15
BRANCH   9  21
HETATM   21  C   UNK N   1      35.144  13.199  17.127  0.00  0.00     0.419 C 
HETATM   22  F   UNK N   1      35.876  14.351  17.252  0.00  0.00    -0.166 F 
HETATM   23  F   UNK N   1      34.005  13.500  16.404  0.00  0.00    -0.166 F 
HETATM   24  F   UNK N   1      34.766  12.791  18.396  0.00  0.00    -0.166 F 
ENDBRANCH   9  21
TORSDOF 3
ENDMDL
