MODEL 1
REMARK VINA RESULT:      -6.2      0.000      0.000
REMARK  15 active torsions:
REMARK  status: ('A' for Active; 'I' for Inactive)
REMARK    1  A    between atoms: S_1  and  N_8 
REMARK    2  A    between atoms: S_1  and  C_20 
REMARK    3  A    between atoms: O_2  and  C_17 
REMARK    4  A    between atoms: O_2  and  C_21 
REMARK    5  A    between atoms: O_5  and  C_29 
REMARK    6  A    between atoms: C_18  and  N_8 
REMARK    7  A    between atoms: C_9  and  C_12 
REMARK    8  A    between atoms: C_12  and  C_15 
REMARK    9  A    between atoms: C_15  and  C_16 
REMARK   10  A    between atoms: C_16  and  C_17 
REMARK   11  A    between atoms: C_18  and  C_19 
REMARK   12  A    between atoms: C_18  and  C_29 
REMARK   13  A    between atoms: C_19  and  C_23 
REMARK   14  A    between atoms: C_20  and  C_22 
REMARK   15  A    between atoms: C_22  and  C_24 
ROOT
HETATM    1  C   UNK N   1      23.939  15.204   4.872  0.00  0.00     0.068 A 
HETATM    2  C   UNK N   1      21.511  15.660   3.567  0.00  0.00    -0.056 A 
HETATM    3  C   UNK N   1      23.860  15.104   3.473  0.00  0.00     0.037 A 
HETATM    4  C   UNK N   1      22.782  15.457   5.614  0.00  0.00     0.037 A 
HETATM    5  C   UNK N   1      22.648  15.325   2.822  0.00  0.00     0.010 A 
HETATM    6  C   UNK N   1      21.573  15.700   4.963  0.00  0.00     0.010 A 
ENDROOT
BRANCH   2   7
HETATM    7  C   UNK N   1      20.287  16.166   2.887  0.00  0.00     0.075 C 
BRANCH   7   8
HETATM    8  C   UNK N   1      20.488  17.540   2.210  0.00  0.00     0.194 C 
BRANCH   8   9
HETATM    9  N   UNK N   1      19.705  18.548   2.901  0.00  0.00    -0.304 N 
HETATM   10  H   UNK N   1      18.692  18.665   2.885  0.00  0.00     0.173 HD
BRANCH   9  11
HETATM   11  S   UNK N   1      20.888  19.528   3.774  0.00  0.00     0.227 S 
HETATM   12  O   UNK N   1      20.236  20.917   3.849  0.00  0.00    -0.206 OA
HETATM   13  O   UNK N   1      20.811  19.041   5.229  0.00  0.00    -0.206 OA
BRANCH  11  14
HETATM   14  C   UNK N   1      22.566  19.545   3.077  0.00  0.00     0.163 C 
BRANCH  14  15
HETATM   15  C   UNK N   1      23.541  18.896   4.032  0.00  0.00     0.016 C 
BRANCH  15  16
HETATM   16  C   UNK N   1      24.942  19.353   3.694  0.00  0.00    -0.004 C 
HETATM   17  C   UNK N   1      25.846  18.146   3.573  0.00  0.00     0.005 C 
ENDBRANCH  15  16
ENDBRANCH  14  15
ENDBRANCH  11  14
ENDBRANCH   9  11
ENDBRANCH   8   9
BRANCH   8  18
HETATM   18  C   UNK N   1      20.323  17.661   0.700  0.00  0.00     0.164 C 
HETATM   19  O   UNK N   1      20.077  16.658   0.044  0.00  0.00    -0.648 OA
BRANCH  18  20
HETATM   20  O   UNK N   1      20.431  18.842   0.066  0.00  0.00    -0.775 OA
HETATM   21  H   UNK N   1      19.934  19.084  -0.691  0.00  0.00     0.167 HD
ENDBRANCH  18  20
ENDBRANCH   8  18
ENDBRANCH   7   8
ENDBRANCH   2   7
BRANCH   1  22
HETATM   22  O   UNK N   1      25.124  15.122   5.515  0.00  0.00    -0.351 OA
BRANCH  22  23
HETATM   23  C   UNK N   1      25.235  14.635   6.800  0.00  0.00     0.175 C 
BRANCH  23  24
HETATM   24  C   UNK N   1      25.353  13.123   6.787  0.00  0.00     0.027 C 
BRANCH  24  25
HETATM   25  C   UNK N   1      24.422  12.522   7.821  0.00  0.00     0.002 C 
BRANCH  25  26
HETATM   26  C   UNK N   1      24.782  13.076   9.192  0.00  0.00     0.005 C 
BRANCH  26  27
HETATM   27  C   UNK N   1      23.624  13.008  10.181  0.00  0.00    -0.012 C 
HETATM   28  C   UNK N   1      23.850  11.973  11.280  0.00  0.00     0.024 C 
HETATM   29  C   UNK N   1      22.660  12.006  12.237  0.00  0.00     0.114 C 
HETATM   30  N   UNK N   1      21.421  11.710  11.516  0.00  0.00    -0.421 N 
HETATM   31  C   UNK N   1      21.178  12.761  10.527  0.00  0.00     0.114 C 
HETATM   32  H   UNK N   1      20.822  10.901  11.677  0.00  0.00     0.153 HD
HETATM   33  C   UNK N   1      22.288  12.766   9.480  0.00  0.00     0.024 C 
ENDBRANCH  26  27
ENDBRANCH  25  26
ENDBRANCH  24  25
ENDBRANCH  23  24
ENDBRANCH  22  23
ENDBRANCH   1  22
TORSDOF 15
ENDMDL
MODEL 2
REMARK VINA RESULT:      -6.1     13.997     16.887
REMARK  15 active torsions:
REMARK  status: ('A' for Active; 'I' for Inactive)
REMARK    1  A    between atoms: S_1  and  N_8 
REMARK    2  A    between atoms: S_1  and  C_20 
REMARK    3  A    between atoms: O_2  and  C_17 
REMARK    4  A    between atoms: O_2  and  C_21 
REMARK    5  A    between atoms: O_5  and  C_29 
REMARK    6  A    between atoms: C_18  and  N_8 
REMARK    7  A    between atoms: C_9  and  C_12 
REMARK    8  A    between atoms: C_12  and  C_15 
REMARK    9  A    between atoms: C_15  and  C_16 
REMARK   10  A    between atoms: C_16  and  C_17 
REMARK   11  A    between atoms: C_18  and  C_19 
REMARK   12  A    between atoms: C_18  and  C_29 
REMARK   13  A    between atoms: C_19  and  C_23 
REMARK   14  A    between atoms: C_20  and  C_22 
REMARK   15  A    between atoms: C_22  and  C_24 
ROOT
HETATM    1  C   UNK N   1      26.463  24.904  -5.146  0.00  0.00     0.068 A 
HETATM    2  C   UNK N   1      29.127  24.308  -4.550  0.00  0.00    -0.056 A 
HETATM    3  C   UNK N   1      26.837  24.578  -3.831  0.00  0.00     0.037 A 
HETATM    4  C   UNK N   1      27.415  24.854  -6.168  0.00  0.00     0.037 A 
HETATM    5  C   UNK N   1      28.164  24.274  -3.534  0.00  0.00     0.010 A 
HETATM    6  C   UNK N   1      28.748  24.572  -5.869  0.00  0.00     0.010 A 
ENDROOT
BRANCH   2   7
HETATM    7  C   UNK N   1      30.576  24.261  -4.214  0.00  0.00     0.075 C 
BRANCH   7   8
HETATM    8  C   UNK N   1      31.093  22.832  -3.932  0.00  0.00     0.194 C 
BRANCH   8   9
HETATM    9  N   UNK N   1      30.309  21.868  -4.682  0.00  0.00    -0.304 N 
HETATM   10  H   UNK N   1      29.296  21.744  -4.663  0.00  0.00     0.173 HD
BRANCH   9  11
HETATM   11  S   UNK N   1      31.487  20.960  -5.633  0.00  0.00     0.227 S 
HETATM   12  O   UNK N   1      32.750  21.833  -5.595  0.00  0.00    -0.206 OA
HETATM   13  O   UNK N   1      31.877  19.765  -4.749  0.00  0.00    -0.206 OA
BRANCH  11  14
HETATM   14  C   UNK N   1      30.963  20.507  -7.314  0.00  0.00     0.163 C 
BRANCH  14  15
HETATM   15  C   UNK N   1      29.477  20.230  -7.347  0.00  0.00     0.016 C 
BRANCH  15  16
HETATM   16  C   UNK N   1      29.254  18.777  -7.702  0.00  0.00    -0.004 C 
HETATM   17  C   UNK N   1      30.043  18.441  -8.948  0.00  0.00     0.005 C 
ENDBRANCH  15  16
ENDBRANCH  14  15
ENDBRANCH  11  14
ENDBRANCH   9  11
ENDBRANCH   8   9
BRANCH   8  18
HETATM   18  C   UNK N   1      31.284  22.377  -2.491  0.00  0.00     0.164 C 
HETATM   19  O   UNK N   1      30.642  22.921  -1.602  0.00  0.00    -0.648 OA
BRANCH  18  20
HETATM   20  O   UNK N   1      32.133  21.385  -2.165  0.00  0.00    -0.775 OA
HETATM   21  H   UNK N   1      32.128  20.933  -1.345  0.00  0.00     0.167 HD
ENDBRANCH  18  20
ENDBRANCH   8  18
ENDBRANCH   7   8
ENDBRANCH   2   7
BRANCH   1  22
HETATM   22  O   UNK N   1      25.213  25.325  -5.435  0.00  0.00    -0.351 OA
BRANCH  22  23
HETATM   23  C   UNK N   1      24.952  26.595  -5.904  0.00  0.00     0.175 C 
BRANCH  23  24
HETATM   24  C   UNK N   1      25.241  27.627  -4.830  0.00  0.00     0.027 C 
BRANCH  24  25
HETATM   25  C   UNK N   1      26.527  28.363  -5.151  0.00  0.00     0.002 C 
BRANCH  25  26
HETATM   26  C   UNK N   1      27.401  28.399  -3.907  0.00  0.00     0.005 C 
BRANCH  26  27
HETATM   27  C   UNK N   1      28.818  27.902  -4.163  0.00  0.00    -0.012 C 
HETATM   28  C   UNK N   1      29.807  28.370  -3.098  0.00  0.00     0.024 C 
HETATM   29  C   UNK N   1      31.184  27.792  -3.419  0.00  0.00     0.114 C 
HETATM   30  N   UNK N   1      31.624  28.238  -4.742  0.00  0.00    -0.421 N 
HETATM   31  C   UNK N   1      30.713  27.705  -5.756  0.00  0.00     0.114 C 
HETATM   32  H   UNK N   1      32.437  28.825  -4.928  0.00  0.00     0.153 HD
HETATM   33  C   UNK N   1      29.312  28.280  -5.558  0.00  0.00     0.024 C 
ENDBRANCH  26  27
ENDBRANCH  25  26
ENDBRANCH  24  25
ENDBRANCH  23  24
ENDBRANCH  22  23
ENDBRANCH   1  22
TORSDOF 15
ENDMDL
MODEL 3
REMARK VINA RESULT:      -6.0      7.142     10.928
REMARK  15 active torsions:
REMARK  status: ('A' for Active; 'I' for Inactive)
REMARK    1  A    between atoms: S_1  and  N_8 
REMARK    2  A    between atoms: S_1  and  C_20 
REMARK    3  A    between atoms: O_2  and  C_17 
REMARK    4  A    between atoms: O_2  and  C_21 
REMARK    5  A    between atoms: O_5  and  C_29 
REMARK    6  A    between atoms: C_18  and  N_8 
REMARK    7  A    between atoms: C_9  and  C_12 
REMARK    8  A    between atoms: C_12  and  C_15 
REMARK    9  A    between atoms: C_15  and  C_16 
REMARK   10  A    between atoms: C_16  and  C_17 
REMARK   11  A    between atoms: C_18  and  C_19 
REMARK   12  A    between atoms: C_18  and  C_29 
REMARK   13  A    between atoms: C_19  and  C_23 
REMARK   14  A    between atoms: C_20  and  C_22 
REMARK   15  A    between atoms: C_22  and  C_24 
ROOT
HETATM    1  C   UNK N   1      28.739  18.490   7.056  0.00  0.00     0.068 A 
HETATM    2  C   UNK N   1      30.866  17.063   8.175  0.00  0.00    -0.056 A 
HETATM    3  C   UNK N   1      29.455  17.563   6.279  0.00  0.00     0.037 A 
HETATM    4  C   UNK N   1      29.144  18.750   8.368  0.00  0.00     0.037 A 
HETATM    5  C   UNK N   1      30.519  16.856   6.834  0.00  0.00     0.010 A 
HETATM    6  C   UNK N   1      30.196  18.027   8.932  0.00  0.00     0.010 A 
ENDROOT
BRANCH   2   7
HETATM    7  C   UNK N   1      31.805  16.134   8.861  0.00  0.00     0.075 C 
BRANCH   7   8
HETATM    8  C   UNK N   1      33.278  16.334   8.442  0.00  0.00     0.194 C 
BRANCH   8   9
HETATM    9  N   UNK N   1      33.679  15.276   7.532  0.00  0.00    -0.304 N 
HETATM   10  H   UNK N   1      33.621  14.270   7.688  0.00  0.00     0.173 HD
BRANCH   9  11
HETATM   11  S   UNK N   1      34.286  16.110   6.098  0.00  0.00     0.227 S 
HETATM   12  O   UNK N   1      34.442  17.568   6.555  0.00  0.00    -0.206 OA
HETATM   13  O   UNK N   1      35.744  15.645   5.954  0.00  0.00    -0.206 OA
BRANCH  11  14
HETATM   14  C   UNK N   1      33.287  15.918   4.592  0.00  0.00     0.163 C 
BRANCH  14  15
HETATM   15  C   UNK N   1      32.833  17.268   4.085  0.00  0.00     0.016 C 
BRANCH  15  16
HETATM   16  C   UNK N   1      32.068  17.077   2.794  0.00  0.00    -0.004 C 
HETATM   17  C   UNK N   1      30.804  16.295   3.074  0.00  0.00     0.005 C 
ENDBRANCH  15  16
ENDBRANCH  14  15
ENDBRANCH  11  14
ENDBRANCH   9  11
ENDBRANCH   8   9
BRANCH   8  18
HETATM   18  C   UNK N   1      34.336  16.561   9.514  0.00  0.00     0.164 C 
HETATM   19  O   UNK N   1      34.467  15.738  10.409  0.00  0.00    -0.648 OA
BRANCH  18  20
HETATM   20  O   UNK N   1      35.142  17.639   9.500  0.00  0.00    -0.775 OA
HETATM   21  H   UNK N   1      35.846  17.782  10.102  0.00  0.00     0.167 HD
ENDBRANCH  18  20
ENDBRANCH   8  18
ENDBRANCH   7   8
ENDBRANCH   2   7
BRANCH   1  22
HETATM   22  O   UNK N   1      27.627  19.091   6.583  0.00  0.00    -0.351 OA
BRANCH  22  23
HETATM   23  C   UNK N   1      27.678  20.140   5.690  0.00  0.00     0.175 C 
BRANCH  23  24
HETATM   24  C   UNK N   1      27.422  19.648   4.278  0.00  0.00     0.027 C 
BRANCH  24  25
HETATM   25  C   UNK N   1      25.974  19.885   3.900  0.00  0.00     0.002 C 
BRANCH  25  26
HETATM   26  C   UNK N   1      25.338  18.557   3.518  0.00  0.00     0.005 C 
BRANCH  26  27
HETATM   27  C   UNK N   1      26.137  17.355   4.006  0.00  0.00    -0.012 C 
HETATM   28  C   UNK N   1      26.404  16.338   2.898  0.00  0.00     0.024 C 
HETATM   29  C   UNK N   1      27.239  15.195   3.472  0.00  0.00     0.114 C 
HETATM   30  N   UNK N   1      26.527  14.555   4.580  0.00  0.00    -0.421 N 
HETATM   31  C   UNK N   1      26.359  15.521   5.665  0.00  0.00     0.114 C 
HETATM   32  H   UNK N   1      26.201  13.589   4.593  0.00  0.00     0.153 HD
HETATM   33  C   UNK N   1      25.477  16.680   5.207  0.00  0.00     0.024 C 
ENDBRANCH  26  27
ENDBRANCH  25  26
ENDBRANCH  24  25
ENDBRANCH  23  24
ENDBRANCH  22  23
ENDBRANCH   1  22
TORSDOF 15
ENDMDL
MODEL 4
REMARK VINA RESULT:      -5.9     11.399     14.081
REMARK  15 active torsions:
REMARK  status: ('A' for Active; 'I' for Inactive)
REMARK    1  A    between atoms: S_1  and  N_8 
REMARK    2  A    between atoms: S_1  and  C_20 
REMARK    3  A    between atoms: O_2  and  C_17 
REMARK    4  A    between atoms: O_2  and  C_21 
REMARK    5  A    between atoms: O_5  and  C_29 
REMARK    6  A    between atoms: C_18  and  N_8 
REMARK    7  A    between atoms: C_9  and  C_12 
REMARK    8  A    between atoms: C_12  and  C_15 
REMARK    9  A    between atoms: C_15  and  C_16 
REMARK   10  A    between atoms: C_16  and  C_17 
REMARK   11  A    between atoms: C_18  and  C_19 
REMARK   12  A    between atoms: C_18  and  C_29 
REMARK   13  A    between atoms: C_19  and  C_23 
REMARK   14  A    between atoms: C_20  and  C_22 
REMARK   15  A    between atoms: C_22  and  C_24 
ROOT
HETATM    1  C   UNK N   1      35.902  12.875  11.852  0.00  0.00     0.068 A 
HETATM    2  C   UNK N   1      35.460  15.359  10.653  0.00  0.00    -0.056 A 
HETATM    3  C   UNK N   1      36.912  13.478  11.084  0.00  0.00     0.037 A 
HETATM    4  C   UNK N   1      34.649  13.487  11.951  0.00  0.00     0.037 A 
HETATM    5  C   UNK N   1      36.690  14.714  10.480  0.00  0.00     0.010 A 
HETATM    6  C   UNK N   1      34.433  14.734  11.366  0.00  0.00     0.010 A 
ENDROOT
BRANCH   2   7
HETATM    7  C   UNK N   1      35.295  16.785  10.257  0.00  0.00     0.075 C 
BRANCH   7   8
HETATM    8  C   UNK N   1      34.404  16.974   9.008  0.00  0.00     0.194 C 
BRANCH   8   9
HETATM    9  N   UNK N   1      34.314  15.725   8.274  0.00  0.00    -0.304 N 
HETATM   10  H   UNK N   1      35.082  15.120   7.983  0.00  0.00     0.173 HD
BRANCH   9  11
HETATM   11  S   UNK N   1      32.587  15.480   7.996  0.00  0.00     0.227 S 
HETATM   12  O   UNK N   1      32.420  15.699   6.485  0.00  0.00    -0.206 OA
HETATM   13  O   UNK N   1      32.370  13.966   8.143  0.00  0.00    -0.206 OA
BRANCH  11  14
HETATM   14  C   UNK N   1      31.473  16.498   9.010  0.00  0.00     0.163 C 
BRANCH  14  15
HETATM   15  C   UNK N   1      31.016  17.712   8.235  0.00  0.00     0.016 C 
BRANCH  15  16
HETATM   16  C   UNK N   1      30.068  18.517   9.095  0.00  0.00    -0.004 C 
HETATM   17  C   UNK N   1      29.137  17.576   9.828  0.00  0.00     0.005 C 
ENDBRANCH  15  16
ENDBRANCH  14  15
ENDBRANCH  11  14
ENDBRANCH   9  11
ENDBRANCH   8   9
BRANCH   8  18
HETATM   18  C   UNK N   1      34.674  18.141   8.068  0.00  0.00     0.164 C 
HETATM   19  O   UNK N   1      35.214  19.148   8.504  0.00  0.00    -0.648 OA
BRANCH  18  20
HETATM   20  O   UNK N   1      34.343  18.095   6.764  0.00  0.00    -0.775 OA
HETATM   21  H   UNK N   1      34.944  17.901   6.072  0.00  0.00     0.167 HD
ENDBRANCH  18  20
ENDBRANCH   8  18
ENDBRANCH   7   8
ENDBRANCH   2   7
BRANCH   1  22
HETATM   22  O   UNK N   1      36.134  11.743  12.551  0.00  0.00    -0.351 OA
BRANCH  22  23
HETATM   23  C   UNK N   1      35.131  10.854  12.872  0.00  0.00     0.175 C 
BRANCH  23  24
HETATM   24  C   UNK N   1      34.751  10.987  14.335  0.00  0.00     0.027 C 
BRANCH  24  25
HETATM   25  C   UNK N   1      35.955  11.426  15.145  0.00  0.00     0.002 C 
BRANCH  25  26
HETATM   26  C   UNK N   1      35.578  12.648  15.969  0.00  0.00     0.005 C 
BRANCH  26  27
HETATM   27  C   UNK N   1      35.150  12.297  17.389  0.00  0.00    -0.012 C 
HETATM   28  C   UNK N   1      35.334  13.458  18.362  0.00  0.00     0.024 C 
HETATM   29  C   UNK N   1      34.845  13.023  19.743  0.00  0.00     0.114 C 
HETATM   30  N   UNK N   1      35.602  11.858  20.204  0.00  0.00    -0.421 N 
HETATM   31  C   UNK N   1      35.342  10.731  19.306  0.00  0.00     0.114 C 
HETATM   32  H   UNK N   1      36.211  11.835  21.021  0.00  0.00     0.153 HD
HETATM   33  C   UNK N   1      35.859  11.045  17.905  0.00  0.00     0.024 C 
ENDBRANCH  26  27
ENDBRANCH  25  26
ENDBRANCH  24  25
ENDBRANCH  23  24
ENDBRANCH  22  23
ENDBRANCH   1  22
TORSDOF 15
ENDMDL
MODEL 5
REMARK VINA RESULT:      -5.9      9.401     11.562
REMARK  15 active torsions:
REMARK  status: ('A' for Active; 'I' for Inactive)
REMARK    1  A    between atoms: S_1  and  N_8 
REMARK    2  A    between atoms: S_1  and  C_20 
REMARK    3  A    between atoms: O_2  and  C_17 
REMARK    4  A    between atoms: O_2  and  C_21 
REMARK    5  A    between atoms: O_5  and  C_29 
REMARK    6  A    between atoms: C_18  and  N_8 
REMARK    7  A    between atoms: C_9  and  C_12 
REMARK    8  A    between atoms: C_12  and  C_15 
REMARK    9  A    between atoms: C_15  and  C_16 
REMARK   10  A    between atoms: C_16  and  C_17 
REMARK   11  A    between atoms: C_18  and  C_19 
REMARK   12  A    between atoms: C_18  and  C_29 
REMARK   13  A    between atoms: C_19  and  C_23 
REMARK   14  A    between atoms: C_20  and  C_22 
REMARK   15  A    between atoms: C_22  and  C_24 
ROOT
HETATM    1  C   UNK N   1      34.139  16.014   8.502  0.00  0.00     0.068 A 
HETATM    2  C   UNK N   1      32.001  17.803   8.323  0.00  0.00    -0.056 A 
HETATM    3  C   UNK N   1      32.828  15.576   8.757  0.00  0.00     0.037 A 
HETATM    4  C   UNK N   1      34.377  17.364   8.232  0.00  0.00     0.037 A 
HETATM    5  C   UNK N   1      31.762  16.469   8.675  0.00  0.00     0.010 A 
HETATM    6  C   UNK N   1      33.309  18.255   8.128  0.00  0.00     0.010 A 
ENDROOT
BRANCH   2   7
HETATM    7  C   UNK N   1      30.869  18.700   7.962  0.00  0.00     0.075 C 
BRANCH   7   8
HETATM    8  C   UNK N   1      29.486  18.024   8.098  0.00  0.00     0.194 C 
BRANCH   8   9
HETATM    9  N   UNK N   1      28.638  18.409   6.985  0.00  0.00    -0.304 N 
HETATM   10  H   UNK N   1      28.302  19.344   6.755  0.00  0.00     0.173 HD
BRANCH   9  11
HETATM   11  S   UNK N   1      28.317  16.907   6.113  0.00  0.00     0.227 S 
HETATM   12  O   UNK N   1      27.285  16.182   6.990  0.00  0.00    -0.206 OA
HETATM   13  O   UNK N   1      27.484  17.326   4.891  0.00  0.00    -0.206 OA
BRANCH  11  14
HETATM   14  C   UNK N   1      29.775  15.898   5.715  0.00  0.00     0.163 C 
BRANCH  14  15
HETATM   15  C   UNK N   1      30.639  16.599   4.692  0.00  0.00     0.016 C 
BRANCH  15  16
HETATM   16  C   UNK N   1      32.090  16.266   4.960  0.00  0.00    -0.004 C 
HETATM   17  C   UNK N   1      32.948  17.465   4.622  0.00  0.00     0.005 C 
ENDBRANCH  15  16
ENDBRANCH  14  15
ENDBRANCH  11  14
ENDBRANCH   9  11
ENDBRANCH   8   9
BRANCH   8  18
HETATM   18  C   UNK N   1      28.732  18.124   9.418  0.00  0.00     0.164 C 
HETATM   19  O   UNK N   1      29.345  18.407  10.437  0.00  0.00    -0.648 OA
BRANCH  18  20
HETATM   20  O   UNK N   1      27.404  17.919   9.495  0.00  0.00    -0.775 OA
HETATM   21  H   UNK N   1      26.813  17.998   8.773  0.00  0.00     0.167 HD
ENDBRANCH  18  20
ENDBRANCH   8  18
ENDBRANCH   7   8
ENDBRANCH   2   7
BRANCH   1  22
HETATM   22  O   UNK N   1      35.171  15.144   8.448  0.00  0.00    -0.351 OA
BRANCH  22  23
HETATM   23  C   UNK N   1      35.772  14.641   9.582  0.00  0.00     0.175 C 
BRANCH  23  24
HETATM   24  C   UNK N   1      36.140  15.765  10.532  0.00  0.00     0.027 C 
BRANCH  24  25
HETATM   25  C   UNK N   1      35.800  15.374  11.956  0.00  0.00     0.002 C 
BRANCH  25  26
HETATM   26  C   UNK N   1      35.130  14.008  11.947  0.00  0.00     0.005 C 
BRANCH  26  27
HETATM   27  C   UNK N   1      35.802  13.012  12.885  0.00  0.00    -0.012 C 
HETATM   28  C   UNK N   1      36.163  13.627  14.235  0.00  0.00     0.024 C 
HETATM   29  C   UNK N   1      36.792  12.548  15.114  0.00  0.00     0.114 C 
HETATM   30  N   UNK N   1      37.992  12.008  14.471  0.00  0.00    -0.421 N 
HETATM   31  C   UNK N   1      37.612  11.347  13.223  0.00  0.00     0.114 C 
HETATM   32  H   UNK N   1      38.941  12.081  14.837  0.00  0.00     0.153 HD
HETATM   33  C   UNK N   1      37.028  12.363  12.245  0.00  0.00     0.024 C 
ENDBRANCH  26  27
ENDBRANCH  25  26
ENDBRANCH  24  25
ENDBRANCH  23  24
ENDBRANCH  22  23
ENDBRANCH   1  22
TORSDOF 15
ENDMDL
MODEL 6
REMARK VINA RESULT:      -5.9     14.762     17.266
REMARK  15 active torsions:
REMARK  status: ('A' for Active; 'I' for Inactive)
REMARK    1  A    between atoms: S_1  and  N_8 
REMARK    2  A    between atoms: S_1  and  C_20 
REMARK    3  A    between atoms: O_2  and  C_17 
REMARK    4  A    between atoms: O_2  and  C_21 
REMARK    5  A    between atoms: O_5  and  C_29 
REMARK    6  A    between atoms: C_18  and  N_8 
REMARK    7  A    between atoms: C_9  and  C_12 
REMARK    8  A    between atoms: C_12  and  C_15 
REMARK    9  A    between atoms: C_15  and  C_16 
REMARK   10  A    between atoms: C_16  and  C_17 
REMARK   11  A    between atoms: C_18  and  C_19 
REMARK   12  A    between atoms: C_18  and  C_29 
REMARK   13  A    between atoms: C_19  and  C_23 
REMARK   14  A    between atoms: C_20  and  C_22 
REMARK   15  A    between atoms: C_22  and  C_24 
ROOT
HETATM    1  C   UNK N   1      25.941  27.470  -3.854  0.00  0.00     0.068 A 
HETATM    2  C   UNK N   1      25.939  25.000  -5.160  0.00  0.00    -0.056 A 
HETATM    3  C   UNK N   1      25.242  27.311  -5.063  0.00  0.00     0.037 A 
HETATM    4  C   UNK N   1      26.698  26.410  -3.348  0.00  0.00     0.037 A 
HETATM    5  C   UNK N   1      25.245  26.081  -5.717  0.00  0.00     0.010 A 
HETATM    6  C   UNK N   1      26.685  25.172  -3.991  0.00  0.00     0.010 A 
ENDROOT
BRANCH   2   7
HETATM    7  C   UNK N   1      25.733  23.623  -5.686  0.00  0.00     0.075 C 
BRANCH   7   8
HETATM    8  C   UNK N   1      26.399  23.387  -7.060  0.00  0.00     0.194 C 
BRANCH   8   9
HETATM    9  N   UNK N   1      27.794  23.785  -7.006  0.00  0.00    -0.304 N 
HETATM   10  H   UNK N   1      28.166  24.723  -6.859  0.00  0.00     0.173 HD
BRANCH   9  11
HETATM   11  S   UNK N   1      28.706  22.292  -7.248  0.00  0.00     0.227 S 
HETATM   12  O   UNK N   1      27.640  21.268  -7.666  0.00  0.00    -0.206 OA
HETATM   13  O   UNK N   1      29.491  22.511  -8.551  0.00  0.00    -0.206 OA
BRANCH  11  14
HETATM   14  C   UNK N   1      29.725  21.753  -5.842  0.00  0.00     0.163 C 
BRANCH  14  15
HETATM   15  C   UNK N   1      29.509  22.663  -4.654  0.00  0.00     0.016 C 
BRANCH  15  16
HETATM   16  C   UNK N   1      30.572  23.738  -4.657  0.00  0.00    -0.004 C 
HETATM   17  C   UNK N   1      30.544  24.471  -3.334  0.00  0.00     0.005 C 
ENDBRANCH  15  16
ENDBRANCH  14  15
ENDBRANCH  11  14
ENDBRANCH   9  11
ENDBRANCH   8   9
BRANCH   8  18
HETATM   18  C   UNK N   1      25.727  23.923  -8.318  0.00  0.00     0.164 C 
HETATM   19  O   UNK N   1      26.258  24.833  -8.938  0.00  0.00    -0.648 OA
BRANCH  18  20
HETATM   20  O   UNK N   1      24.568  23.416  -8.776  0.00  0.00    -0.775 OA
HETATM   21  H   UNK N   1      23.867  23.929  -9.126  0.00  0.00     0.167 HD
ENDBRANCH  18  20
ENDBRANCH   8  18
ENDBRANCH   7   8
ENDBRANCH   2   7
BRANCH   1  22
HETATM   22  O   UNK N   1      25.849  28.610  -3.136  0.00  0.00    -0.351 OA
BRANCH  22  23
HETATM   23  C   UNK N   1      26.900  29.494  -3.014  0.00  0.00     0.175 C 
BRANCH  23  24
HETATM   24  C   UNK N   1      26.709  30.677  -3.944  0.00  0.00     0.027 C 
BRANCH  24  25
HETATM   25  C   UNK N   1      27.851  30.745  -4.938  0.00  0.00     0.002 C 
BRANCH  25  26
HETATM   26  C   UNK N   1      28.801  29.585  -4.680  0.00  0.00     0.005 C 
BRANCH  26  27
HETATM   27  C   UNK N   1      29.129  28.795  -5.942  0.00  0.00    -0.012 C 
HETATM   28  C   UNK N   1      28.024  28.880  -6.992  0.00  0.00     0.024 C 
HETATM   29  C   UNK N   1      28.459  28.093  -8.227  0.00  0.00     0.114 C 
HETATM   30  N   UNK N   1      28.710  26.694  -7.874  0.00  0.00    -0.421 N 
HETATM   31  C   UNK N   1      29.830  26.630  -6.934  0.00  0.00     0.114 C 
HETATM   32  H   UNK N   1      28.188  25.893  -8.228  0.00  0.00     0.153 HD
HETATM   33  C   UNK N   1      29.466  27.338  -5.632  0.00  0.00     0.024 C 
ENDBRANCH  26  27
ENDBRANCH  25  26
ENDBRANCH  24  25
ENDBRANCH  23  24
ENDBRANCH  22  23
ENDBRANCH   1  22
TORSDOF 15
ENDMDL
MODEL 7
REMARK VINA RESULT:      -5.8     11.077     15.239
REMARK  15 active torsions:
REMARK  status: ('A' for Active; 'I' for Inactive)
REMARK    1  A    between atoms: S_1  and  N_8 
REMARK    2  A    between atoms: S_1  and  C_20 
REMARK    3  A    between atoms: O_2  and  C_17 
REMARK    4  A    between atoms: O_2  and  C_21 
REMARK    5  A    between atoms: O_5  and  C_29 
REMARK    6  A    between atoms: C_18  and  N_8 
REMARK    7  A    between atoms: C_9  and  C_12 
REMARK    8  A    between atoms: C_12  and  C_15 
REMARK    9  A    between atoms: C_15  and  C_16 
REMARK   10  A    between atoms: C_16  and  C_17 
REMARK   11  A    between atoms: C_18  and  C_19 
REMARK   12  A    between atoms: C_18  and  C_29 
REMARK   13  A    between atoms: C_19  and  C_23 
REMARK   14  A    between atoms: C_20  and  C_22 
REMARK   15  A    between atoms: C_22  and  C_24 
ROOT
HETATM    1  C   UNK N   1      32.121  16.184   8.431  0.00  0.00     0.068 A 
HETATM    2  C   UNK N   1      34.420  16.052  10.014  0.00  0.00    -0.056 A 
HETATM    3  C   UNK N   1      32.399  15.027   9.179  0.00  0.00     0.037 A 
HETATM    4  C   UNK N   1      33.039  17.239   8.423  0.00  0.00     0.037 A 
HETATM    5  C   UNK N   1      33.548  14.958   9.964  0.00  0.00     0.010 A 
HETATM    6  C   UNK N   1      34.179  17.180   9.224  0.00  0.00     0.010 A 
ENDROOT
BRANCH   2   7
HETATM    7  C   UNK N   1      35.494  16.112  11.044  0.00  0.00     0.075 C 
BRANCH   7   8
HETATM    8  C   UNK N   1      36.165  14.745  11.307  0.00  0.00     0.194 C 
BRANCH   8   9
HETATM    9  N   UNK N   1      36.778  14.743  12.622  0.00  0.00    -0.304 N 
HETATM   10  H   UNK N   1      37.480  15.390  12.981  0.00  0.00     0.173 HD
BRANCH   9  11
HETATM   11  S   UNK N   1      36.043  13.377  13.468  0.00  0.00     0.227 S 
HETATM   12  O   UNK N   1      34.582  13.388  12.992  0.00  0.00    -0.206 OA
HETATM   13  O   UNK N   1      36.613  12.128  12.777  0.00  0.00    -0.206 OA
BRANCH  11  14
HETATM   14  C   UNK N   1      36.222  13.380  15.276  0.00  0.00     0.163 C 
BRANCH  14  15
HETATM   15  C   UNK N   1      35.905  12.015  15.841  0.00  0.00     0.016 C 
BRANCH  15  16
HETATM   16  C   UNK N   1      35.251  12.180  17.194  0.00  0.00    -0.004 C 
HETATM   17  C   UNK N   1      35.192  13.651  17.543  0.00  0.00     0.005 C 
ENDBRANCH  15  16
ENDBRANCH  14  15
ENDBRANCH  11  14
ENDBRANCH   9  11
ENDBRANCH   8   9
BRANCH   8  18
HETATM   18  C   UNK N   1      37.111  14.164  10.263  0.00  0.00     0.164 C 
HETATM   19  O   UNK N   1      36.667  13.410   9.408  0.00  0.00    -0.648 OA
BRANCH  18  20
HETATM   20  O   UNK N   1      38.423  14.465  10.247  0.00  0.00    -0.775 OA
HETATM   21  H   UNK N   1      38.824  15.051   9.637  0.00  0.00     0.167 HD
ENDBRANCH  18  20
ENDBRANCH   8  18
ENDBRANCH   7   8
ENDBRANCH   2   7
BRANCH   1  22
HETATM   22  O   UNK N   1      30.955  16.327   7.766  0.00  0.00    -0.351 OA
BRANCH  22  23
HETATM   23  C   UNK N   1      30.778  17.272   6.779  0.00  0.00     0.175 C 
BRANCH  23  24
HETATM   24  C   UNK N   1      30.911  16.638   5.407  0.00  0.00     0.027 C 
BRANCH  24  25
HETATM   25  C   UNK N   1      31.682  17.560   4.483  0.00  0.00     0.002 C 
BRANCH  25  26
HETATM   26  C   UNK N   1      33.171  17.304   4.659  0.00  0.00     0.005 C 
BRANCH  26  27
HETATM   27  C   UNK N   1      33.511  15.822   4.752  0.00  0.00    -0.012 C 
HETATM   28  C   UNK N   1      34.683  15.546   5.691  0.00  0.00     0.024 C 
HETATM   29  C   UNK N   1      34.922  14.038   5.746  0.00  0.00     0.114 C 
HETATM   30  N   UNK N   1      35.220  13.523   4.408  0.00  0.00    -0.421 N 
HETATM   31  C   UNK N   1      34.052  13.719   3.548  0.00  0.00     0.114 C 
HETATM   32  H   UNK N   1      36.099  13.095   4.122  0.00  0.00     0.153 HD
HETATM   33  C   UNK N   1      33.768  15.209   3.376  0.00  0.00     0.024 C 
ENDBRANCH  26  27
ENDBRANCH  25  26
ENDBRANCH  24  25
ENDBRANCH  23  24
ENDBRANCH  22  23
ENDBRANCH   1  22
TORSDOF 15
ENDMDL
MODEL 8
REMARK VINA RESULT:      -5.8      5.983      8.534
REMARK  15 active torsions:
REMARK  status: ('A' for Active; 'I' for Inactive)
REMARK    1  A    between atoms: S_1  and  N_8 
REMARK    2  A    between atoms: S_1  and  C_20 
REMARK    3  A    between atoms: O_2  and  C_17 
REMARK    4  A    between atoms: O_2  and  C_21 
REMARK    5  A    between atoms: O_5  and  C_29 
REMARK    6  A    between atoms: C_18  and  N_8 
REMARK    7  A    between atoms: C_9  and  C_12 
REMARK    8  A    between atoms: C_12  and  C_15 
REMARK    9  A    between atoms: C_15  and  C_16 
REMARK   10  A    between atoms: C_16  and  C_17 
REMARK   11  A    between atoms: C_18  and  C_19 
REMARK   12  A    between atoms: C_18  and  C_29 
REMARK   13  A    between atoms: C_19  and  C_23 
REMARK   14  A    between atoms: C_20  and  C_22 
REMARK   15  A    between atoms: C_22  and  C_24 
ROOT
HETATM    1  C   UNK N   1      27.554  16.532   5.693  0.00  0.00     0.068 A 
HETATM    2  C   UNK N   1      30.056  17.260   4.686  0.00  0.00    -0.056 A 
HETATM    3  C   UNK N   1      28.599  15.593   5.649  0.00  0.00     0.037 A 
HETATM    4  C   UNK N   1      27.750  17.809   5.160  0.00  0.00     0.037 A 
HETATM    5  C   UNK N   1      29.845  15.954   5.142  0.00  0.00     0.010 A 
HETATM    6  C   UNK N   1      29.003  18.178   4.671  0.00  0.00     0.010 A 
ENDROOT
BRANCH   2   7
HETATM    7  C   UNK N   1      31.435  17.744   4.401  0.00  0.00     0.075 C 
BRANCH   7   8
HETATM    8  C   UNK N   1      32.534  16.750   4.840  0.00  0.00     0.194 C 
BRANCH   8   9
HETATM    9  N   UNK N   1      33.500  17.427   5.686  0.00  0.00    -0.304 N 
HETATM   10  H   UNK N   1      34.193  18.119   5.405  0.00  0.00     0.173 HD
BRANCH   9  11
HETATM   11  S   UNK N   1      33.211  16.792   7.309  0.00  0.00     0.227 S 
HETATM   12  O   UNK N   1      32.705  15.362   7.064  0.00  0.00    -0.206 OA
HETATM   13  O   UNK N   1      34.610  16.557   7.900  0.00  0.00    -0.206 OA
BRANCH  11  14
HETATM   14  C   UNK N   1      32.111  17.786   8.361  0.00  0.00     0.163 C 
BRANCH  14  15
HETATM   15  C   UNK N   1      30.745  17.146   8.449  0.00  0.00     0.016 C 
BRANCH  15  16
HETATM   16  C   UNK N   1      29.689  18.225   8.369  0.00  0.00    -0.004 C 
HETATM   17  C   UNK N   1      28.441  17.758   9.086  0.00  0.00     0.005 C 
ENDBRANCH  15  16
ENDBRANCH  14  15
ENDBRANCH  11  14
ENDBRANCH   9  11
ENDBRANCH   8   9
BRANCH   8  18
HETATM   18  C   UNK N   1      33.233  15.897   3.789  0.00  0.00     0.164 C 
HETATM   19  O   UNK N   1      33.123  16.194   2.608  0.00  0.00    -0.648 OA
BRANCH  18  20
HETATM   20  O   UNK N   1      33.980  14.829   4.123  0.00  0.00    -0.775 OA
HETATM   21  H   UNK N   1      34.391  14.709   4.956  0.00  0.00     0.167 HD
ENDBRANCH  18  20
ENDBRANCH   8  18
ENDBRANCH   7   8
ENDBRANCH   2   7
BRANCH   1  22
HETATM   22  O   UNK N   1      26.380  16.247   6.296  0.00  0.00    -0.351 OA
BRANCH  22  23
HETATM   23  C   UNK N   1      26.071  14.984   6.752  0.00  0.00     0.175 C 
BRANCH  23  24
HETATM   24  C   UNK N   1      24.571  14.833   6.923  0.00  0.00     0.027 C 
BRANCH  24  25
HETATM   25  C   UNK N   1      24.236  13.412   7.331  0.00  0.00     0.002 C 
BRANCH  25  26
HETATM   26  C   UNK N   1      24.878  13.120   8.679  0.00  0.00     0.005 C 
BRANCH  26  27
HETATM   27  C   UNK N   1      23.861  13.013   9.809  0.00  0.00    -0.012 C 
HETATM   28  C   UNK N   1      24.296  12.040  10.902  0.00  0.00     0.024 C 
HETATM   29  C   UNK N   1      23.236  12.030  12.001  0.00  0.00     0.114 C 
HETATM   30  N   UNK N   1      21.941  11.622  11.453  0.00  0.00    -0.421 N 
HETATM   31  C   UNK N   1      21.501  12.615  10.472  0.00  0.00     0.114 C 
HETATM   32  H   UNK N   1      21.427  10.781  11.714  0.00  0.00     0.153 HD
HETATM   33  C   UNK N   1      22.469  12.653   9.292  0.00  0.00     0.024 C 
ENDBRANCH  26  27
ENDBRANCH  25  26
ENDBRANCH  24  25
ENDBRANCH  23  24
ENDBRANCH  22  23
ENDBRANCH   1  22
TORSDOF 15
ENDMDL
MODEL 9
REMARK VINA RESULT:      -5.8      6.947     11.225
REMARK  15 active torsions:
REMARK  status: ('A' for Active; 'I' for Inactive)
REMARK    1  A    between atoms: S_1  and  N_8 
REMARK    2  A    between atoms: S_1  and  C_20 
REMARK    3  A    between atoms: O_2  and  C_17 
REMARK    4  A    between atoms: O_2  and  C_21 
REMARK    5  A    between atoms: O_5  and  C_29 
REMARK    6  A    between atoms: C_18  and  N_8 
REMARK    7  A    between atoms: C_9  and  C_12 
REMARK    8  A    between atoms: C_12  and  C_15 
REMARK    9  A    between atoms: C_15  and  C_16 
REMARK   10  A    between atoms: C_16  and  C_17 
REMARK   11  A    between atoms: C_18  and  C_19 
REMARK   12  A    between atoms: C_18  and  C_29 
REMARK   13  A    between atoms: C_19  and  C_23 
REMARK   14  A    between atoms: C_20  and  C_22 
REMARK   15  A    between atoms: C_22  and  C_24 
ROOT
HETATM    1  C   UNK N   1      28.750  18.361   6.989  0.00  0.00     0.068 A 
HETATM    2  C   UNK N   1      30.745  16.844   8.225  0.00  0.00    -0.056 A 
HETATM    3  C   UNK N   1      29.026  18.536   8.356  0.00  0.00     0.037 A 
HETATM    4  C   UNK N   1      29.425  17.372   6.269  0.00  0.00     0.037 A 
HETATM    5  C   UNK N   1      30.016  17.775   8.975  0.00  0.00     0.010 A 
HETATM    6  C   UNK N   1      30.431  16.625   6.881  0.00  0.00     0.010 A 
ENDROOT
BRANCH   2   7
HETATM    7  C   UNK N   1      31.977  16.226   8.786  0.00  0.00     0.075 C 
BRANCH   7   8
HETATM    8  C   UNK N   1      33.188  16.300   7.829  0.00  0.00     0.194 C 
BRANCH   8   9
HETATM    9  N   UNK N   1      33.958  15.073   7.914  0.00  0.00    -0.304 N 
HETATM   10  H   UNK N   1      34.226  14.566   8.758  0.00  0.00     0.173 HD
BRANCH   9  11
HETATM   11  S   UNK N   1      34.329  14.647   6.241  0.00  0.00     0.227 S 
HETATM   12  O   UNK N   1      35.669  15.348   5.967  0.00  0.00    -0.206 OA
HETATM   13  O   UNK N   1      34.729  13.164   6.286  0.00  0.00    -0.206 OA
BRANCH  11  14
HETATM   14  C   UNK N   1      33.038  15.038   5.023  0.00  0.00     0.163 C 
BRANCH  14  15
HETATM   15  C   UNK N   1      33.567  16.000   3.983  0.00  0.00     0.016 C 
BRANCH  15  16
HETATM   16  C   UNK N   1      32.618  17.172   3.868  0.00  0.00    -0.004 C 
HETATM   17  C   UNK N   1      31.382  16.740   3.109  0.00  0.00     0.005 C 
ENDBRANCH  15  16
ENDBRANCH  14  15
ENDBRANCH  11  14
ENDBRANCH   9  11
ENDBRANCH   8   9
BRANCH   8  18
HETATM   18  C   UNK N   1      34.100  17.520   7.870  0.00  0.00     0.164 C 
HETATM   19  O   UNK N   1      34.462  17.959   8.952  0.00  0.00    -0.648 OA
BRANCH  18  20
HETATM   20  O   UNK N   1      34.528  18.125   6.747  0.00  0.00    -0.775 OA
HETATM   21  H   UNK N   1      35.092  18.873   6.730  0.00  0.00     0.167 HD
ENDBRANCH  18  20
ENDBRANCH   8  18
ENDBRANCH   7   8
ENDBRANCH   2   7
BRANCH   1  22
HETATM   22  O   UNK N   1      27.888  19.172   6.339  0.00  0.00    -0.351 OA
BRANCH  22  23
HETATM   23  C   UNK N   1      27.301  18.818   5.142  0.00  0.00     0.175 C 
BRANCH  23  24
HETATM   24  C   UNK N   1      27.277  20.001   4.193  0.00  0.00     0.027 C 
BRANCH  24  25
HETATM   25  C   UNK N   1      25.875  20.206   3.656  0.00  0.00     0.002 C 
BRANCH  25  26
HETATM   26  C   UNK N   1      24.963  19.132   4.229  0.00  0.00     0.005 C 
BRANCH  26  27
HETATM   27  C   UNK N   1      23.572  19.139   3.605  0.00  0.00    -0.012 C 
HETATM   28  C   UNK N   1      23.202  20.496   3.011  0.00  0.00     0.024 C 
HETATM   29  C   UNK N   1      21.815  20.392   2.380  0.00  0.00     0.114 C 
HETATM   30  N   UNK N   1      20.828  20.000   3.388  0.00  0.00    -0.421 N 
HETATM   31  C   UNK N   1      21.152  18.661   3.881  0.00  0.00     0.114 C 
HETATM   32  H   UNK N   1      20.040  20.569   3.696  0.00  0.00     0.153 HD
HETATM   33  C   UNK N   1      22.503  18.674   4.592  0.00  0.00     0.024 C 
ENDBRANCH  26  27
ENDBRANCH  25  26
ENDBRANCH  24  25
ENDBRANCH  23  24
ENDBRANCH  22  23
ENDBRANCH   1  22
TORSDOF 15
ENDMDL
