REMARK  15 active torsions:
REMARK  status: ('A' for Active; 'I' for Inactive)
REMARK    1  A    between atoms: S_1  and  N_8 
REMARK    2  A    between atoms: S_1  and  C_20 
REMARK    3  A    between atoms: O_2  and  C_17 
REMARK    4  A    between atoms: O_2  and  C_21 
REMARK    5  A    between atoms: O_5  and  C_29 
REMARK    6  A    between atoms: C_18  and  N_8 
REMARK    7  A    between atoms: C_9  and  C_12 
REMARK    8  A    between atoms: C_12  and  C_15 
REMARK    9  A    between atoms: C_15  and  C_16 
REMARK   10  A    between atoms: C_16  and  C_17 
REMARK   11  A    between atoms: C_18  and  C_19 
REMARK   12  A    between atoms: C_18  and  C_29 
REMARK   13  A    between atoms: C_19  and  C_23 
REMARK   14  A    between atoms: C_20  and  C_22 
REMARK   15  A    between atoms: C_22  and  C_24 
ROOT
HETATM    1  C   UNK N   1       5.125  -1.686  -0.042  0.00  0.00     0.068 A 
HETATM    2  C   UNK N   1       4.889   1.088   0.196  0.00  0.00    -0.056 A 
HETATM    3  C   UNK N   1       5.629  -0.845  -1.049  0.00  0.00     0.037 A 
HETATM    4  C   UNK N   1       4.438  -1.132   1.042  0.00  0.00     0.037 A 
HETATM    5  C   UNK N   1       5.506   0.538  -0.934  0.00  0.00     0.010 A 
HETATM    6  C   UNK N   1       4.333   0.253   1.169  0.00  0.00     0.010 A 
ENDROOT
BRANCH   2   7
HETATM    7  C   UNK N   1       4.990   2.547   0.473  0.00  0.00     0.075 C 
BRANCH   7   8
HETATM    8  C   UNK N   1       6.438   3.083   0.408  0.00  0.00     0.194 C 
BRANCH   8   9
HETATM    9  N   UNK N   1       6.689   3.666  -0.897  0.00  0.00    -0.304 N 
HETATM   10  H   UNK N   1       6.670   3.194  -1.801  0.00  0.00     0.173 HD
BRANCH   9  11
HETATM   11  S   UNK N   1       7.033   5.369  -0.580  0.00  0.00     0.227 S 
HETATM   12  O   UNK N   1       7.286   5.963  -1.974  0.00  0.00    -0.206 OA
HETATM   13  O   UNK N   1       5.679   5.984  -0.193  0.00  0.00    -0.206 OA
BRANCH  11  14
HETATM   14  C   UNK N   1       8.370   5.696   0.607  0.00  0.00     0.163 C 
BRANCH  14  15
HETATM   15  C   UNK N   1       9.068   6.994   0.272  0.00  0.00     0.016 C 
BRANCH  15  16
HETATM   16  C   UNK N   1      10.555   6.741   0.165  0.00  0.00    -0.004 C 
HETATM   17  C   UNK N   1      11.262   8.043  -0.142  0.00  0.00     0.005 C 
ENDBRANCH  15  16
ENDBRANCH  14  15
ENDBRANCH  11  14
ENDBRANCH   9  11
ENDBRANCH   8   9
BRANCH   8  18
HETATM   18  C   UNK N   1       7.589   2.180   0.833  0.00  0.00     0.164 C 
HETATM   19  O   UNK N   1       8.737   2.592   0.742  0.00  0.00    -0.648 OA
BRANCH  18  20
HETATM   20  O   UNK N   1       7.380   0.942   1.317  0.00  0.00    -0.775 OA
HETATM   21  H   UNK N   1       6.561   0.636   1.653  0.00  0.00     0.167 HD
ENDBRANCH  18  20
ENDBRANCH   8  18
ENDBRANCH   7   8
ENDBRANCH   2   7
BRANCH   1  22
HETATM   22  O   UNK N   1       5.344  -3.018  -0.066  0.00  0.00    -0.351 OA
BRANCH  22  23
HETATM   23  C   UNK N   1       6.214  -3.608  -0.958  0.00  0.00     0.175 C 
BRANCH  23  24
HETATM   24  C   UNK N   1       6.430  -5.067  -0.603  0.00  0.00     0.027 C 
BRANCH  24  25
HETATM   25  C   UNK N   1       5.121  -5.824  -0.704  0.00  0.00     0.002 C 
BRANCH  25  26
HETATM   26  C   UNK N   1       4.515  -5.953   0.685  0.00  0.00     0.005 C 
BRANCH  26  27
HETATM   27  C   UNK N   1       2.992  -6.008   0.665  0.00  0.00    -0.012 C 
HETATM   28  C   UNK N   1       2.457  -7.195  -0.132  0.00  0.00     0.024 C 
HETATM   29  C   UNK N   1       0.931  -7.185  -0.062  0.00  0.00     0.114 C 
HETATM   30  N   UNK N   1       0.407  -5.934  -0.613  0.00  0.00    -0.421 N 
HETATM   31  C   UNK N   1       0.860  -4.817   0.217  0.00  0.00     0.114 C 
HETATM   32  H   UNK N   1      -0.181  -5.854  -1.442  0.00  0.00     0.153 HD
HETATM   33  C   UNK N   1       2.381  -4.702   0.160  0.00  0.00     0.024 C 
ENDBRANCH  26  27
ENDBRANCH  25  26
ENDBRANCH  24  25
ENDBRANCH  23  24
ENDBRANCH  22  23
ENDBRANCH   1  22
TORSDOF 15
