MODEL 1
REMARK VINA RESULT:      -7.3      0.000      0.000
REMARK  0 active torsions:
REMARK  status: ('A' for Active; 'I' for Inactive)
REMARK       I    between atoms: N_3  and  C_15 
REMARK       I    between atoms: N_4  and  C_15 
ROOT
HETATM    1  O   UNK N   1      31.500  17.556   3.917  0.00  0.00    -0.292 OA
HETATM    2  O   UNK N   1      29.187  17.250   9.849  0.00  0.00    -0.247 OA
HETATM    3  N   UNK N   1      29.253  17.850   7.630  0.00  0.00    -0.263 N 
HETATM    4  N   UNK N   1      27.463  18.403   9.147  0.00  0.00    -0.351 N 
HETATM    5  C   UNK N   1      28.620  18.377   5.201  0.00  0.00    -0.024 A 
HETATM    6  C   UNK N   1      28.581  18.651   6.591  0.00  0.00     0.051 A 
HETATM    7  C   UNK N   1      29.320  17.237   4.637  0.00  0.00     0.125 C 
HETATM    8  C   UNK N   1      30.560  17.158   7.429  0.00  0.00     0.058 A 
HETATM    9  C   UNK N   1      31.284  17.046   6.185  0.00  0.00     0.037 A 
HETATM   10  C   UNK N   1      30.753  17.389   4.872  0.00  0.00     0.166 C 
HETATM   11  C   UNK N   1      27.917  19.171   4.285  0.00  0.00     0.010 A 
HETATM   12  C   UNK N   1      27.807  19.777   6.975  0.00  0.00     0.031 A 
HETATM   13  C   UNK N   1      31.225  16.617   8.558  0.00  0.00     0.031 A 
HETATM   14  C   UNK N   1      32.571  16.474   6.167  0.00  0.00     0.017 A 
HETATM   15  C   UNK N   1      28.664  17.825   8.911  0.00  0.00     0.325 C 
HETATM   16  C   UNK N   1      27.165  20.259   4.708  0.00  0.00     0.001 A 
HETATM   17  C   UNK N   1      27.110  20.563   6.058  0.00  0.00     0.002 A 
HETATM   18  C   UNK N   1      32.480  16.022   8.509  0.00  0.00     0.002 A 
HETATM   19  C   UNK N   1      33.165  15.968   7.313  0.00  0.00     0.001 A 
HETATM   20  H   UNK N   1      27.071  18.379  10.049  0.00  0.00     0.160 HD
HETATM   21  H   UNK N   1      26.982  18.848   8.414  0.00  0.00     0.160 HD
ENDROOT
TORSDOF 0
ENDMDL
MODEL 2
REMARK VINA RESULT:      -7.1      2.644      3.897
REMARK  0 active torsions:
REMARK  status: ('A' for Active; 'I' for Inactive)
REMARK       I    between atoms: N_3  and  C_15 
REMARK       I    between atoms: N_4  and  C_15 
ROOT
HETATM    1  O   UNK N   1      28.452  17.280   4.257  0.00  0.00    -0.292 OA
HETATM    2  O   UNK N   1      34.076  16.894   7.229  0.00  0.00    -0.247 OA
HETATM    3  N   UNK N   1      31.803  17.173   7.027  0.00  0.00    -0.263 N 
HETATM    4  N   UNK N   1      33.006  17.187   9.116  0.00  0.00    -0.351 N 
HETATM    5  C   UNK N   1      29.267  17.087   7.405  0.00  0.00    -0.024 A 
HETATM    6  C   UNK N   1      30.573  17.507   7.766  0.00  0.00     0.051 A 
HETATM    7  C   UNK N   1      28.997  16.242   6.256  0.00  0.00     0.125 C 
HETATM    8  C   UNK N   1      31.864  17.020   5.544  0.00  0.00     0.058 A 
HETATM    9  C   UNK N   1      30.741  17.032   4.637  0.00  0.00     0.037 A 
HETATM   10  C   UNK N   1      29.341  16.966   5.036  0.00  0.00     0.166 C 
HETATM   11  C   UNK N   1      28.155  17.418   8.190  0.00  0.00     0.010 A 
HETATM   12  C   UNK N   1      30.663  18.286   8.949  0.00  0.00     0.031 A 
HETATM   13  C   UNK N   1      33.134  16.933   4.920  0.00  0.00     0.031 A 
HETATM   14  C   UNK N   1      30.958  17.005   3.245  0.00  0.00     0.017 A 
HETATM   15  C   UNK N   1      33.001  17.093   7.766  0.00  0.00     0.325 C 
HETATM   16  C   UNK N   1      28.293  18.177   9.345  0.00  0.00     0.001 A 
HETATM   17  C   UNK N   1      29.552  18.613   9.725  0.00  0.00     0.002 A 
HETATM   18  C   UNK N   1      33.322  16.869   3.545  0.00  0.00     0.002 A 
HETATM   19  C   UNK N   1      32.230  16.925   2.702  0.00  0.00     0.001 A 
HETATM   20  H   UNK N   1      33.853  17.133   9.613  0.00  0.00     0.160 HD
HETATM   21  H   UNK N   1      32.159  17.310   9.601  0.00  0.00     0.160 HD
ENDROOT
TORSDOF 0
ENDMDL
MODEL 3
REMARK VINA RESULT:      -7.1     11.193     13.339
REMARK  0 active torsions:
REMARK  status: ('A' for Active; 'I' for Inactive)
REMARK       I    between atoms: N_3  and  C_15 
REMARK       I    between atoms: N_4  and  C_15 
ROOT
HETATM    1  O   UNK N   1      35.147   9.193  14.820  0.00  0.00    -0.292 OA
HETATM    2  O   UNK N   1      35.152  13.206  19.772  0.00  0.00    -0.247 OA
HETATM    3  N   UNK N   1      35.307  12.559  17.571  0.00  0.00    -0.263 N 
HETATM    4  N   UNK N   1      35.455  14.837  18.343  0.00  0.00    -0.351 N 
HETATM    5  C   UNK N   1      35.104  12.445  15.017  0.00  0.00    -0.024 A 
HETATM    6  C   UNK N   1      35.603  13.032  16.207  0.00  0.00     0.051 A 
HETATM    7  C   UNK N   1      34.208  11.304  15.011  0.00  0.00     0.125 C 
HETATM    8  C   UNK N   1      35.107  11.123  17.926  0.00  0.00     0.058 A 
HETATM    9  C   UNK N   1      35.030  10.017  17.001  0.00  0.00     0.037 A 
HETATM   10  C   UNK N   1      34.906  10.142  15.555  0.00  0.00     0.166 C 
HETATM   11  C   UNK N   1      35.405  12.986  13.759  0.00  0.00     0.010 A 
HETATM   12  C   UNK N   1      36.426  14.175  16.032  0.00  0.00     0.031 A 
HETATM   13  C   UNK N   1      35.063  10.760  19.296  0.00  0.00     0.031 A 
HETATM   14  C   UNK N   1      34.966   8.696  17.485  0.00  0.00     0.017 A 
HETATM   15  C   UNK N   1      35.314  13.517  18.605  0.00  0.00     0.325 C 
HETATM   16  C   UNK N   1      36.209  14.112  13.637  0.00  0.00     0.001 A 
HETATM   17  C   UNK N   1      36.722  14.708  14.778  0.00  0.00     0.002 A 
HETATM   18  C   UNK N   1      34.961   9.450  19.750  0.00  0.00     0.002 A 
HETATM   19  C   UNK N   1      34.932   8.412  18.841  0.00  0.00     0.001 A 
HETATM   20  H   UNK N   1      35.462  15.490  19.079  0.00  0.00     0.160 HD
HETATM   21  H   UNK N   1      35.552  15.144  17.414  0.00  0.00     0.160 HD
ENDROOT
TORSDOF 0
ENDMDL
MODEL 4
REMARK VINA RESULT:      -7.0      7.792      9.302
REMARK  0 active torsions:
REMARK  status: ('A' for Active; 'I' for Inactive)
REMARK       I    between atoms: N_3  and  C_15 
REMARK       I    between atoms: N_4  and  C_15 
ROOT
HETATM    1  O   UNK N   1      19.227  14.201   9.798  0.00  0.00    -0.292 OA
HETATM    2  O   UNK N   1      25.272  13.512   7.901  0.00  0.00    -0.247 OA
HETATM    3  N   UNK N   1      23.092  14.234   7.803  0.00  0.00    -0.263 N 
HETATM    4  N   UNK N   1      24.794  14.791   6.190  0.00  0.00    -0.351 N 
HETATM    5  C   UNK N   1      20.977  15.646   7.460  0.00  0.00    -0.024 A 
HETATM    6  C   UNK N   1      22.108  14.946   6.968  0.00  0.00     0.051 A 
HETATM    7  C   UNK N   1      20.672  15.761   8.874  0.00  0.00     0.125 C 
HETATM    8  C   UNK N   1      22.746  13.526   9.071  0.00  0.00     0.058 A 
HETATM    9  C   UNK N   1      21.465  13.544   9.737  0.00  0.00     0.037 A 
HETATM   10  C   UNK N   1      20.363  14.438   9.409  0.00  0.00     0.166 C 
HETATM   11  C   UNK N   1      20.113  16.330   6.594  0.00  0.00     0.010 A 
HETATM   12  C   UNK N   1      22.285  14.977   5.560  0.00  0.00     0.031 A 
HETATM   13  C   UNK N   1      23.717  12.682   9.665  0.00  0.00     0.031 A 
HETATM   14  C   UNK N   1      21.245  12.725  10.861  0.00  0.00     0.017 A 
HETATM   15  C   UNK N   1      24.410  14.142   7.314  0.00  0.00     0.325 C 
HETATM   16  C   UNK N   1      20.332  16.339   5.223  0.00  0.00     0.001 A 
HETATM   17  C   UNK N   1      21.422  15.660   4.704  0.00  0.00     0.002 A 
HETATM   18  C   UNK N   1      23.487  11.911  10.798  0.00  0.00     0.002 A 
HETATM   19  C   UNK N   1      22.240  11.917  11.388  0.00  0.00     0.001 A 
HETATM   20  H   UNK N   1      25.718  14.710   5.862  0.00  0.00     0.160 HD
HETATM   21  H   UNK N   1      24.146  15.344   5.699  0.00  0.00     0.160 HD
ENDROOT
TORSDOF 0
ENDMDL
MODEL 5
REMARK VINA RESULT:      -6.7      2.209      4.963
REMARK  0 active torsions:
REMARK  status: ('A' for Active; 'I' for Inactive)
REMARK       I    between atoms: N_3  and  C_15 
REMARK       I    between atoms: N_4  and  C_15 
ROOT
HETATM    1  O   UNK N   1      32.607  16.466   8.768  0.00  0.00    -0.292 OA
HETATM    2  O   UNK N   1      27.910  18.000   4.741  0.00  0.00    -0.247 OA
HETATM    3  N   UNK N   1      29.960  17.188   5.392  0.00  0.00    -0.263 N 
HETATM    4  N   UNK N   1      29.134  17.169   3.128  0.00  0.00    -0.351 N 
HETATM    5  C   UNK N   1      32.091  15.777   5.626  0.00  0.00    -0.024 A 
HETATM    6  C   UNK N   1      31.241  16.650   4.899  0.00  0.00     0.051 A 
HETATM    7  C   UNK N   1      31.773  15.288   6.955  0.00  0.00     0.125 C 
HETATM    8  C   UNK N   1      29.699  17.527   6.822  0.00  0.00     0.058 A 
HETATM    9  C   UNK N   1      30.575  17.259   7.938  0.00  0.00     0.037 A 
HETATM   10  C   UNK N   1      31.757  16.410   7.889  0.00  0.00     0.166 C 
HETATM   11  C   UNK N   1      33.274  15.282   5.063  0.00  0.00     0.010 A 
HETATM   12  C   UNK N   1      31.680  16.989   3.593  0.00  0.00     0.031 A 
HETATM   13  C   UNK N   1      28.525  18.253   7.145  0.00  0.00     0.031 A 
HETATM   14  C   UNK N   1      30.255  17.750   9.219  0.00  0.00     0.017 A 
HETATM   15  C   UNK N   1      28.971  17.485   4.434  0.00  0.00     0.325 C 
HETATM   16  C   UNK N   1      33.659  15.634   3.776  0.00  0.00     0.001 A 
HETATM   17  C   UNK N   1      32.859  16.492   3.039  0.00  0.00     0.002 A 
HETATM   18  C   UNK N   1      28.212  18.695   8.425  0.00  0.00     0.002 A 
HETATM   19  C   UNK N   1      29.091  18.460   9.463  0.00  0.00     0.001 A 
HETATM   20  H   UNK N   1      28.434  17.389   2.473  0.00  0.00     0.160 HD
HETATM   21  H   UNK N   1      29.958  16.718   2.833  0.00  0.00     0.160 HD
ENDROOT
TORSDOF 0
ENDMDL
MODEL 6
REMARK VINA RESULT:      -6.7     11.207     13.168
REMARK  0 active torsions:
REMARK  status: ('A' for Active; 'I' for Inactive)
REMARK       I    between atoms: N_3  and  C_15 
REMARK       I    between atoms: N_4  and  C_15 
ROOT
HETATM    1  O   UNK N   1      34.946   9.476  17.464  0.00  0.00    -0.292 OA
HETATM    2  O   UNK N   1      36.624  14.767  14.332  0.00  0.00    -0.247 OA
HETATM    3  N   UNK N   1      36.275  12.518  14.652  0.00  0.00    -0.263 N 
HETATM    4  N   UNK N   1      37.035  13.507  12.590  0.00  0.00    -0.351 N 
HETATM    5  C   UNK N   1      35.638  10.053  14.333  0.00  0.00    -0.024 A 
HETATM    6  C   UNK N   1      36.439  11.186  14.042  0.00  0.00     0.051 A 
HETATM    7  C   UNK N   1      34.528  10.087  15.267  0.00  0.00     0.125 C 
HETATM    8  C   UNK N   1      35.830  12.735  16.061  0.00  0.00     0.058 A 
HETATM    9  C   UNK N   1      35.367  11.719  16.976  0.00  0.00     0.037 A 
HETATM   10  C   UNK N   1      35.039  10.348  16.610  0.00  0.00     0.166 C 
HETATM   11  C   UNK N   1      35.840   8.833  13.673  0.00  0.00     0.010 A 
HETATM   12  C   UNK N   1      37.450  10.991  13.064  0.00  0.00     0.031 A 
HETATM   13  C   UNK N   1      35.933  14.036  16.614  0.00  0.00     0.031 A 
HETATM   14  C   UNK N   1      35.099  12.050  18.319  0.00  0.00     0.017 A 
HETATM   15  C   UNK N   1      36.657  13.635  13.883  0.00  0.00     0.325 C 
HETATM   16  C   UNK N   1      36.837   8.691  12.717  0.00  0.00     0.001 A 
HETATM   17  C   UNK N   1      37.645   9.774  12.412  0.00  0.00     0.002 A 
HETATM   18  C   UNK N   1      35.627  14.346  17.934  0.00  0.00     0.002 A 
HETATM   19  C   UNK N   1      35.227  13.345  18.795  0.00  0.00     0.001 A 
HETATM   20  H   UNK N   1      37.302  14.298  12.071  0.00  0.00     0.160 HD
HETATM   21  H   UNK N   1      37.042  12.617  12.168  0.00  0.00     0.160 HD
ENDROOT
TORSDOF 0
ENDMDL
MODEL 7
REMARK VINA RESULT:      -6.7      6.147      8.118
REMARK  0 active torsions:
REMARK  status: ('A' for Active; 'I' for Inactive)
REMARK       I    between atoms: N_3  and  C_15 
REMARK       I    between atoms: N_4  and  C_15 
ROOT
HETATM    1  O   UNK N   1      24.988  16.068   5.023  0.00  0.00    -0.292 OA
HETATM    2  O   UNK N   1      22.630  21.520   2.713  0.00  0.00    -0.247 OA
HETATM    3  N   UNK N   1      22.593  19.348   3.466  0.00  0.00    -0.263 N 
HETATM    4  N   UNK N   1      20.647  20.595   2.782  0.00  0.00    -0.351 N 
HETATM    5  C   UNK N   1      21.942  17.151   4.619  0.00  0.00    -0.024 A 
HETATM    6  C   UNK N   1      21.735  18.164   3.649  0.00  0.00     0.051 A 
HETATM    7  C   UNK N   1      23.032  17.182   5.576  0.00  0.00     0.125 C 
HETATM    8  C   UNK N   1      24.070  19.343   3.682  0.00  0.00     0.058 A 
HETATM    9  C   UNK N   1      24.850  18.256   4.224  0.00  0.00     0.037 A 
HETATM   10  C   UNK N   1      24.301  17.068   4.863  0.00  0.00     0.166 C 
HETATM   11  C   UNK N   1      21.050  16.077   4.749  0.00  0.00     0.010 A 
HETATM   12  C   UNK N   1      20.590  18.002   2.826  0.00  0.00     0.031 A 
HETATM   13  C   UNK N   1      24.824  20.464   3.252  0.00  0.00     0.031 A 
HETATM   14  C   UNK N   1      26.256  18.344   4.253  0.00  0.00     0.017 A 
HETATM   15  C   UNK N   1      21.986  20.517   2.964  0.00  0.00     0.325 C 
HETATM   16  C   UNK N   1      19.937  15.965   3.926  0.00  0.00     0.001 A 
HETATM   17  C   UNK N   1      19.707  16.932   2.960  0.00  0.00     0.002 A 
HETATM   18  C   UNK N   1      26.210  20.543   3.326  0.00  0.00     0.002 A 
HETATM   19  C   UNK N   1      26.930  19.470   3.810  0.00  0.00     0.001 A 
HETATM   20  H   UNK N   1      20.243  21.418   2.426  0.00  0.00     0.160 HD
HETATM   21  H   UNK N   1      20.077  19.825   3.005  0.00  0.00     0.160 HD
ENDROOT
TORSDOF 0
ENDMDL
MODEL 8
REMARK VINA RESULT:      -6.6     11.948     14.424
REMARK  0 active torsions:
REMARK  status: ('A' for Active; 'I' for Inactive)
REMARK       I    between atoms: N_3  and  C_15 
REMARK       I    between atoms: N_4  and  C_15 
ROOT
HETATM    1  O   UNK N   1      25.918  23.165  -5.946  0.00  0.00    -0.292 OA
HETATM    2  O   UNK N   1      29.385  28.055  -3.780  0.00  0.00    -0.247 OA
HETATM    3  N   UNK N   1      28.893  25.865  -4.279  0.00  0.00    -0.263 N 
HETATM    4  N   UNK N   1      30.981  26.622  -3.342  0.00  0.00    -0.351 N 
HETATM    5  C   UNK N   1      29.037  23.419  -5.038  0.00  0.00    -0.024 A 
HETATM    6  C   UNK N   1      29.374  24.478  -4.156  0.00  0.00     0.051 A 
HETATM    7  C   UNK N   1      28.182  23.596  -6.197  0.00  0.00     0.125 C 
HETATM    8  C   UNK N   1      27.540  26.232  -4.792  0.00  0.00     0.058 A 
HETATM    9  C   UNK N   1      26.571  25.329  -5.367  0.00  0.00     0.037 A 
HETATM   10  C   UNK N   1      26.837  23.950  -5.753  0.00  0.00     0.166 C 
HETATM   11  C   UNK N   1      29.573  22.135  -4.869  0.00  0.00     0.010 A 
HETATM   12  C   UNK N   1      30.263  24.141  -3.103  0.00  0.00     0.031 A 
HETATM   13  C   UNK N   1      27.097  27.571  -4.646  0.00  0.00     0.031 A 
HETATM   14  C   UNK N   1      25.282  25.794  -5.694  0.00  0.00     0.017 A 
HETATM   15  C   UNK N   1      29.730  26.887  -3.787  0.00  0.00     0.325 C 
HETATM   16  C   UNK N   1      30.448  21.855  -3.827  0.00  0.00     0.001 A 
HETATM   17  C   UNK N   1      30.793  22.862  -2.941  0.00  0.00     0.002 A 
HETATM   18  C   UNK N   1      25.831  28.014  -5.011  0.00  0.00     0.002 A 
HETATM   19  C   UNK N   1      24.913  27.118  -5.519  0.00  0.00     0.001 A 
HETATM   20  H   UNK N   1      31.548  27.348  -2.998  0.00  0.00     0.160 HD
HETATM   21  H   UNK N   1      31.322  25.699  -3.361  0.00  0.00     0.160 HD
ENDROOT
TORSDOF 0
ENDMDL
MODEL 9
REMARK VINA RESULT:      -6.6     11.414     13.105
REMARK  0 active torsions:
REMARK  status: ('A' for Active; 'I' for Inactive)
REMARK       I    between atoms: N_3  and  C_15 
REMARK       I    between atoms: N_4  and  C_15 
ROOT
HETATM    1  O   UNK N   1      30.364  23.417  -1.922  0.00  0.00    -0.292 OA
HETATM    2  O   UNK N   1      29.005  21.429  -7.823  0.00  0.00    -0.247 OA
HETATM    3  N   UNK N   1      28.778  22.673  -5.903  0.00  0.00    -0.263 N 
HETATM    4  N   UNK N   1      27.416  22.934  -7.875  0.00  0.00    -0.351 N 
HETATM    5  C   UNK N   1      28.395  24.587  -4.239  0.00  0.00    -0.024 A 
HETATM    6  C   UNK N   1      27.938  23.677  -5.225  0.00  0.00     0.051 A 
HETATM    7  C   UNK N   1      29.776  24.648  -3.796  0.00  0.00     0.125 C 
HETATM    8  C   UNK N   1      29.914  21.962  -5.246  0.00  0.00     0.058 A 
HETATM    9  C   UNK N   1      30.448  22.236  -3.933  0.00  0.00     0.037 A 
HETATM   10  C   UNK N   1      30.119  23.399  -3.121  0.00  0.00     0.166 C 
HETATM   11  C   UNK N   1      27.534  25.538  -3.674  0.00  0.00     0.010 A 
HETATM   12  C   UNK N   1      26.568  23.788  -5.578  0.00  0.00     0.031 A 
HETATM   13  C   UNK N   1      30.499  20.855  -5.910  0.00  0.00     0.031 A 
HETATM   14  C   UNK N   1      31.442  21.399  -3.388  0.00  0.00     0.017 A 
HETATM   15  C   UNK N   1      28.414  22.302  -7.213  0.00  0.00     0.325 C 
HETATM   16  C   UNK N   1      26.201  25.615  -4.057  0.00  0.00     0.001 A 
HETATM   17  C   UNK N   1      25.717  24.737  -5.012  0.00  0.00     0.002 A 
HETATM   18  C   UNK N   1      31.506  20.066  -5.367  0.00  0.00     0.002 A 
HETATM   19  C   UNK N   1      31.966  20.327  -4.092  0.00  0.00     0.001 A 
HETATM   20  H   UNK N   1      27.174  22.657  -8.787  0.00  0.00     0.160 HD
HETATM   21  H   UNK N   1      26.931  23.672  -7.440  0.00  0.00     0.160 HD
ENDROOT
TORSDOF 0
ENDMDL
