MODEL 1
REMARK VINA RESULT:      -6.5      0.000      0.000
REMARK  5 active torsions:
REMARK  status: ('A' for Active; 'I' for Inactive)
REMARK    1  A    between atoms: N_3  and  C_6 
REMARK    2  A    between atoms: N_4  and  C_5 
REMARK    3  A    between atoms: C_5  and  C_6 
REMARK    4  A    between atoms: C_16  and  C_22 
REMARK    5  A    between atoms: C_22  and  C_23 
ROOT
HETATM    1  S   UNK N   1      26.366  23.463  -7.799  0.00  0.00    -0.086 SA
HETATM    2  N   UNK N   1      28.081  23.759  -5.103  0.00  0.00    -0.343 N 
HETATM    3  C   UNK N   1      27.156  24.810  -5.441  0.00  0.00     0.053 A 
HETATM    4  C   UNK N   1      28.468  22.745  -6.052  0.00  0.00     0.052 A 
HETATM    5  C   UNK N   1      26.371  24.789  -6.620  0.00  0.00     0.032 A 
HETATM    6  C   UNK N   1      27.820  22.573  -7.301  0.00  0.00     0.032 A 
HETATM    7  C   UNK N   1      27.016  25.921  -4.582  0.00  0.00     0.046 A 
HETATM    8  C   UNK N   1      29.533  21.878  -5.753  0.00  0.00     0.031 A 
HETATM    9  C   UNK N   1      26.131  26.974  -4.870  0.00  0.00     0.012 A 
HETATM   10  C   UNK N   1      25.475  25.826  -6.885  0.00  0.00     0.022 A 
HETATM   11  C   UNK N   1      28.265  21.591  -8.194  0.00  0.00     0.021 A 
HETATM   12  C   UNK N   1      25.353  26.906  -6.024  0.00  0.00     0.016 A 
HETATM   13  C   UNK N   1      29.976  20.912  -6.654  0.00  0.00     0.002 A 
HETATM   14  C   UNK N   1      29.346  20.774  -7.883  0.00  0.00     0.002 A 
ENDROOT
BRANCH   2  15
HETATM   15  C   UNK N   1      28.492  23.630  -3.694  0.00  0.00     0.164 C 
BRANCH  15  16
HETATM   16  C   UNK N   1      29.878  24.173  -3.244  0.00  0.00     0.236 C 
HETATM   17  C   UNK N   1      30.815  23.131  -2.646  0.00  0.00     0.044 C 
BRANCH  16  18
HETATM   18  N   UNK N   1      30.535  25.070  -4.204  0.00  0.00     0.085 N 
HETATM   19  C   UNK N   1      31.852  24.539  -4.539  0.00  0.00     0.310 C 
HETATM   20  C   UNK N   1      30.817  26.327  -3.530  0.00  0.00     0.310 C 
ENDBRANCH  16  18
ENDBRANCH  15  16
ENDBRANCH   2  15
BRANCH   9  21
HETATM   21  C   UNK N   1      26.026  28.150  -3.971  0.00  0.00     0.159 C 
HETATM   22  O   UNK N   1      25.491  28.033  -2.879  0.00  0.00    -0.292 OA
BRANCH  21  23
HETATM   23  C   UNK N   1      26.536  29.503  -4.382  0.00  0.00     0.079 C 
HETATM   24  C   UNK N   1      27.639  29.402  -5.421  0.00  0.00     0.013 C 
ENDBRANCH  21  23
ENDBRANCH   9  21
TORSDOF 5
ENDMDL
MODEL 2
REMARK VINA RESULT:      -6.3      2.424      5.966
REMARK  5 active torsions:
REMARK  status: ('A' for Active; 'I' for Inactive)
REMARK    1  A    between atoms: N_3  and  C_6 
REMARK    2  A    between atoms: N_4  and  C_5 
REMARK    3  A    between atoms: C_5  and  C_6 
REMARK    4  A    between atoms: C_16  and  C_22 
REMARK    5  A    between atoms: C_22  and  C_23 
ROOT
HETATM    1  S   UNK N   1      25.864  24.759  -7.488  0.00  0.00    -0.086 SA
HETATM    2  N   UNK N   1      28.263  24.543  -5.367  0.00  0.00    -0.343 N 
HETATM    3  C   UNK N   1      28.072  23.456  -6.293  0.00  0.00     0.053 A 
HETATM    4  C   UNK N   1      27.264  25.566  -5.170  0.00  0.00     0.052 A 
HETATM    5  C   UNK N   1      27.028  23.441  -7.250  0.00  0.00     0.032 A 
HETATM    6  C   UNK N   1      26.131  25.706  -6.010  0.00  0.00     0.032 A 
HETATM    7  C   UNK N   1      28.942  22.346  -6.256  0.00  0.00     0.046 A 
HETATM    8  C   UNK N   1      27.396  26.473  -4.105  0.00  0.00     0.031 A 
HETATM    9  C   UNK N   1      28.793  21.259  -7.134  0.00  0.00     0.012 A 
HETATM   10  C   UNK N   1      26.904  22.369  -8.137  0.00  0.00     0.022 A 
HETATM   11  C   UNK N   1      25.180  26.699  -5.746  0.00  0.00     0.021 A 
HETATM   12  C   UNK N   1      27.773  21.290  -8.083  0.00  0.00     0.016 A 
HETATM   13  C   UNK N   1      26.437  27.450  -3.844  0.00  0.00     0.002 A 
HETATM   14  C   UNK N   1      25.320  27.557  -4.661  0.00  0.00     0.002 A 
ENDROOT
BRANCH   2  15
HETATM   15  C   UNK N   1      29.591  24.695  -4.749  0.00  0.00     0.164 C 
BRANCH  15  16
HETATM   16  C   UNK N   1      29.848  24.120  -3.327  0.00  0.00     0.236 C 
HETATM   17  C   UNK N   1      28.675  23.363  -2.715  0.00  0.00     0.044 C 
BRANCH  16  18
HETATM   18  N   UNK N   1      31.139  23.437  -3.158  0.00  0.00     0.085 N 
HETATM   19  C   UNK N   1      31.929  23.588  -4.375  0.00  0.00     0.310 C 
HETATM   20  C   UNK N   1      30.887  22.007  -3.071  0.00  0.00     0.310 C 
ENDBRANCH  16  18
ENDBRANCH  15  16
ENDBRANCH   2  15
BRANCH   9  21
HETATM   21  C   UNK N   1      29.697  20.085  -7.055  0.00  0.00     0.159 C 
HETATM   22  O   UNK N   1      30.755  20.172  -6.449  0.00  0.00    -0.292 OA
BRANCH  21  23
HETATM   23  C   UNK N   1      29.361  18.785  -7.731  0.00  0.00     0.079 C 
HETATM   24  C   UNK N   1      30.237  18.534  -8.945  0.00  0.00     0.013 C 
ENDBRANCH  21  23
ENDBRANCH   9  21
TORSDOF 5
ENDMDL
MODEL 3
REMARK VINA RESULT:      -6.2     12.728     14.894
REMARK  5 active torsions:
REMARK  status: ('A' for Active; 'I' for Inactive)
REMARK    1  A    between atoms: N_3  and  C_6 
REMARK    2  A    between atoms: N_4  and  C_5 
REMARK    3  A    between atoms: C_5  and  C_6 
REMARK    4  A    between atoms: C_16  and  C_22 
REMARK    5  A    between atoms: C_22  and  C_23 
ROOT
HETATM    1  S   UNK N   1      28.007  17.125   6.900  0.00  0.00    -0.086 SA
HETATM    2  N   UNK N   1      30.360  16.043   5.006  0.00  0.00    -0.343 N 
HETATM    3  C   UNK N   1      30.724  16.720   6.224  0.00  0.00     0.053 A 
HETATM    4  C   UNK N   1      29.019  16.088   4.475  0.00  0.00     0.052 A 
HETATM    5  C   UNK N   1      29.763  17.258   7.116  0.00  0.00     0.032 A 
HETATM    6  C   UNK N   1      27.921  16.608   5.204  0.00  0.00     0.032 A 
HETATM    7  C   UNK N   1      32.086  16.874   6.559  0.00  0.00     0.046 A 
HETATM    8  C   UNK N   1      28.765  15.605   3.180  0.00  0.00     0.031 A 
HETATM    9  C   UNK N   1      32.491  17.531   7.733  0.00  0.00     0.012 A 
HETATM   10  C   UNK N   1      30.174  17.885   8.294  0.00  0.00     0.022 A 
HETATM   11  C   UNK N   1      26.649  16.654   4.620  0.00  0.00     0.021 A 
HETATM   12  C   UNK N   1      31.519  18.022   8.602  0.00  0.00     0.016 A 
HETATM   13  C   UNK N   1      27.498  15.667   2.603  0.00  0.00     0.002 A 
HETATM   14  C   UNK N   1      26.438  16.203   3.322  0.00  0.00     0.002 A 
ENDROOT
BRANCH   2  15
HETATM   15  C   UNK N   1      31.352  15.140   4.397  0.00  0.00     0.164 C 
BRANCH  15  16
HETATM   16  C   UNK N   1      32.135  15.597   3.133  0.00  0.00     0.236 C 
HETATM   17  C   UNK N   1      32.239  17.106   2.949  0.00  0.00     0.044 C 
BRANCH  16  18
HETATM   18  N   UNK N   1      33.402  14.889   2.898  0.00  0.00     0.085 N 
HETATM   19  C   UNK N   1      33.121  13.513   2.504  0.00  0.00     0.310 C 
HETATM   20  C   UNK N   1      34.093  14.763   4.171  0.00  0.00     0.310 C 
ENDBRANCH  16  18
ENDBRANCH  15  16
ENDBRANCH   2  15
BRANCH   9  21
HETATM   21  C   UNK N   1      33.929  17.713   8.047  0.00  0.00     0.159 C 
HETATM   22  O   UNK N   1      34.643  18.344   7.282  0.00  0.00    -0.292 OA
BRANCH  21  23
HETATM   23  C   UNK N   1      34.548  17.113   9.279  0.00  0.00     0.079 C 
HETATM   24  C   UNK N   1      34.262  15.626   9.391  0.00  0.00     0.013 C 
ENDBRANCH  21  23
ENDBRANCH   9  21
TORSDOF 5
ENDMDL
MODEL 4
REMARK VINA RESULT:      -6.2      2.833      6.398
REMARK  5 active torsions:
REMARK  status: ('A' for Active; 'I' for Inactive)
REMARK    1  A    between atoms: N_3  and  C_6 
REMARK    2  A    between atoms: N_4  and  C_5 
REMARK    3  A    between atoms: C_5  and  C_6 
REMARK    4  A    between atoms: C_16  and  C_22 
REMARK    5  A    between atoms: C_22  and  C_23 
ROOT
HETATM    1  S   UNK N   1      26.727  24.677  -3.411  0.00  0.00    -0.086 SA
HETATM    2  N   UNK N   1      28.499  23.775  -5.929  0.00  0.00    -0.343 N 
HETATM    3  C   UNK N   1      28.979  23.456  -4.609  0.00  0.00     0.053 A 
HETATM    4  C   UNK N   1      27.426  24.715  -6.148  0.00  0.00     0.052 A 
HETATM    5  C   UNK N   1      28.287  23.832  -3.432  0.00  0.00     0.032 A 
HETATM    6  C   UNK N   1      26.627  25.227  -5.096  0.00  0.00     0.032 A 
HETATM    7  C   UNK N   1      30.192  22.750  -4.458  0.00  0.00     0.046 A 
HETATM    8  C   UNK N   1      27.144  25.160  -7.451  0.00  0.00     0.031 A 
HETATM    9  C   UNK N   1      30.704  22.420  -3.192  0.00  0.00     0.012 A 
HETATM   10  C   UNK N   1      28.789  23.476  -2.178  0.00  0.00     0.022 A 
HETATM   11  C   UNK N   1      25.621  26.162  -5.370  0.00  0.00     0.021 A 
HETATM   12  C   UNK N   1      29.982  22.779  -2.056  0.00  0.00     0.016 A 
HETATM   13  C   UNK N   1      26.149  26.101  -7.711  0.00  0.00     0.002 A 
HETATM   14  C   UNK N   1      25.392  26.612  -6.665  0.00  0.00     0.002 A 
ENDROOT
BRANCH   2  15
HETATM   15  C   UNK N   1      29.008  22.978  -7.058  0.00  0.00     0.164 C 
BRANCH  15  16
HETATM   16  C   UNK N   1      28.484  21.530  -7.277  0.00  0.00     0.236 C 
HETATM   17  C   UNK N   1      27.559  21.353  -8.475  0.00  0.00     0.044 C 
BRANCH  16  18
HETATM   18  N   UNK N   1      29.502  20.477  -7.161  0.00  0.00     0.085 N 
HETATM   19  C   UNK N   1      30.772  20.974  -7.680  0.00  0.00     0.310 C 
HETATM   20  C   UNK N   1      29.143  19.398  -8.067  0.00  0.00     0.310 C 
ENDBRANCH  16  18
ENDBRANCH  15  16
ENDBRANCH   2  15
BRANCH   9  21
HETATM   21  C   UNK N   1      31.999  21.709  -3.055  0.00  0.00     0.159 C 
HETATM   22  O   UNK N   1      32.526  21.613  -1.957  0.00  0.00    -0.292 OA
BRANCH  21  23
HETATM   23  C   UNK N   1      32.705  21.123  -4.245  0.00  0.00     0.079 C 
HETATM   24  C   UNK N   1      33.748  20.097  -3.838  0.00  0.00     0.013 C 
ENDBRANCH  21  23
ENDBRANCH   9  21
TORSDOF 5
ENDMDL
MODEL 5
REMARK VINA RESULT:      -6.1     11.915     15.087
REMARK  5 active torsions:
REMARK  status: ('A' for Active; 'I' for Inactive)
REMARK    1  A    between atoms: N_3  and  C_6 
REMARK    2  A    between atoms: N_4  and  C_5 
REMARK    3  A    between atoms: C_5  and  C_6 
REMARK    4  A    between atoms: C_16  and  C_22 
REMARK    5  A    between atoms: C_22  and  C_23 
ROOT
HETATM    1  S   UNK N   1      28.418  18.762   8.256  0.00  0.00    -0.086 SA
HETATM    2  N   UNK N   1      28.990  17.653   5.300  0.00  0.00    -0.343 N 
HETATM    3  C   UNK N   1      29.789  17.143   6.385  0.00  0.00     0.053 A 
HETATM    4  C   UNK N   1      28.163  18.826   5.443  0.00  0.00     0.052 A 
HETATM    5  C   UNK N   1      29.634  17.585   7.722  0.00  0.00     0.032 A 
HETATM    6  C   UNK N   1      27.902  19.434   6.696  0.00  0.00     0.032 A 
HETATM    7  C   UNK N   1      30.777  16.169   6.128  0.00  0.00     0.046 A 
HETATM    8  C   UNK N   1      27.581  19.412   4.306  0.00  0.00     0.031 A 
HETATM    9  C   UNK N   1      31.584  15.645   7.152  0.00  0.00     0.012 A 
HETATM   10  C   UNK N   1      30.422  17.039   8.737  0.00  0.00     0.022 A 
HETATM   11  C   UNK N   1      27.117  20.592   6.764  0.00  0.00     0.021 A 
HETATM   12  C   UNK N   1      31.385  16.081   8.460  0.00  0.00     0.016 A 
HETATM   13  C   UNK N   1      26.812  20.572   4.383  0.00  0.00     0.002 A 
HETATM   14  C   UNK N   1      26.587  21.169   5.617  0.00  0.00     0.002 A 
ENDROOT
BRANCH   2  15
HETATM   15  C   UNK N   1      28.892  16.840   4.076  0.00  0.00     0.164 C 
BRANCH  15  16
HETATM   16  C   UNK N   1      27.707  15.848   3.903  0.00  0.00     0.236 C 
HETATM   17  C   UNK N   1      27.182  15.238   5.198  0.00  0.00     0.044 C 
BRANCH  16  18
HETATM   18  N   UNK N   1      26.644  16.303   2.996  0.00  0.00     0.085 N 
HETATM   19  C   UNK N   1      25.390  16.404   3.734  0.00  0.00     0.310 C 
HETATM   20  C   UNK N   1      26.401  15.253   2.020  0.00  0.00     0.310 C 
ENDBRANCH  16  18
ENDBRANCH  15  16
ENDBRANCH   2  15
BRANCH   9  21
HETATM   21  C   UNK N   1      32.643  14.648   6.854  0.00  0.00     0.159 C 
HETATM   22  O   UNK N   1      32.528  13.501   7.260  0.00  0.00    -0.292 OA
BRANCH  21  23
HETATM   23  C   UNK N   1      33.879  15.019   6.085  0.00  0.00     0.079 C 
HETATM   24  C   UNK N   1      34.589  16.216   6.693  0.00  0.00     0.013 C 
ENDBRANCH  21  23
ENDBRANCH   9  21
TORSDOF 5
ENDMDL
MODEL 6
REMARK VINA RESULT:      -6.0     13.088     15.050
REMARK  5 active torsions:
REMARK  status: ('A' for Active; 'I' for Inactive)
REMARK    1  A    between atoms: N_3  and  C_6 
REMARK    2  A    between atoms: N_4  and  C_5 
REMARK    3  A    between atoms: C_5  and  C_6 
REMARK    4  A    between atoms: C_16  and  C_22 
REMARK    5  A    between atoms: C_22  and  C_23 
ROOT
HETATM    1  S   UNK N   1      23.974  14.465   6.564  0.00  0.00    -0.086 SA
HETATM    2  N   UNK N   1      22.170  17.070   6.059  0.00  0.00    -0.343 N 
HETATM    3  C   UNK N   1      23.509  17.056   5.528  0.00  0.00     0.053 A 
HETATM    4  C   UNK N   1      21.721  16.105   7.033  0.00  0.00     0.052 A 
HETATM    5  C   UNK N   1      24.395  15.966   5.717  0.00  0.00     0.032 A 
HETATM    6  C   UNK N   1      22.474  14.954   7.377  0.00  0.00     0.032 A 
HETATM    7  C   UNK N   1      23.982  18.164   4.795  0.00  0.00     0.046 A 
HETATM    8  C   UNK N   1      20.490  16.291   7.683  0.00  0.00     0.031 A 
HETATM    9  C   UNK N   1      25.282  18.200   4.261  0.00  0.00     0.012 A 
HETATM   10  C   UNK N   1      25.675  15.998   5.160  0.00  0.00     0.022 A 
HETATM   11  C   UNK N   1      21.998  14.072   8.354  0.00  0.00     0.021 A 
HETATM   12  C   UNK N   1      26.116  17.099   4.441  0.00  0.00     0.016 A 
HETATM   13  C   UNK N   1      20.032  15.413   8.664  0.00  0.00     0.002 A 
HETATM   14  C   UNK N   1      20.794  14.304   9.008  0.00  0.00     0.002 A 
ENDROOT
BRANCH   2  15
HETATM   15  C   UNK N   1      21.197  17.992   5.448  0.00  0.00     0.164 C 
BRANCH  15  16
HETATM   16  C   UNK N   1      20.524  17.616   4.097  0.00  0.00     0.236 C 
HETATM   17  C   UNK N   1      19.504  16.487   4.177  0.00  0.00     0.044 C 
BRANCH  16  18
HETATM   18  N   UNK N   1      20.072  18.758   3.290  0.00  0.00     0.085 N 
HETATM   19  C   UNK N   1      20.301  18.473   1.878  0.00  0.00     0.310 C 
HETATM   20  C   UNK N   1      20.944  19.887   3.573  0.00  0.00     0.310 C 
ENDBRANCH  16  18
ENDBRANCH  15  16
ENDBRANCH   2  15
BRANCH   9  21
HETATM   21  C   UNK N   1      25.772  19.391   3.524  0.00  0.00     0.159 C 
HETATM   22  O   UNK N   1      25.062  19.916   2.679  0.00  0.00    -0.292 OA
BRANCH  21  23
HETATM   23  C   UNK N   1      27.142  19.958   3.767  0.00  0.00     0.079 C 
HETATM   24  C   UNK N   1      27.251  20.614   5.132  0.00  0.00     0.013 C 
ENDBRANCH  21  23
ENDBRANCH   9  21
TORSDOF 5
ENDMDL
MODEL 7
REMARK VINA RESULT:      -6.0      3.044      7.115
REMARK  5 active torsions:
REMARK  status: ('A' for Active; 'I' for Inactive)
REMARK    1  A    between atoms: N_3  and  C_6 
REMARK    2  A    between atoms: N_4  and  C_5 
REMARK    3  A    between atoms: C_5  and  C_6 
REMARK    4  A    between atoms: C_16  and  C_22 
REMARK    5  A    between atoms: C_22  and  C_23 
ROOT
HETATM    1  S   UNK N   1      29.135  25.702  -4.134  0.00  0.00    -0.086 SA
HETATM    2  N   UNK N   1      27.024  24.030  -5.878  0.00  0.00    -0.343 N 
HETATM    3  C   UNK N   1      28.345  23.485  -5.702  0.00  0.00     0.053 A 
HETATM    4  C   UNK N   1      26.711  25.400  -5.553  0.00  0.00     0.052 A 
HETATM    5  C   UNK N   1      29.358  24.154  -4.973  0.00  0.00     0.032 A 
HETATM    6  C   UNK N   1      27.602  26.245  -4.845  0.00  0.00     0.032 A 
HETATM    7  C   UNK N   1      28.670  22.238  -6.279  0.00  0.00     0.046 A 
HETATM    8  C   UNK N   1      25.477  25.947  -5.947  0.00  0.00     0.031 A 
HETATM    9  C   UNK N   1      29.946  21.667  -6.140  0.00  0.00     0.012 A 
HETATM   10  C   UNK N   1      30.615  23.567  -4.817  0.00  0.00     0.022 A 
HETATM   11  C   UNK N   1      27.252  27.576  -4.589  0.00  0.00     0.021 A 
HETATM   12  C   UNK N   1      30.909  22.340  -5.391  0.00  0.00     0.016 A 
HETATM   13  C   UNK N   1      25.145  27.277  -5.699  0.00  0.00     0.002 A 
HETATM   14  C   UNK N   1      26.040  28.098  -5.025  0.00  0.00     0.002 A 
ENDROOT
BRANCH   2  15
HETATM   15  C   UNK N   1      25.937  23.101  -6.231  0.00  0.00     0.164 C 
BRANCH  15  16
HETATM   16  C   UNK N   1      25.412  23.050  -7.694  0.00  0.00     0.236 C 
HETATM   17  C   UNK N   1      26.377  23.586  -8.745  0.00  0.00     0.044 C 
BRANCH  16  18
HETATM   18  N   UNK N   1      24.769  21.786  -8.080  0.00  0.00     0.085 N 
HETATM   19  C   UNK N   1      24.335  21.079  -6.880  0.00  0.00     0.310 C 
HETATM   20  C   UNK N   1      25.783  20.920  -8.659  0.00  0.00     0.310 C 
ENDBRANCH  16  18
ENDBRANCH  15  16
ENDBRANCH   2  15
BRANCH   9  21
HETATM   21  C   UNK N   1      30.277  20.372  -6.785  0.00  0.00     0.159 C 
HETATM   22  O   UNK N   1      31.412  19.927  -6.706  0.00  0.00    -0.292 OA
BRANCH  21  23
HETATM   23  C   UNK N   1      29.253  19.598  -7.567  0.00  0.00     0.079 C 
HETATM   24  C   UNK N   1      29.874  18.853  -8.734  0.00  0.00     0.013 C 
ENDBRANCH  21  23
ENDBRANCH   9  21
TORSDOF 5
ENDMDL
MODEL 8
REMARK VINA RESULT:      -5.9      2.803      5.160
REMARK  5 active torsions:
REMARK  status: ('A' for Active; 'I' for Inactive)
REMARK    1  A    between atoms: N_3  and  C_6 
REMARK    2  A    between atoms: N_4  and  C_5 
REMARK    3  A    between atoms: C_5  and  C_6 
REMARK    4  A    between atoms: C_16  and  C_22 
REMARK    5  A    between atoms: C_22  and  C_23 
ROOT
HETATM    1  S   UNK N   1      30.790  22.964  -2.579  0.00  0.00    -0.086 SA
HETATM    2  N   UNK N   1      30.565  22.245  -5.699  0.00  0.00    -0.343 N 
HETATM    3  C   UNK N   1      29.446  22.898  -5.068  0.00  0.00     0.053 A 
HETATM    4  C   UNK N   1      31.638  21.656  -4.936  0.00  0.00     0.052 A 
HETATM    5  C   UNK N   1      29.434  23.234  -3.692  0.00  0.00     0.032 A 
HETATM    6  C   UNK N   1      31.789  21.856  -3.541  0.00  0.00     0.032 A 
HETATM    7  C   UNK N   1      28.302  23.216  -5.830  0.00  0.00     0.046 A 
HETATM    8  C   UNK N   1      32.586  20.842  -5.578  0.00  0.00     0.031 A 
HETATM    9  C   UNK N   1      27.184  23.847  -5.259  0.00  0.00     0.012 A 
HETATM   10  C   UNK N   1      28.330  23.887  -3.139  0.00  0.00     0.022 A 
HETATM   11  C   UNK N   1      32.834  21.229  -2.851  0.00  0.00     0.021 A 
HETATM   12  C   UNK N   1      27.218  24.191  -3.909  0.00  0.00     0.016 A 
HETATM   13  C   UNK N   1      33.615  20.212  -4.881  0.00  0.00     0.002 A 
HETATM   14  C   UNK N   1      33.734  20.399  -3.510  0.00  0.00     0.002 A 
ENDROOT
BRANCH   2  15
HETATM   15  C   UNK N   1      30.687  22.350  -7.163  0.00  0.00     0.164 C 
BRANCH  15  16
HETATM   16  C   UNK N   1      30.026  21.272  -8.069  0.00  0.00     0.236 C 
HETATM   17  C   UNK N   1      29.513  20.038  -7.336  0.00  0.00     0.044 C 
BRANCH  16  18
HETATM   18  N   UNK N   1      29.084  21.794  -9.068  0.00  0.00     0.085 N 
HETATM   19  C   UNK N   1      27.832  21.050  -8.986  0.00  0.00     0.310 C 
HETATM   20  C   UNK N   1      29.602  21.478 -10.389  0.00  0.00     0.310 C 
ENDBRANCH  16  18
ENDBRANCH  15  16
ENDBRANCH   2  15
BRANCH   9  21
HETATM   21  C   UNK N   1      25.977  24.140  -6.070  0.00  0.00     0.159 C 
HETATM   22  O   UNK N   1      25.149  23.263  -6.266  0.00  0.00    -0.292 OA
BRANCH  21  23
HETATM   23  C   UNK N   1      25.754  25.491  -6.690  0.00  0.00     0.079 C 
HETATM   24  C   UNK N   1      25.054  26.444  -5.738  0.00  0.00     0.013 C 
ENDBRANCH  21  23
ENDBRANCH   9  21
TORSDOF 5
ENDMDL
MODEL 9
REMARK VINA RESULT:      -5.9     11.716     13.553
REMARK  5 active torsions:
REMARK  status: ('A' for Active; 'I' for Inactive)
REMARK    1  A    between atoms: N_3  and  C_6 
REMARK    2  A    between atoms: N_4  and  C_5 
REMARK    3  A    between atoms: C_5  and  C_6 
REMARK    4  A    between atoms: C_16  and  C_22 
REMARK    5  A    between atoms: C_22  and  C_23 
ROOT
HETATM    1  S   UNK N   1      26.965  19.718   3.642  0.00  0.00    -0.086 SA
HETATM    2  N   UNK N   1      25.198  17.299   4.793  0.00  0.00    -0.343 N 
HETATM    3  C   UNK N   1      24.515  18.413   4.185  0.00  0.00     0.053 A 
HETATM    4  C   UNK N   1      26.593  17.362   5.156  0.00  0.00     0.052 A 
HETATM    5  C   UNK N   1      25.199  19.542   3.670  0.00  0.00     0.032 A 
HETATM    6  C   UNK N   1      27.444  18.422   4.755  0.00  0.00     0.032 A 
HETATM    7  C   UNK N   1      23.107  18.405   4.097  0.00  0.00     0.046 A 
HETATM    8  C   UNK N   1      27.156  16.342   5.942  0.00  0.00     0.031 A 
HETATM    9  C   UNK N   1      22.395  19.469   3.518  0.00  0.00     0.012 A 
HETATM   10  C   UNK N   1      24.486  20.582   3.072  0.00  0.00     0.022 A 
HETATM   11  C   UNK N   1      28.782  18.441   5.168  0.00  0.00     0.021 A 
HETATM   12  C   UNK N   1      23.102  20.550   2.995  0.00  0.00     0.016 A 
HETATM   13  C   UNK N   1      28.485  16.378   6.358  0.00  0.00     0.002 A 
HETATM   14  C   UNK N   1      29.299  17.437   5.978  0.00  0.00     0.002 A 
ENDROOT
BRANCH   2  15
HETATM   15  C   UNK N   1      24.483  16.014   4.873  0.00  0.00     0.164 C 
BRANCH  15  16
HETATM   16  C   UNK N   1      23.960  15.509   6.248  0.00  0.00     0.236 C 
HETATM   17  C   UNK N   1      22.548  15.960   6.605  0.00  0.00     0.044 C 
BRANCH  16  18
HETATM   18  N   UNK N   1      24.208  14.087   6.522  0.00  0.00     0.085 N 
HETATM   19  C   UNK N   1      22.966  13.453   6.951  0.00  0.00     0.310 C 
HETATM   20  C   UNK N   1      25.077  13.995   7.684  0.00  0.00     0.310 C 
ENDBRANCH  16  18
ENDBRANCH  15  16
ENDBRANCH   2  15
BRANCH   9  21
HETATM   21  C   UNK N   1      20.912  19.458   3.468  0.00  0.00     0.159 C 
HETATM   22  O   UNK N   1      20.287  20.468   3.752  0.00  0.00    -0.292 OA
BRANCH  21  23
HETATM   23  C   UNK N   1      20.147  18.216   3.105  0.00  0.00     0.079 C 
HETATM   24  C   UNK N   1      20.222  17.917   1.618  0.00  0.00     0.013 C 
ENDBRANCH  21  23
ENDBRANCH   9  21
TORSDOF 5
ENDMDL
