MODEL 1
REMARK VINA RESULT:      -6.7      0.000      0.000
REMARK  6 active torsions:
REMARK  status: ('A' for Active; 'I' for Inactive)
REMARK    1  A    between atoms: S_1  and  C_21 
REMARK    2  A    between atoms: S_1  and  C_22 
REMARK    3  A    between atoms: C_6  and  C_10 
REMARK    4  A    between atoms: C_10  and  C_11 
REMARK    5  A    between atoms: C_17  and  C_19 
REMARK    6  A    between atoms: C_19  and  C_21 
ROOT
HETATM    1  N   UNK N   1      27.355  22.022  -7.616  0.00  0.00    -0.365 N 
HETATM    2  C   UNK N   1      29.239  22.901  -6.754  0.00  0.00    -0.028 A 
HETATM    3  C   UNK N   1      28.173  23.379  -6.046  0.00  0.00    -0.001 A 
HETATM    4  C   UNK N   1      28.709  22.061  -7.733  0.00  0.00     0.096 A 
HETATM    5  C   UNK N   1      27.047  22.834  -6.584  0.00  0.00     0.043 A 
HETATM    6  C   UNK N   1      28.125  24.272  -4.985  0.00  0.00     0.021 A 
HETATM    7  C   UNK N   1      26.867  24.622  -4.469  0.00  0.00    -0.056 A 
HETATM    8  C   UNK N   1      25.779  23.131  -6.089  0.00  0.00     0.031 A 
HETATM    9  C   UNK N   1      25.692  24.041  -5.012  0.00  0.00     0.009 A 
HETATM   10  H   UNK N   1      26.727  21.508  -8.171  0.00  0.00     0.165 HD
ENDROOT
BRANCH   7  11
HETATM   11  C   UNK N   1      26.818  25.655  -3.383  0.00  0.00     0.054 C 
BRANCH  11  12
HETATM   12  C   UNK N   1      27.375  27.064  -3.731  0.00  0.00     0.150 C 
BRANCH  12  13
HETATM   13  S   UNK N   1      26.299  28.578  -4.005  0.00  0.00     0.175 S 
HETATM   14  O   UNK N   1      27.462  29.063  -3.129  0.00  0.00    -0.223 OA
HETATM   15  O   UNK N   1      25.292  27.844  -3.112  0.00  0.00    -0.223 OA
BRANCH  13  16
HETATM   16  C   UNK N   1      26.512  27.868  -5.644  0.00  0.00     0.059 A 
HETATM   17  C   UNK N   1      25.449  27.223  -6.295  0.00  0.00     0.023 A 
HETATM   18  C   UNK N   1      25.663  26.578  -7.517  0.00  0.00     0.002 A 
HETATM   19  C   UNK N   1      26.944  26.545  -8.077  0.00  0.00     0.000 A 
HETATM   20  C   UNK N   1      28.013  27.159  -7.417  0.00  0.00     0.002 A 
HETATM   21  C   UNK N   1      27.799  27.811  -6.200  0.00  0.00     0.023 A 
ENDBRANCH  13  16
ENDBRANCH  12  13
ENDBRANCH  11  12
ENDBRANCH   7  11
BRANCH   2  22
HETATM   22  C   UNK N   1      30.669  23.279  -6.495  0.00  0.00     0.076 C 
BRANCH  22  23
HETATM   23  C   UNK N   1      31.419  22.394  -5.507  0.00  0.00     0.227 C 
HETATM   24  N   UNK N   1      30.653  21.184  -5.210  0.00  0.00     0.089 N 
HETATM   25  C   UNK N   1      30.682  21.030  -3.765  0.00  0.00     0.272 C 
HETATM   26  C   UNK N   1      31.375  20.052  -5.765  0.00  0.00     0.310 C 
HETATM   27  C   UNK N   1      30.795  22.414  -3.180  0.00  0.00     0.032 C 
HETATM   28  C   UNK N   1      31.583  23.173  -4.212  0.00  0.00     0.038 C 
ENDBRANCH  22  23
ENDBRANCH   2  22
TORSDOF 6
ENDMDL
MODEL 2
REMARK VINA RESULT:      -6.7     12.791     14.678
REMARK  6 active torsions:
REMARK  status: ('A' for Active; 'I' for Inactive)
REMARK    1  A    between atoms: S_1  and  C_21 
REMARK    2  A    between atoms: S_1  and  C_22 
REMARK    3  A    between atoms: C_6  and  C_10 
REMARK    4  A    between atoms: C_10  and  C_11 
REMARK    5  A    between atoms: C_17  and  C_19 
REMARK    6  A    between atoms: C_19  and  C_21 
ROOT
HETATM    1  N   UNK N   1      26.666  19.026   5.727  0.00  0.00    -0.365 N 
HETATM    2  C   UNK N   1      28.027  17.672   4.554  0.00  0.00    -0.028 A 
HETATM    3  C   UNK N   1      28.555  17.843   5.803  0.00  0.00    -0.001 A 
HETATM    4  C   UNK N   1      26.853  18.423   4.524  0.00  0.00     0.096 A 
HETATM    5  C   UNK N   1      27.715  18.663   6.492  0.00  0.00     0.043 A 
HETATM    6  C   UNK N   1      29.726  17.349   6.360  0.00  0.00     0.021 A 
HETATM    7  C   UNK N   1      30.044  17.726   7.675  0.00  0.00    -0.056 A 
HETATM    8  C   UNK N   1      27.977  19.043   7.807  0.00  0.00     0.031 A 
HETATM    9  C   UNK N   1      29.163  18.564   8.405  0.00  0.00     0.009 A 
HETATM   10  H   UNK N   1      25.919  19.610   5.987  0.00  0.00     0.165 HD
ENDROOT
BRANCH   7  11
HETATM   11  C   UNK N   1      31.354  17.261   8.238  0.00  0.00     0.054 C 
BRANCH  11  12
HETATM   12  C   UNK N   1      32.641  17.880   7.622  0.00  0.00     0.150 C 
BRANCH  12  13
HETATM   13  S   UNK N   1      34.298  17.000   7.556  0.00  0.00     0.175 S 
HETATM   14  O   UNK N   1      33.690  16.613   8.910  0.00  0.00    -0.223 OA
HETATM   15  O   UNK N   1      34.887  18.410   7.674  0.00  0.00    -0.223 OA
BRANCH  13  16
HETATM   16  C   UNK N   1      33.525  16.634   5.973  0.00  0.00     0.059 A 
HETATM   17  C   UNK N   1      33.240  17.658   5.056  0.00  0.00     0.023 A 
HETATM   18  C   UNK N   1      32.535  17.371   3.882  0.00  0.00     0.002 A 
HETATM   19  C   UNK N   1      32.085  16.070   3.635  0.00  0.00     0.000 A 
HETATM   20  C   UNK N   1      32.340  15.053   4.561  0.00  0.00     0.002 A 
HETATM   21  C   UNK N   1      33.050  15.337   5.730  0.00  0.00     0.023 A 
ENDBRANCH  13  16
ENDBRANCH  12  13
ENDBRANCH  11  12
ENDBRANCH   7  11
BRANCH   2  22
HETATM   22  C   UNK N   1      28.663  16.851   3.469  0.00  0.00     0.076 C 
BRANCH  22  23
HETATM   23  C   UNK N   1      28.109  15.443   3.292  0.00  0.00     0.227 C 
HETATM   24  N   UNK N   1      28.610  14.554   4.339  0.00  0.00     0.089 N 
HETATM   25  C   UNK N   1      29.046  13.341   3.666  0.00  0.00     0.272 C 
HETATM   26  C   UNK N   1      27.488  14.182   5.184  0.00  0.00     0.310 C 
HETATM   27  C   UNK N   1      29.484  13.742   2.282  0.00  0.00     0.032 C 
HETATM   28  C   UNK N   1      28.598  14.914   1.954  0.00  0.00     0.038 C 
ENDBRANCH  22  23
ENDBRANCH   2  22
TORSDOF 6
ENDMDL
MODEL 3
REMARK VINA RESULT:      -6.5     13.423     16.363
REMARK  6 active torsions:
REMARK  status: ('A' for Active; 'I' for Inactive)
REMARK    1  A    between atoms: S_1  and  C_21 
REMARK    2  A    between atoms: S_1  and  C_22 
REMARK    3  A    between atoms: C_6  and  C_10 
REMARK    4  A    between atoms: C_10  and  C_11 
REMARK    5  A    between atoms: C_17  and  C_19 
REMARK    6  A    between atoms: C_19  and  C_21 
ROOT
HETATM    1  N   UNK N   1      30.963  17.090   3.422  0.00  0.00    -0.365 N 
HETATM    2  C   UNK N   1      29.697  16.530   5.195  0.00  0.00    -0.028 A 
HETATM    3  C   UNK N   1      30.925  16.922   5.646  0.00  0.00    -0.001 A 
HETATM    4  C   UNK N   1      29.741  16.635   3.806  0.00  0.00     0.096 A 
HETATM    5  C   UNK N   1      31.672  17.256   4.558  0.00  0.00     0.043 A 
HETATM    6  C   UNK N   1      31.434  16.981   6.936  0.00  0.00     0.021 A 
HETATM    7  C   UNK N   1      32.766  17.391   7.104  0.00  0.00    -0.056 A 
HETATM    8  C   UNK N   1      32.990  17.692   4.678  0.00  0.00     0.031 A 
HETATM    9  C   UNK N   1      33.542  17.760   5.976  0.00  0.00     0.009 A 
HETATM   10  H   UNK N   1      31.270  17.262   2.503  0.00  0.00     0.165 HD
ENDROOT
BRANCH   7  11
HETATM   11  C   UNK N   1      33.336  17.366   8.491  0.00  0.00     0.054 C 
BRANCH  11  12
HETATM   12  C   UNK N   1      33.368  15.989   9.211  0.00  0.00     0.150 C 
BRANCH  12  13
HETATM   13  S   UNK N   1      34.947  15.095   9.693  0.00  0.00     0.175 S 
HETATM   14  O   UNK N   1      34.008  14.931  10.895  0.00  0.00    -0.223 OA
HETATM   15  O   UNK N   1      35.556  16.500   9.741  0.00  0.00    -0.223 OA
BRANCH  13  16
HETATM   16  C   UNK N   1      34.568  14.492   8.041  0.00  0.00     0.059 A 
HETATM   17  C   UNK N   1      35.416  14.771   6.958  0.00  0.00     0.023 A 
HETATM   18  C   UNK N   1      35.048  14.394   5.663  0.00  0.00     0.002 A 
HETATM   19  C   UNK N   1      33.819  13.765   5.440  0.00  0.00     0.000 A 
HETATM   20  C   UNK N   1      32.957  13.512   6.511  0.00  0.00     0.002 A 
HETATM   21  C   UNK N   1      33.327  13.881   7.806  0.00  0.00     0.023 A 
ENDBRANCH  13  16
ENDBRANCH  12  13
ENDBRANCH  11  12
ENDBRANCH   7  11
BRANCH   2  22
HETATM   22  C   UNK N   1      28.579  16.056   6.080  0.00  0.00     0.076 C 
BRANCH  22  23
HETATM   23  C   UNK N   1      27.661  17.142   6.626  0.00  0.00     0.227 C 
HETATM   24  N   UNK N   1      27.928  18.423   5.974  0.00  0.00     0.089 N 
HETATM   25  C   UNK N   1      28.004  19.412   7.037  0.00  0.00     0.272 C 
HETATM   26  C   UNK N   1      26.768  18.764   5.169  0.00  0.00     0.310 C 
HETATM   27  C   UNK N   1      28.501  18.696   8.265  0.00  0.00     0.032 C 
HETATM   28  C   UNK N   1      27.957  17.302   8.109  0.00  0.00     0.038 C 
ENDBRANCH  22  23
ENDBRANCH   2  22
TORSDOF 6
ENDMDL
MODEL 4
REMARK VINA RESULT:      -6.4      3.690      5.971
REMARK  6 active torsions:
REMARK  status: ('A' for Active; 'I' for Inactive)
REMARK    1  A    between atoms: S_1  and  C_21 
REMARK    2  A    between atoms: S_1  and  C_22 
REMARK    3  A    between atoms: C_6  and  C_10 
REMARK    4  A    between atoms: C_10  and  C_11 
REMARK    5  A    between atoms: C_17  and  C_19 
REMARK    6  A    between atoms: C_19  and  C_21 
ROOT
HETATM    1  N   UNK N   1      26.123  29.334  -3.390  0.00  0.00    -0.365 N 
HETATM    2  C   UNK N   1      27.891  29.602  -4.755  0.00  0.00    -0.028 A 
HETATM    3  C   UNK N   1      27.040  28.694  -5.320  0.00  0.00    -0.001 A 
HETATM    4  C   UNK N   1      27.306  29.985  -3.550  0.00  0.00     0.096 A 
HETATM    5  C   UNK N   1      25.980  28.549  -4.478  0.00  0.00     0.043 A 
HETATM    6  C   UNK N   1      27.146  27.975  -6.502  0.00  0.00     0.021 A 
HETATM    7  C   UNK N   1      26.123  27.066  -6.818  0.00  0.00    -0.056 A 
HETATM    8  C   UNK N   1      24.930  27.679  -4.763  0.00  0.00     0.031 A 
HETATM    9  C   UNK N   1      25.007  26.926  -5.955  0.00  0.00     0.009 A 
HETATM   10  H   UNK N   1      25.499  29.416  -2.634  0.00  0.00     0.165 HD
ENDROOT
BRANCH   7  11
HETATM   11  C   UNK N   1      26.289  26.228  -8.051  0.00  0.00     0.054 C 
BRANCH  11  12
HETATM   12  C   UNK N   1      27.140  24.934  -7.910  0.00  0.00     0.150 C 
BRANCH  12  13
HETATM   13  S   UNK N   1      26.409  23.214  -7.731  0.00  0.00     0.175 S 
HETATM   14  O   UNK N   1      27.380  23.119  -8.916  0.00  0.00    -0.223 OA
HETATM   15  O   UNK N   1      25.113  23.872  -8.217  0.00  0.00    -0.223 OA
BRANCH  13  16
HETATM   16  C   UNK N   1      26.910  23.672  -6.065  0.00  0.00     0.059 A 
HETATM   17  C   UNK N   1      25.960  23.840  -5.046  0.00  0.00     0.023 A 
HETATM   18  C   UNK N   1      26.355  24.308  -3.789  0.00  0.00     0.002 A 
HETATM   19  C   UNK N   1      27.694  24.638  -3.554  0.00  0.00     0.000 A 
HETATM   20  C   UNK N   1      28.639  24.501  -4.575  0.00  0.00     0.002 A 
HETATM   21  C   UNK N   1      28.247  24.027  -5.829  0.00  0.00     0.023 A 
ENDBRANCH  13  16
ENDBRANCH  12  13
ENDBRANCH  11  12
ENDBRANCH   7  11
BRANCH   2  22
HETATM   22  C   UNK N   1      29.200  30.026  -5.358  0.00  0.00     0.076 C 
BRANCH  22  23
HETATM   23  C   UNK N   1      30.432  29.284  -4.856  0.00  0.00     0.227 C 
HETATM   24  N   UNK N   1      30.128  27.872  -4.628  0.00  0.00     0.089 N 
HETATM   25  C   UNK N   1      30.686  27.542  -3.326  0.00  0.00     0.272 C 
HETATM   26  C   UNK N   1      30.866  27.093  -5.608  0.00  0.00     0.310 C 
HETATM   27  C   UNK N   1      30.657  28.805  -2.506  0.00  0.00     0.032 C 
HETATM   28  C   UNK N   1      30.837  29.897  -3.525  0.00  0.00     0.038 C 
ENDBRANCH  22  23
ENDBRANCH   2  22
TORSDOF 6
ENDMDL
MODEL 5
REMARK VINA RESULT:      -6.4      1.872      3.205
REMARK  6 active torsions:
REMARK  status: ('A' for Active; 'I' for Inactive)
REMARK    1  A    between atoms: S_1  and  C_21 
REMARK    2  A    between atoms: S_1  and  C_22 
REMARK    3  A    between atoms: C_6  and  C_10 
REMARK    4  A    between atoms: C_10  and  C_11 
REMARK    5  A    between atoms: C_17  and  C_19 
REMARK    6  A    between atoms: C_19  and  C_21 
ROOT
HETATM    1  N   UNK N   1      25.215  24.550  -5.994  0.00  0.00    -0.365 N 
HETATM    2  C   UNK N   1      26.814  24.290  -4.433  0.00  0.00    -0.028 A 
HETATM    3  C   UNK N   1      26.394  25.590  -4.413  0.00  0.00    -0.001 A 
HETATM    4  C   UNK N   1      26.071  23.658  -5.430  0.00  0.00     0.096 A 
HETATM    5  C   UNK N   1      25.428  25.723  -5.363  0.00  0.00     0.043 A 
HETATM    6  C   UNK N   1      26.818  26.661  -3.638  0.00  0.00     0.021 A 
HETATM    7  C   UNK N   1      26.228  27.915  -3.863  0.00  0.00    -0.056 A 
HETATM    8  C   UNK N   1      24.797  26.942  -5.604  0.00  0.00     0.031 A 
HETATM    9  C   UNK N   1      25.207  28.055  -4.837  0.00  0.00     0.009 A 
HETATM   10  H   UNK N   1      24.571  24.377  -6.718  0.00  0.00     0.165 HD
ENDROOT
BRANCH   7  11
HETATM   11  C   UNK N   1      26.754  29.085  -3.084  0.00  0.00     0.054 C 
BRANCH  11  12
HETATM   12  C   UNK N   1      27.880  29.922  -3.754  0.00  0.00     0.150 C 
BRANCH  12  13
HETATM   13  S   UNK N   1      29.711  29.543  -3.582  0.00  0.00     0.175 S 
HETATM   14  O   UNK N   1      29.112  29.276  -2.195  0.00  0.00    -0.223 OA
HETATM   15  O   UNK N   1      29.892  31.055  -3.750  0.00  0.00    -0.223 OA
BRANCH  13  16
HETATM   16  C   UNK N   1      29.203  28.673  -5.073  0.00  0.00     0.059 A 
HETATM   17  C   UNK N   1      29.597  27.346  -5.303  0.00  0.00     0.023 A 
HETATM   18  C   UNK N   1      29.291  26.724  -6.518  0.00  0.00     0.002 A 
HETATM   19  C   UNK N   1      28.618  27.434  -7.517  0.00  0.00     0.000 A 
HETATM   20  C   UNK N   1      28.250  28.766  -7.304  0.00  0.00     0.002 A 
HETATM   21  C   UNK N   1      28.549  29.385  -6.089  0.00  0.00     0.023 A 
ENDBRANCH  13  16
ENDBRANCH  12  13
ENDBRANCH  11  12
ENDBRANCH   7  11
BRANCH   2  22
HETATM   22  C   UNK N   1      27.893  23.733  -3.550  0.00  0.00     0.076 C 
BRANCH  22  23
HETATM   23  C   UNK N   1      29.285  23.670  -4.164  0.00  0.00     0.227 C 
HETATM   24  N   UNK N   1      29.579  22.322  -4.646  0.00  0.00     0.089 N 
HETATM   25  C   UNK N   1      30.914  22.001  -4.167  0.00  0.00     0.272 C 
HETATM   26  C   UNK N   1      29.657  22.373  -6.096  0.00  0.00     0.310 C 
HETATM   27  C   UNK N   1      31.111  22.760  -2.882  0.00  0.00     0.032 C 
HETATM   28  C   UNK N   1      30.292  24.007  -3.076  0.00  0.00     0.038 C 
ENDBRANCH  22  23
ENDBRANCH   2  22
TORSDOF 6
ENDMDL
MODEL 6
REMARK VINA RESULT:      -6.3      3.220      5.757
REMARK  6 active torsions:
REMARK  status: ('A' for Active; 'I' for Inactive)
REMARK    1  A    between atoms: S_1  and  C_21 
REMARK    2  A    between atoms: S_1  and  C_22 
REMARK    3  A    between atoms: C_6  and  C_10 
REMARK    4  A    between atoms: C_10  and  C_11 
REMARK    5  A    between atoms: C_17  and  C_19 
REMARK    6  A    between atoms: C_19  and  C_21 
ROOT
HETATM    1  N   UNK N   1      25.704  21.559  -8.728  0.00  0.00    -0.365 N 
HETATM    2  C   UNK N   1      26.100  23.211  -7.252  0.00  0.00    -0.028 A 
HETATM    3  C   UNK N   1      27.182  22.377  -7.270  0.00  0.00    -0.001 A 
HETATM    4  C   UNK N   1      25.186  22.681  -8.163  0.00  0.00     0.096 A 
HETATM    5  C   UNK N   1      26.920  21.388  -8.169  0.00  0.00     0.043 A 
HETATM    6  C   UNK N   1      28.360  22.415  -6.539  0.00  0.00     0.021 A 
HETATM    7  C   UNK N   1      29.296  21.387  -6.737  0.00  0.00    -0.056 A 
HETATM    8  C   UNK N   1      27.830  20.362  -8.418  0.00  0.00     0.031 A 
HETATM    9  C   UNK N   1      29.038  20.366  -7.687  0.00  0.00     0.009 A 
HETATM   10  H   UNK N   1      25.279  20.986  -9.405  0.00  0.00     0.165 HD
ENDROOT
BRANCH   7  11
HETATM   11  C   UNK N   1      30.527  21.386  -5.879  0.00  0.00     0.054 C 
BRANCH  11  12
HETATM   12  C   UNK N   1      30.765  22.643  -4.995  0.00  0.00     0.150 C 
BRANCH  12  13
HETATM   13  S   UNK N   1      31.238  22.573  -3.179  0.00  0.00     0.175 S 
HETATM   14  O   UNK N   1      32.548  22.851  -3.927  0.00  0.00    -0.223 OA
HETATM   15  O   UNK N   1      30.916  21.080  -3.303  0.00  0.00    -0.223 OA
BRANCH  13  16
HETATM   16  C   UNK N   1      29.806  23.662  -3.236  0.00  0.00     0.059 A 
HETATM   17  C   UNK N   1      28.564  23.247  -2.732  0.00  0.00     0.023 A 
HETATM   18  C   UNK N   1      27.437  24.060  -2.888  0.00  0.00     0.002 A 
HETATM   19  C   UNK N   1      27.539  25.274  -3.575  0.00  0.00     0.000 A 
HETATM   20  C   UNK N   1      28.768  25.677  -4.105  0.00  0.00     0.002 A 
HETATM   21  C   UNK N   1      29.896  24.870  -3.943  0.00  0.00     0.023 A 
ENDBRANCH  13  16
ENDBRANCH  12  13
ENDBRANCH  11  12
ENDBRANCH   7  11
BRANCH   2  22
HETATM   22  C   UNK N   1      25.976  24.421  -6.372  0.00  0.00     0.076 C 
BRANCH  22  23
HETATM   23  C   UNK N   1      25.924  25.762  -7.092  0.00  0.00     0.227 C 
HETATM   24  N   UNK N   1      27.272  26.253  -7.371  0.00  0.00     0.089 N 
HETATM   25  C   UNK N   1      27.286  27.651  -6.970  0.00  0.00     0.272 C 
HETATM   26  C   UNK N   1      27.467  26.230  -8.810  0.00  0.00     0.310 C 
HETATM   27  C   UNK N   1      26.290  27.794  -5.850  0.00  0.00     0.032 C 
HETATM   28  C   UNK N   1      25.243  26.761  -6.170  0.00  0.00     0.038 C 
ENDBRANCH  22  23
ENDBRANCH   2  22
TORSDOF 6
ENDMDL
MODEL 7
REMARK VINA RESULT:      -6.3      1.560      2.336
REMARK  6 active torsions:
REMARK  status: ('A' for Active; 'I' for Inactive)
REMARK    1  A    between atoms: S_1  and  C_21 
REMARK    2  A    between atoms: S_1  and  C_22 
REMARK    3  A    between atoms: C_6  and  C_10 
REMARK    4  A    between atoms: C_10  and  C_11 
REMARK    5  A    between atoms: C_17  and  C_19 
REMARK    6  A    between atoms: C_19  and  C_21 
ROOT
HETATM    1  N   UNK N   1      28.180  23.985  -8.863  0.00  0.00    -0.365 N 
HETATM    2  C   UNK N   1      28.365  23.352  -6.712  0.00  0.00    -0.028 A 
HETATM    3  C   UNK N   1      27.453  24.366  -6.789  0.00  0.00    -0.001 A 
HETATM    4  C   UNK N   1      28.812  23.132  -8.014  0.00  0.00     0.096 A 
HETATM    5  C   UNK N   1      27.358  24.731  -8.098  0.00  0.00     0.043 A 
HETATM    6  C   UNK N   1      26.726  25.001  -5.792  0.00  0.00     0.021 A 
HETATM    7  C   UNK N   1      25.878  26.057  -6.161  0.00  0.00    -0.056 A 
HETATM    8  C   UNK N   1      26.510  25.756  -8.514  0.00  0.00     0.031 A 
HETATM    9  C   UNK N   1      25.758  26.428  -7.525  0.00  0.00     0.009 A 
HETATM   10  H   UNK N   1      28.298  24.047  -9.838  0.00  0.00     0.165 HD
ENDROOT
BRANCH   7  11
HETATM   11  C   UNK N   1      25.164  26.796  -5.068  0.00  0.00     0.054 C 
BRANCH  11  12
HETATM   12  C   UNK N   1      25.748  28.177  -4.658  0.00  0.00     0.150 C 
BRANCH  12  13
HETATM   13  S   UNK N   1      26.969  28.423  -3.253  0.00  0.00     0.175 S 
HETATM   14  O   UNK N   1      26.054  27.278  -2.798  0.00  0.00    -0.223 OA
HETATM   15  O   UNK N   1      26.230  29.748  -3.037  0.00  0.00    -0.223 OA
BRANCH  13  16
HETATM   16  C   UNK N   1      27.987  28.358  -4.735  0.00  0.00     0.059 A 
HETATM   17  C   UNK N   1      27.689  29.154  -5.851  0.00  0.00     0.023 A 
HETATM   18  C   UNK N   1      28.421  29.006  -7.034  0.00  0.00     0.002 A 
HETATM   19  C   UNK N   1      29.431  28.043  -7.116  0.00  0.00     0.000 A 
HETATM   20  C   UNK N   1      29.711  27.225  -6.017  0.00  0.00     0.002 A 
HETATM   21  C   UNK N   1      28.986  27.377  -4.833  0.00  0.00     0.023 A 
ENDBRANCH  13  16
ENDBRANCH  12  13
ENDBRANCH  11  12
ENDBRANCH   7  11
BRANCH   2  22
HETATM   22  C   UNK N   1      28.780  22.680  -5.435  0.00  0.00     0.076 C 
BRANCH  22  23
HETATM   23  C   UNK N   1      29.922  23.346  -4.677  0.00  0.00     0.227 C 
HETATM   24  N   UNK N   1      30.989  22.386  -4.400  0.00  0.00     0.089 N 
HETATM   25  C   UNK N   1      31.344  22.565  -3.001  0.00  0.00     0.272 C 
HETATM   26  C   UNK N   1      32.152  22.775  -5.179  0.00  0.00     0.310 C 
HETATM   27  C   UNK N   1      30.103  23.041  -2.294  0.00  0.00     0.032 C 
HETATM   28  C   UNK N   1      29.375  23.834  -3.345  0.00  0.00     0.038 C 
ENDBRANCH  22  23
ENDBRANCH   2  22
TORSDOF 6
ENDMDL
MODEL 8
REMARK VINA RESULT:      -6.3     12.201     14.371
REMARK  6 active torsions:
REMARK  status: ('A' for Active; 'I' for Inactive)
REMARK    1  A    between atoms: S_1  and  C_21 
REMARK    2  A    between atoms: S_1  and  C_22 
REMARK    3  A    between atoms: C_6  and  C_10 
REMARK    4  A    between atoms: C_10  and  C_11 
REMARK    5  A    between atoms: C_17  and  C_19 
REMARK    6  A    between atoms: C_19  and  C_21 
ROOT
HETATM    1  N   UNK N   1      31.098  16.106   9.673  0.00  0.00    -0.365 N 
HETATM    2  C   UNK N   1      31.780  16.804   7.646  0.00  0.00    -0.028 A 
HETATM    3  C   UNK N   1      30.583  17.397   7.929  0.00  0.00    -0.001 A 
HETATM    4  C   UNK N   1      32.083  15.997   8.742  0.00  0.00     0.096 A 
HETATM    5  C   UNK N   1      30.191  16.961   9.158  0.00  0.00     0.043 A 
HETATM    6  C   UNK N   1      29.809  18.268   7.175  0.00  0.00     0.021 A 
HETATM    7  C   UNK N   1      28.582  18.695   7.709  0.00  0.00    -0.056 A 
HETATM    8  C   UNK N   1      28.995  17.377   9.738  0.00  0.00     0.031 A 
HETATM    9  C   UNK N   1      28.179  18.260   8.997  0.00  0.00     0.009 A 
HETATM   10  H   UNK N   1      31.055  15.652  10.544  0.00  0.00     0.165 HD
ENDROOT
BRANCH   7  11
HETATM   11  C   UNK N   1      27.711  19.565   6.851  0.00  0.00     0.054 C 
BRANCH  11  12
HETATM   12  C   UNK N   1      27.801  19.347   5.314  0.00  0.00     0.150 C 
BRANCH  12  13
HETATM   13  S   UNK N   1      26.315  19.025   4.212  0.00  0.00     0.175 S 
HETATM   14  O   UNK N   1      27.148  20.078   3.469  0.00  0.00    -0.223 OA
HETATM   15  O   UNK N   1      25.524  19.726   5.321  0.00  0.00    -0.223 OA
BRANCH  13  16
HETATM   16  C   UNK N   1      26.929  17.389   4.641  0.00  0.00     0.059 A 
HETATM   17  C   UNK N   1      26.304  16.621   5.635  0.00  0.00     0.023 A 
HETATM   18  C   UNK N   1      26.862  15.402   6.035  0.00  0.00     0.002 A 
HETATM   19  C   UNK N   1      28.061  14.962   5.467  0.00  0.00     0.000 A 
HETATM   20  C   UNK N   1      28.705  15.738   4.499  0.00  0.00     0.002 A 
HETATM   21  C   UNK N   1      28.145  16.951   4.093  0.00  0.00     0.023 A 
ENDBRANCH  13  16
ENDBRANCH  12  13
ENDBRANCH  11  12
ENDBRANCH   7  11
BRANCH   2  22
HETATM   22  C   UNK N   1      32.544  17.002   6.368  0.00  0.00     0.076 C 
BRANCH  22  23
HETATM   23  C   UNK N   1      31.982  16.291   5.143  0.00  0.00     0.227 C 
HETATM   24  N   UNK N   1      32.796  15.126   4.802  0.00  0.00     0.089 N 
HETATM   25  C   UNK N   1      33.019  15.192   3.367  0.00  0.00     0.272 C 
HETATM   26  C   UNK N   1      31.997  13.937   5.046  0.00  0.00     0.310 C 
HETATM   27  C   UNK N   1      32.999  16.650   2.989  0.00  0.00     0.032 C 
HETATM   28  C   UNK N   1      32.039  17.260   3.973  0.00  0.00     0.038 C 
ENDBRANCH  22  23
ENDBRANCH   2  22
TORSDOF 6
ENDMDL
MODEL 9
REMARK VINA RESULT:      -6.2      3.987      6.737
REMARK  6 active torsions:
REMARK  status: ('A' for Active; 'I' for Inactive)
REMARK    1  A    between atoms: S_1  and  C_21 
REMARK    2  A    between atoms: S_1  and  C_22 
REMARK    3  A    between atoms: C_6  and  C_10 
REMARK    4  A    between atoms: C_10  and  C_11 
REMARK    5  A    between atoms: C_17  and  C_19 
REMARK    6  A    between atoms: C_19  and  C_21 
ROOT
HETATM    1  N   UNK N   1      26.953  21.352  -8.372  0.00  0.00    -0.365 N 
HETATM    2  C   UNK N   1      27.731  22.743  -6.785  0.00  0.00    -0.028 A 
HETATM    3  C   UNK N   1      28.612  21.710  -6.925  0.00  0.00    -0.001 A 
HETATM    4  C   UNK N   1      26.699  22.500  -7.690  0.00  0.00     0.096 A 
HETATM    5  C   UNK N   1      28.122  20.883  -7.890  0.00  0.00     0.043 A 
HETATM    6  C   UNK N   1      29.794  21.436  -6.252  0.00  0.00     0.021 A 
HETATM    7  C   UNK N   1      30.488  20.260  -6.581  0.00  0.00    -0.056 A 
HETATM    8  C   UNK N   1      28.788  19.719  -8.268  0.00  0.00     0.031 A 
HETATM    9  C   UNK N   1      29.992  19.406  -7.599  0.00  0.00     0.009 A 
HETATM   10  H   UNK N   1      26.396  20.944  -9.074  0.00  0.00     0.165 HD
ENDROOT
BRANCH   7  11
HETATM   11  C   UNK N   1      31.716  19.927  -5.787  0.00  0.00     0.054 C 
BRANCH  11  12
HETATM   12  C   UNK N   1      32.786  21.046  -5.649  0.00  0.00     0.150 C 
BRANCH  12  13
HETATM   13  S   UNK N   1      33.869  21.279  -4.133  0.00  0.00     0.175 S 
HETATM   14  O   UNK N   1      34.808  21.469  -5.333  0.00  0.00    -0.223 OA
HETATM   15  O   UNK N   1      33.648  19.777  -3.924  0.00  0.00    -0.223 OA
BRANCH  13  16
HETATM   16  C   UNK N   1      32.425  22.306  -3.824  0.00  0.00     0.059 A 
HETATM   17  C   UNK N   1      32.266  23.541  -4.470  0.00  0.00     0.023 A 
HETATM   18  C   UNK N   1      31.197  24.377  -4.131  0.00  0.00     0.002 A 
HETATM   19  C   UNK N   1      30.302  23.997  -3.126  0.00  0.00     0.000 A 
HETATM   20  C   UNK N   1      30.474  22.781  -2.458  0.00  0.00     0.002 A 
HETATM   21  C   UNK N   1      31.536  21.942  -2.800  0.00  0.00     0.023 A 
ENDBRANCH  13  16
ENDBRANCH  12  13
ENDBRANCH  11  12
ENDBRANCH   7  11
BRANCH   2  22
HETATM   22  C   UNK N   1      27.891  23.866  -5.800  0.00  0.00     0.076 C 
BRANCH  22  23
HETATM   23  C   UNK N   1      26.616  24.620  -5.442  0.00  0.00     0.227 C 
HETATM   24  N   UNK N   1      26.707  26.018  -5.858  0.00  0.00     0.089 N 
HETATM   25  C   UNK N   1      26.248  26.809  -4.727  0.00  0.00     0.272 C 
HETATM   26  C   UNK N   1      25.749  26.229  -6.929  0.00  0.00     0.310 C 
HETATM   27  C   UNK N   1      26.574  26.023  -3.484  0.00  0.00     0.032 C 
HETATM   28  C   UNK N   1      26.465  24.590  -3.930  0.00  0.00     0.038 C 
ENDBRANCH  22  23
ENDBRANCH   2  22
TORSDOF 6
ENDMDL
