MODEL 1
REMARK VINA RESULT:      -6.6      0.000      0.000
REMARK  3 active torsions:
REMARK  status: ('A' for Active; 'I' for Inactive)
REMARK    1  A    between atoms: O_2  and  C_17 
REMARK    2  A    between atoms: N_4  and  C_9 
REMARK    3  A    between atoms: C_11  and  C_17 
ROOT
HETATM    1  O   UNK N   1      34.438  17.597   5.869  0.00  0.00    -0.286 OA
HETATM    2  N   UNK N   1      30.874  17.558   7.722  0.00  0.00    -0.342 N 
HETATM    3  N   UNK N   1      29.811  16.983   5.680  0.00  0.00    -0.345 N 
ATOM      4  HN  UNK N   1      28.914  16.974   6.166  1.00  0.00     0.167 HD
HETATM    5  C   UNK N   1      30.943  17.285   6.383  0.00  0.00     0.122 A 
HETATM    6  C   UNK N   1      32.189  17.305   5.716  0.00  0.00     0.059 A 
HETATM    7  C   UNK N   1      32.013  17.815   8.433  0.00  0.00     0.115 A 
HETATM    8  C   UNK N   1      33.273  17.826   7.824  0.00  0.00     0.104 A 
HETATM    9  C   UNK N   1      33.357  17.585   6.438  0.00  0.00     0.204 A 
HETATM   10  C   UNK N   1      32.231  17.027   4.344  0.00  0.00     0.021 A 
HETATM   11  C   UNK N   1      29.846  16.693   4.351  0.00  0.00     0.007 A 
HETATM   12  C   UNK N   1      31.057  16.716   3.659  0.00  0.00     0.025 A 
HETATM   13  C   UNK N   1      28.592  16.334   3.639  0.00  0.00     0.068 C 
ENDROOT
BRANCH   8  14
HETATM   14  C   UNK N   1      34.469  18.069   8.671  0.00  0.00     0.181 C 
HETATM   15  O   UNK N   1      34.730  17.338   9.613  0.00  0.00    -0.646 OA
BRANCH  14  16
HETATM   16  O   UNK N   1      35.264  19.129   8.422  0.00  0.00    -0.772 OA
HETATM   17  H   UNK N   1      36.193  19.053   8.514  0.00  0.00     0.167 HD
ENDBRANCH  14  16
ENDBRANCH   8  14
BRANCH   2  18
HETATM   18  C   UNK N   1      29.562  17.557   8.388  0.00  0.00     0.125 C 
HETATM   19  C   UNK N   1      29.500  18.416   9.648  0.00  0.00     0.027 C 
ENDBRANCH   2  18
TORSDOF 3
ENDMDL
MODEL 2
REMARK VINA RESULT:      -6.3      4.145      6.570
REMARK  3 active torsions:
REMARK  status: ('A' for Active; 'I' for Inactive)
REMARK    1  A    between atoms: O_2  and  C_17 
REMARK    2  A    between atoms: N_4  and  C_9 
REMARK    3  A    between atoms: C_11  and  C_17 
ROOT
HETATM    1  O   UNK N   1      35.939  17.714  10.390  0.00  0.00    -0.286 OA
HETATM    2  N   UNK N   1      33.767  14.572   9.146  0.00  0.00    -0.342 N 
HETATM    3  N   UNK N   1      34.332  13.390  11.124  0.00  0.00    -0.345 N 
ATOM      4  HN  UNK N   1      33.774  12.602  10.796  1.00  0.00     0.167 HD
HETATM    5  C   UNK N   1      34.425  14.508  10.344  0.00  0.00     0.122 A 
HETATM    6  C   UNK N   1      35.201  15.601  10.790  0.00  0.00     0.059 A 
HETATM    7  C   UNK N   1      33.824  15.709   8.389  0.00  0.00     0.115 A 
HETATM    8  C   UNK N   1      34.562  16.826   8.795  0.00  0.00     0.104 A 
HETATM    9  C   UNK N   1      35.276  16.763  10.007  0.00  0.00     0.204 A 
HETATM   10  C   UNK N   1      35.868  15.508  12.017  0.00  0.00     0.021 A 
HETATM   11  C   UNK N   1      34.962  13.299  12.327  0.00  0.00     0.007 A 
HETATM   12  C   UNK N   1      35.746  14.355  12.791  0.00  0.00     0.025 A 
HETATM   13  C   UNK N   1      34.800  12.076  13.156  0.00  0.00     0.068 C 
ENDROOT
BRANCH   8  14
HETATM   14  C   UNK N   1      34.539  18.042   7.939  0.00  0.00     0.181 C 
HETATM   15  O   UNK N   1      34.208  17.977   6.766  0.00  0.00    -0.646 OA
BRANCH  14  16
HETATM   16  O   UNK N   1      34.919  19.229   8.450  0.00  0.00    -0.772 OA
HETATM   17  H   UNK N   1      35.826  19.408   8.603  0.00  0.00     0.167 HD
ENDBRANCH  14  16
ENDBRANCH   8  14
BRANCH   2  18
HETATM   18  C   UNK N   1      32.988  13.410   8.692  0.00  0.00     0.125 C 
HETATM   19  C   UNK N   1      33.621  12.648   7.531  0.00  0.00     0.027 C 
ENDBRANCH   2  18
TORSDOF 3
ENDMDL
MODEL 3
REMARK VINA RESULT:      -6.3      7.443      9.531
REMARK  3 active torsions:
REMARK  status: ('A' for Active; 'I' for Inactive)
REMARK    1  A    between atoms: O_2  and  C_17 
REMARK    2  A    between atoms: N_4  and  C_9 
REMARK    3  A    between atoms: C_11  and  C_17 
ROOT
HETATM    1  O   UNK N   1      24.411  21.190   2.352  0.00  0.00    -0.286 OA
HETATM    2  N   UNK N   1      23.605  18.088   4.775  0.00  0.00    -0.342 N 
HETATM    3  N   UNK N   1      25.886  17.987   5.416  0.00  0.00    -0.345 N 
ATOM      4  HN  UNK N   1      25.665  17.202   6.029  1.00  0.00     0.167 HD
HETATM    5  C   UNK N   1      24.887  18.557   4.679  0.00  0.00     0.122 A 
HETATM    6  C   UNK N   1      25.187  19.641   3.824  0.00  0.00     0.059 A 
HETATM    7  C   UNK N   1      22.598  18.689   4.071  0.00  0.00     0.115 A 
HETATM    8  C   UNK N   1      22.838  19.778   3.226  0.00  0.00     0.104 A 
HETATM    9  C   UNK N   1      24.159  20.249   3.089  0.00  0.00     0.204 A 
HETATM   10  C   UNK N   1      26.508  20.098   3.742  0.00  0.00     0.021 A 
HETATM   11  C   UNK N   1      27.169  18.438   5.356  0.00  0.00     0.007 A 
HETATM   12  C   UNK N   1      27.502  19.498   4.513  0.00  0.00     0.025 A 
HETATM   13  C   UNK N   1      28.215  17.809   6.205  0.00  0.00     0.068 C 
ENDROOT
BRANCH   8  14
HETATM   14  C   UNK N   1      21.685  20.406   2.530  0.00  0.00     0.181 C 
HETATM   15  O   UNK N   1      20.938  19.742   1.828  0.00  0.00    -0.646 OA
BRANCH  14  16
HETATM   16  O   UNK N   1      21.474  21.732   2.644  0.00  0.00    -0.772 OA
HETATM   17  H   UNK N   1      20.690  22.052   3.043  0.00  0.00     0.167 HD
ENDBRANCH  14  16
ENDBRANCH   8  14
BRANCH   2  18
HETATM   18  C   UNK N   1      23.323  16.941   5.651  0.00  0.00     0.125 C 
HETATM   19  C   UNK N   1      21.907  16.923   6.222  0.00  0.00     0.027 C 
ENDBRANCH   2  18
TORSDOF 3
ENDMDL
MODEL 4
REMARK VINA RESULT:      -6.0      2.855      4.023
REMARK  3 active torsions:
REMARK  status: ('A' for Active; 'I' for Inactive)
REMARK    1  A    between atoms: O_2  and  C_17 
REMARK    2  A    between atoms: N_4  and  C_9 
REMARK    3  A    between atoms: C_11  and  C_17 
ROOT
HETATM    1  O   UNK N   1      28.219  17.796   6.724  0.00  0.00    -0.286 OA
HETATM    2  N   UNK N   1      32.114  17.259   7.549  0.00  0.00    -0.342 N 
HETATM    3  N   UNK N   1      32.533  16.755   5.269  0.00  0.00    -0.345 N 
ATOM      4  HN  UNK N   1      33.520  16.625   5.493  1.00  0.00     0.167 HD
HETATM    5  C   UNK N   1      31.663  17.088   6.268  0.00  0.00     0.122 A 
HETATM    6  C   UNK N   1      30.294  17.264   5.965  0.00  0.00     0.059 A 
HETATM    7  C   UNK N   1      31.249  17.638   8.538  0.00  0.00     0.115 A 
HETATM    8  C   UNK N   1      29.888  17.845   8.286  0.00  0.00     0.104 A 
HETATM    9  C   UNK N   1      29.402  17.636   6.981  0.00  0.00     0.204 A 
HETATM   10  C   UNK N   1      29.859  17.079   4.647  0.00  0.00     0.021 A 
HETATM   11  C   UNK N   1      32.121  16.591   3.982  0.00  0.00     0.007 A 
HETATM   12  C   UNK N   1      30.775  16.745   3.651  0.00  0.00     0.025 A 
HETATM   13  C   UNK N   1      33.112  16.264   2.924  0.00  0.00     0.068 C 
ENDROOT
BRANCH   8  14
HETATM   14  C   UNK N   1      29.020  18.299   9.404  0.00  0.00     0.181 C 
HETATM   15  O   UNK N   1      29.495  18.852  10.383  0.00  0.00    -0.646 OA
BRANCH  14  16
HETATM   16  O   UNK N   1      27.692  18.073   9.356  0.00  0.00    -0.772 OA
HETATM   17  H   UNK N   1      27.284  17.832   8.549  0.00  0.00     0.167 HD
ENDBRANCH  14  16
ENDBRANCH   8  14
BRANCH   2  18
HETATM   18  C   UNK N   1      33.539  17.044   7.843  0.00  0.00     0.125 C 
HETATM   19  C   UNK N   1      34.321  18.325   8.116  0.00  0.00     0.027 C 
ENDBRANCH   2  18
TORSDOF 3
ENDMDL
MODEL 5
REMARK VINA RESULT:      -5.9     11.135     12.814
REMARK  3 active torsions:
REMARK  status: ('A' for Active; 'I' for Inactive)
REMARK    1  A    between atoms: O_2  and  C_17 
REMARK    2  A    between atoms: N_4  and  C_9 
REMARK    3  A    between atoms: C_11  and  C_17 
ROOT
HETATM    1  O   UNK N   1      30.785  22.897  -1.795  0.00  0.00    -0.286 OA
HETATM    2  N   UNK N   1      30.020  22.065  -5.650  0.00  0.00    -0.342 N 
HETATM    3  N   UNK N   1      27.991  23.287  -5.518  0.00  0.00    -0.345 N 
ATOM      4  HN  UNK N   1      27.813  23.070  -6.499  1.00  0.00     0.167 HD
HETATM    5  C   UNK N   1      29.128  22.811  -4.929  0.00  0.00     0.122 A 
HETATM    6  C   UNK N   1      29.379  23.103  -3.569  0.00  0.00     0.059 A 
HETATM    7  C   UNK N   1      31.179  21.628  -5.071  0.00  0.00     0.115 A 
HETATM    8  C   UNK N   1      31.485  21.907  -3.735  0.00  0.00     0.104 A 
HETATM    9  C   UNK N   1      30.559  22.642  -2.968  0.00  0.00     0.204 A 
HETATM   10  C   UNK N   1      28.448  23.865  -2.853  0.00  0.00     0.021 A 
HETATM   11  C   UNK N   1      27.090  24.044  -4.834  0.00  0.00     0.007 A 
HETATM   12  C   UNK N   1      27.301  24.340  -3.488  0.00  0.00     0.025 A 
HETATM   13  C   UNK N   1      25.887  24.570  -5.529  0.00  0.00     0.068 C 
ENDROOT
BRANCH   8  14
HETATM   14  C   UNK N   1      32.785  21.437  -3.189  0.00  0.00     0.181 C 
HETATM   15  O   UNK N   1      33.777  21.373  -3.898  0.00  0.00    -0.646 OA
BRANCH  14  16
HETATM   16  O   UNK N   1      32.870  21.043  -1.903  0.00  0.00    -0.772 OA
HETATM   17  H   UNK N   1      32.491  20.230  -1.634  0.00  0.00     0.167 HD
ENDBRANCH  14  16
ENDBRANCH   8  14
BRANCH   2  18
HETATM   18  C   UNK N   1      29.723  21.752  -7.056  0.00  0.00     0.125 C 
HETATM   19  C   UNK N   1      29.595  20.260  -7.351  0.00  0.00     0.027 C 
ENDBRANCH   2  18
TORSDOF 3
ENDMDL
MODEL 6
REMARK VINA RESULT:      -5.9      1.481      3.264
REMARK  3 active torsions:
REMARK  status: ('A' for Active; 'I' for Inactive)
REMARK    1  A    between atoms: O_2  and  C_17 
REMARK    2  A    between atoms: N_4  and  C_9 
REMARK    3  A    between atoms: C_11  and  C_17 
ROOT
HETATM    1  O   UNK N   1      31.428  17.704   8.951  0.00  0.00    -0.286 OA
HETATM    2  N   UNK N   1      32.591  17.301   5.127  0.00  0.00    -0.342 N 
HETATM    3  N   UNK N   1      30.338  16.951   4.471  0.00  0.00    -0.345 N 
ATOM      4  HN  UNK N   1      30.649  16.855   3.505  1.00  0.00     0.167 HD
HETATM    5  C   UNK N   1      31.266  17.185   5.447  0.00  0.00     0.122 A 
HETATM    6  C   UNK N   1      30.843  17.315   6.789  0.00  0.00     0.059 A 
HETATM    7  C   UNK N   1      33.512  17.580   6.098  0.00  0.00     0.115 A 
HETATM    8  C   UNK N   1      33.143  17.738   7.438  0.00  0.00     0.104 A 
HETATM    9  C   UNK N   1      31.787  17.585   7.790  0.00  0.00     0.204 A 
HETATM   10  C   UNK N   1      29.482  17.188   7.090  0.00  0.00     0.021 A 
HETATM   11  C   UNK N   1      29.011  16.845   4.753  0.00  0.00     0.007 A 
HETATM   12  C   UNK N   1      28.561  16.956   6.068  0.00  0.00     0.025 A 
HETATM   13  C   UNK N   1      28.037  16.627   3.652  0.00  0.00     0.068 C 
ENDROOT
BRANCH   8  14
HETATM   14  C   UNK N   1      34.195  18.086   8.429  0.00  0.00     0.181 C 
HETATM   15  O   UNK N   1      34.982  18.995   8.217  0.00  0.00    -0.646 OA
BRANCH  14  16
HETATM   16  O   UNK N   1      34.309  17.370   9.565  0.00  0.00    -0.772 OA
HETATM   17  H   UNK N   1      33.840  17.627  10.334  0.00  0.00     0.167 HD
ENDBRANCH  14  16
ENDBRANCH   8  14
BRANCH   2  18
HETATM   18  C   UNK N   1      33.009  17.135   3.726  0.00  0.00     0.125 C 
HETATM   19  C   UNK N   1      33.464  15.722   3.373  0.00  0.00     0.027 C 
ENDBRANCH   2  18
TORSDOF 3
ENDMDL
MODEL 7
REMARK VINA RESULT:      -5.8     11.320     12.803
REMARK  3 active torsions:
REMARK  status: ('A' for Active; 'I' for Inactive)
REMARK    1  A    between atoms: O_2  and  C_17 
REMARK    2  A    between atoms: N_4  and  C_9 
REMARK    3  A    between atoms: C_11  and  C_17 
ROOT
HETATM    1  O   UNK N   1      20.322  17.842  -0.266  0.00  0.00    -0.286 OA
HETATM    2  N   UNK N   1      20.397  17.428   3.729  0.00  0.00    -0.342 N 
HETATM    3  N   UNK N   1      19.918  15.115   3.505  0.00  0.00    -0.345 N 
ATOM      4  HN  UNK N   1      19.943  15.025   4.520  1.00  0.00     0.167 HD
HETATM    5  C   UNK N   1      20.135  16.340   2.940  0.00  0.00     0.122 A 
HETATM    6  C   UNK N   1      20.096  16.473   1.534  0.00  0.00     0.059 A 
HETATM    7  C   UNK N   1      20.659  18.643   3.160  0.00  0.00     0.115 A 
HETATM    8  C   UNK N   1      20.653  18.823   1.773  0.00  0.00     0.104 A 
HETATM    9  C   UNK N   1      20.348  17.722   0.949  0.00  0.00     0.204 A 
HETATM   10  C   UNK N   1      19.821  15.345   0.751  0.00  0.00     0.021 A 
HETATM   11  C   UNK N   1      19.669  14.011   2.750  0.00  0.00     0.007 A 
HETATM   12  C   UNK N   1      19.611  14.109   1.360  0.00  0.00     0.025 A 
HETATM   13  C   UNK N   1      19.475  12.692   3.409  0.00  0.00     0.068 C 
ENDROOT
BRANCH   8  14
HETATM   14  C   UNK N   1      20.992  20.164   1.228  0.00  0.00     0.181 C 
HETATM   15  O   UNK N   1      21.630  20.967   1.891  0.00  0.00    -0.646 OA
BRANCH  14  16
HETATM   16  O   UNK N   1      20.565  20.517  -0.000  0.00  0.00    -0.772 OA
HETATM   17  H   UNK N   1      20.532  21.419  -0.246  0.00  0.00     0.167 HD
ENDBRANCH  14  16
ENDBRANCH   8  14
BRANCH   2  18
HETATM   18  C   UNK N   1      20.405  17.269   5.191  0.00  0.00     0.125 C 
HETATM   19  C   UNK N   1      21.451  18.120   5.906  0.00  0.00     0.027 C 
ENDBRANCH   2  18
TORSDOF 3
ENDMDL
MODEL 8
REMARK VINA RESULT:      -5.6      3.529      5.030
REMARK  3 active torsions:
REMARK  status: ('A' for Active; 'I' for Inactive)
REMARK    1  A    between atoms: O_2  and  C_17 
REMARK    2  A    between atoms: N_4  and  C_9 
REMARK    3  A    between atoms: C_11  and  C_17 
ROOT
HETATM    1  O   UNK N   1      35.307  17.120  11.030  0.00  0.00    -0.286 OA
HETATM    2  N   UNK N   1      33.880  14.190   8.682  0.00  0.00    -0.342 N 
HETATM    3  N   UNK N   1      33.518  15.755   6.936  0.00  0.00    -0.345 N 
ATOM      4  HN  UNK N   1      33.162  15.000   6.351  1.00  0.00     0.167 HD
HETATM    5  C   UNK N   1      33.932  15.473   8.207  0.00  0.00     0.122 A 
HETATM    6  C   UNK N   1      34.422  16.515   9.025  0.00  0.00     0.059 A 
HETATM    7  C   UNK N   1      34.337  13.901   9.938  0.00  0.00     0.115 A 
HETATM    8  C   UNK N   1      34.850  14.893  10.780  0.00  0.00     0.104 A 
HETATM    9  C   UNK N   1      34.876  16.225  10.320  0.00  0.00     0.204 A 
HETATM   10  C   UNK N   1      34.461  17.819   8.517  0.00  0.00     0.021 A 
HETATM   11  C   UNK N   1      33.570  17.017   6.428  0.00  0.00     0.007 A 
HETATM   12  C   UNK N   1      34.037  18.071   7.213  0.00  0.00     0.025 A 
HETATM   13  C   UNK N   1      33.144  17.268   5.027  0.00  0.00     0.068 C 
ENDROOT
BRANCH   8  14
HETATM   14  C   UNK N   1      35.369  14.495  12.114  0.00  0.00     0.181 C 
HETATM   15  O   UNK N   1      34.732  13.746  12.838  0.00  0.00    -0.646 OA
BRANCH  14  16
HETATM   16  O   UNK N   1      36.544  14.989  12.552  0.00  0.00    -0.772 OA
HETATM   17  H   UNK N   1      36.566  15.779  13.054  0.00  0.00     0.167 HD
ENDBRANCH  14  16
ENDBRANCH   8  14
BRANCH   2  18
HETATM   18  C   UNK N   1      33.340  13.127   7.820  0.00  0.00     0.125 C 
HETATM   19  C   UNK N   1      33.572  11.714   8.350  0.00  0.00     0.027 C 
ENDBRANCH   2  18
TORSDOF 3
ENDMDL
MODEL 9
REMARK VINA RESULT:      -5.6     11.060     12.512
REMARK  3 active torsions:
REMARK  status: ('A' for Active; 'I' for Inactive)
REMARK    1  A    between atoms: O_2  and  C_17 
REMARK    2  A    between atoms: N_4  and  C_9 
REMARK    3  A    between atoms: C_11  and  C_17 
ROOT
HETATM    1  O   UNK N   1      32.466  21.688  -2.022  0.00  0.00    -0.286 OA
HETATM    2  N   UNK N   1      30.948  20.987  -5.674  0.00  0.00    -0.342 N 
HETATM    3  N   UNK N   1      32.851  19.682  -6.222  0.00  0.00    -0.345 N 
ATOM      4  HN  UNK N   1      32.451  19.511  -7.145  1.00  0.00     0.167 HD
HETATM    5  C   UNK N   1      32.163  20.459  -5.334  0.00  0.00     0.122 A 
HETATM    6  C   UNK N   1      32.714  20.705  -4.056  0.00  0.00     0.059 A 
HETATM    7  C   UNK N   1      30.240  21.727  -4.768  0.00  0.00     0.115 A 
HETATM    8  C   UNK N   1      30.731  21.982  -3.483  0.00  0.00     0.104 A 
HETATM    9  C   UNK N   1      31.998  21.477  -3.130  0.00  0.00     0.204 A 
HETATM   10  C   UNK N   1      33.961  20.156  -3.735  0.00  0.00     0.021 A 
HETATM   11  C   UNK N   1      34.055  19.129  -5.911  0.00  0.00     0.007 A 
HETATM   12  C   UNK N   1      34.633  19.362  -4.664  0.00  0.00     0.025 A 
HETATM   13  C   UNK N   1      34.748  18.261  -6.899  0.00  0.00     0.068 C 
ENDROOT
BRANCH   8  14
HETATM   14  C   UNK N   1      29.884  22.756  -2.539  0.00  0.00     0.181 C 
HETATM   15  O   UNK N   1      28.789  23.177  -2.878  0.00  0.00    -0.646 OA
BRANCH  14  16
HETATM   16  O   UNK N   1      30.337  23.028  -1.299  0.00  0.00    -0.772 OA
HETATM   17  H   UNK N   1      29.784  22.897  -0.555  0.00  0.00     0.167 HD
ENDBRANCH  14  16
ENDBRANCH   8  14
BRANCH   2  18
HETATM   18  C   UNK N   1      30.408  20.739  -7.020  0.00  0.00     0.125 C 
HETATM   19  C   UNK N   1      29.033  21.354  -7.266  0.00  0.00     0.027 C 
ENDBRANCH   2  18
TORSDOF 3
ENDMDL
