MODEL 1
REMARK VINA RESULT:      -4.7      0.000      0.000
REMARK  4 active torsions:
REMARK  status: ('A' for Active; 'I' for Inactive)
REMARK    1  A    between atoms: N_1  and  N_2 
REMARK    2  A    between atoms: N_1  and  C_5 
REMARK    3  A    between atoms: C_3  and  C_4 
REMARK    4  A    between atoms: C_3  and  C_5 
ROOT
HETATM    1  C   UNK N   1      35.394  13.200  15.552  0.00  0.00     0.060 C 
ENDROOT
BRANCH   1   2
HETATM    2  C   UNK N   1      35.385  12.681  16.959  0.00  0.00    -0.057 A 
HETATM    3  C   UNK N   1      35.624  11.325  17.250  0.00  0.00     0.007 A 
HETATM    4  C   UNK N   1      35.610  10.872  18.569  0.00  0.00     0.001 A 
HETATM    5  C   UNK N   1      35.358  11.767  19.611  0.00  0.00     0.000 A 
HETATM    6  C   UNK N   1      35.119  13.116  19.332  0.00  0.00     0.001 A 
HETATM    7  C   UNK N   1      35.133  13.571  18.010  0.00  0.00     0.007 A 
ENDBRANCH   1   2
BRANCH   1   8
HETATM    8  C   UNK N   1      36.794  13.520  15.050  0.00  0.00     0.143 C 
BRANCH   8   9
HETATM    9  N   UNK N   1      36.753  14.634  14.124  0.00  0.00    -0.343 N 
HETATM   10  H   UNK N   1      36.693  15.624  14.360  0.00  0.00     0.179 HD
BRANCH   9  11
HETATM   11  N   UNK N   1      36.812  14.078  12.841  0.00  0.00    -0.349 N 
HETATM   12  H   UNK N   1      37.647  13.574  12.542  0.00  0.00     0.176 HD
HETATM   13  H   UNK N   1      36.021  14.178  12.206  0.00  0.00     0.176 HD
ENDBRANCH   9  11
ENDBRANCH   8   9
ENDBRANCH   1   8
TORSDOF 4
ENDMDL
MODEL 2
REMARK VINA RESULT:      -4.5     26.367     27.568
REMARK  4 active torsions:
REMARK  status: ('A' for Active; 'I' for Inactive)
REMARK    1  A    between atoms: N_1  and  N_2 
REMARK    2  A    between atoms: N_1  and  C_5 
REMARK    3  A    between atoms: C_3  and  C_4 
REMARK    4  A    between atoms: C_3  and  C_5 
ROOT
HETATM    1  C   UNK N   1      25.940  23.797  -5.793  0.00  0.00     0.060 C 
ENDROOT
BRANCH   1   2
HETATM    2  C   UNK N   1      25.827  25.156  -5.168  0.00  0.00    -0.057 A 
HETATM    3  C   UNK N   1      25.149  26.211  -5.807  0.00  0.00     0.007 A 
HETATM    4  C   UNK N   1      25.061  27.465  -5.201  0.00  0.00     0.001 A 
HETATM    5  C   UNK N   1      25.648  27.678  -3.951  0.00  0.00     0.000 A 
HETATM    6  C   UNK N   1      26.324  26.636  -3.309  0.00  0.00     0.001 A 
HETATM    7  C   UNK N   1      26.413  25.379  -3.916  0.00  0.00     0.007 A 
ENDBRANCH   1   2
BRANCH   1   8
HETATM    8  C   UNK N   1      25.966  23.848  -7.313  0.00  0.00     0.143 C 
BRANCH   8   9
HETATM    9  N   UNK N   1      24.899  23.035  -7.861  0.00  0.00    -0.343 N 
HETATM   10  H   UNK N   1      24.428  23.165  -8.756  0.00  0.00     0.179 HD
BRANCH   9  11
HETATM   11  N   UNK N   1      24.644  22.036  -6.915  0.00  0.00    -0.349 N 
HETATM   12  H   UNK N   1      23.683  21.810  -6.659  0.00  0.00     0.176 HD
HETATM   13  H   UNK N   1      25.420  21.535  -6.482  0.00  0.00     0.176 HD
ENDBRANCH   9  11
ENDBRANCH   8   9
ENDBRANCH   1   8
TORSDOF 4
ENDMDL
MODEL 3
REMARK VINA RESULT:      -4.4     11.141     12.188
REMARK  4 active torsions:
REMARK  status: ('A' for Active; 'I' for Inactive)
REMARK    1  A    between atoms: N_1  and  N_2 
REMARK    2  A    between atoms: N_1  and  C_5 
REMARK    3  A    between atoms: C_3  and  C_4 
REMARK    4  A    between atoms: C_3  and  C_5 
ROOT
HETATM    1  C   UNK N   1      30.174  17.587   8.984  0.00  0.00     0.060 C 
ENDROOT
BRANCH   1   2
HETATM    2  C   UNK N   1      31.309  17.562   8.004  0.00  0.00    -0.057 A 
HETATM    3  C   UNK N   1      32.607  17.971   8.364  0.00  0.00     0.007 A 
HETATM    4  C   UNK N   1      33.643  17.937   7.430  0.00  0.00     0.001 A 
HETATM    5  C   UNK N   1      33.395  17.494   6.129  0.00  0.00     0.000 A 
HETATM    6  C   UNK N   1      32.109  17.086   5.763  0.00  0.00     0.001 A 
HETATM    7  C   UNK N   1      31.070  17.120   6.698  0.00  0.00     0.007 A 
ENDBRANCH   1   2
BRANCH   1   8
HETATM    8  C   UNK N   1      28.811  17.568   8.308  0.00  0.00     0.143 C 
BRANCH   8   9
HETATM    9  N   UNK N   1      27.843  18.290   9.109  0.00  0.00    -0.343 N 
HETATM   10  H   UNK N   1      27.556  18.075  10.064  0.00  0.00     0.179 HD
BRANCH   9  11
HETATM   11  N   UNK N   1      27.381  19.341   8.310  0.00  0.00    -0.349 N 
HETATM   12  H   UNK N   1      26.391  19.588   8.315  0.00  0.00     0.176 HD
HETATM   13  H   UNK N   1      28.034  19.860   7.723  0.00  0.00     0.176 HD
ENDBRANCH   9  11
ENDBRANCH   8   9
ENDBRANCH   1   8
TORSDOF 4
ENDMDL
MODEL 4
REMARK VINA RESULT:      -4.4     11.168     12.075
REMARK  4 active torsions:
REMARK  status: ('A' for Active; 'I' for Inactive)
REMARK    1  A    between atoms: N_1  and  N_2 
REMARK    2  A    between atoms: N_1  and  C_5 
REMARK    3  A    between atoms: C_3  and  C_4 
REMARK    4  A    between atoms: C_3  and  C_5 
ROOT
HETATM    1  C   UNK N   1      29.889  17.304   8.636  0.00  0.00     0.060 C 
ENDROOT
BRANCH   1   2
HETATM    2  C   UNK N   1      31.131  17.402   7.800  0.00  0.00    -0.057 A 
HETATM    3  C   UNK N   1      31.141  17.032   6.442  0.00  0.00     0.007 A 
HETATM    4  C   UNK N   1      32.312  17.133   5.690  0.00  0.00     0.001 A 
HETATM    5  C   UNK N   1      33.484  17.605   6.285  0.00  0.00     0.000 A 
HETATM    6  C   UNK N   1      33.483  17.975   7.634  0.00  0.00     0.001 A 
HETATM    7  C   UNK N   1      32.311  17.873   8.388  0.00  0.00     0.007 A 
ENDBRANCH   1   2
BRANCH   1   8
HETATM    8  C   UNK N   1      29.198  18.646   8.824  0.00  0.00     0.143 C 
BRANCH   8   9
HETATM    9  N   UNK N   1      27.791  18.451   9.107  0.00  0.00    -0.343 N 
HETATM   10  H   UNK N   1      27.147  19.132   9.510  0.00  0.00     0.179 HD
BRANCH   9  11
HETATM   11  N   UNK N   1      27.491  17.142   8.718  0.00  0.00    -0.349 N 
HETATM   12  H   UNK N   1      28.242  16.463   8.592  0.00  0.00     0.176 HD
HETATM   13  H   UNK N   1      26.522  16.866   8.560  0.00  0.00     0.176 HD
ENDBRANCH   9  11
ENDBRANCH   8   9
ENDBRANCH   1   8
TORSDOF 4
ENDMDL
MODEL 5
REMARK VINA RESULT:      -4.4     14.941     16.016
REMARK  4 active torsions:
REMARK  status: ('A' for Active; 'I' for Inactive)
REMARK    1  A    between atoms: N_1  and  N_2 
REMARK    2  A    between atoms: N_1  and  C_5 
REMARK    3  A    between atoms: C_3  and  C_4 
REMARK    4  A    between atoms: C_3  and  C_5 
ROOT
HETATM    1  C   UNK N   1      21.767  12.269  10.997  0.00  0.00     0.060 C 
ENDROOT
BRANCH   1   2
HETATM    2  C   UNK N   1      21.404  12.961   9.716  0.00  0.00    -0.057 A 
HETATM    3  C   UNK N   1      21.731  12.414   8.462  0.00  0.00     0.007 A 
HETATM    4  C   UNK N   1      21.380  13.081   7.287  0.00  0.00     0.001 A 
HETATM    5  C   UNK N   1      20.700  14.299   7.354  0.00  0.00     0.000 A 
HETATM    6  C   UNK N   1      20.371  14.849   8.596  0.00  0.00     0.001 A 
HETATM    7  C   UNK N   1      20.722  14.182   9.773  0.00  0.00     0.007 A 
ENDBRANCH   1   2
BRANCH   1   8
HETATM    8  C   UNK N   1      23.135  11.605  10.941  0.00  0.00     0.143 C 
BRANCH   8   9
HETATM    9  N   UNK N   1      24.076  12.321  11.778  0.00  0.00    -0.343 N 
HETATM   10  H   UNK N   1      23.986  12.512  12.776  0.00  0.00     0.179 HD
BRANCH   9  11
HETATM   11  N   UNK N   1      25.134  12.697  10.943  0.00  0.00    -0.349 N 
HETATM   12  H   UNK N   1      25.316  13.684  10.765  0.00  0.00     0.176 HD
HETATM   13  H   UNK N   1      25.722  11.983  10.513  0.00  0.00     0.176 HD
ENDBRANCH   9  11
ENDBRANCH   8   9
ENDBRANCH   1   8
TORSDOF 4
ENDMDL
MODEL 6
REMARK VINA RESULT:      -4.2      1.906      2.025
REMARK  4 active torsions:
REMARK  status: ('A' for Active; 'I' for Inactive)
REMARK    1  A    between atoms: N_1  and  N_2 
REMARK    2  A    between atoms: N_1  and  C_5 
REMARK    3  A    between atoms: C_3  and  C_4 
REMARK    4  A    between atoms: C_3  and  C_5 
ROOT
HETATM    1  C   UNK N   1      35.210  13.114  15.082  0.00  0.00     0.060 C 
ENDROOT
BRANCH   1   2
HETATM    2  C   UNK N   1      35.294  12.634  16.501  0.00  0.00    -0.057 A 
HETATM    3  C   UNK N   1      35.574  11.291  16.812  0.00  0.00     0.007 A 
HETATM    4  C   UNK N   1      35.645  10.874  18.142  0.00  0.00     0.001 A 
HETATM    5  C   UNK N   1      35.438  11.793  19.173  0.00  0.00     0.000 A 
HETATM    6  C   UNK N   1      35.158  13.129  18.873  0.00  0.00     0.001 A 
HETATM    7  C   UNK N   1      35.087  13.548  17.541  0.00  0.00     0.007 A 
ENDBRANCH   1   2
BRANCH   1   8
HETATM    8  C   UNK N   1      35.504  12.017  14.070  0.00  0.00     0.143 C 
BRANCH   8   9
HETATM    9  N   UNK N   1      34.427  11.923  13.104  0.00  0.00    -0.343 N 
HETATM   10  H   UNK N   1      34.194  12.602  12.380  0.00  0.00     0.179 HD
BRANCH   9  11
HETATM   11  N   UNK N   1      33.773  10.715  13.365  0.00  0.00    -0.349 N 
HETATM   12  H   UNK N   1      33.085  10.355  12.704  0.00  0.00     0.176 HD
HETATM   13  H   UNK N   1      33.984  10.194  14.217  0.00  0.00     0.176 HD
ENDBRANCH   9  11
ENDBRANCH   8   9
ENDBRANCH   1   8
TORSDOF 4
ENDMDL
MODEL 7
REMARK VINA RESULT:      -4.2     10.306     12.158
REMARK  4 active torsions:
REMARK  status: ('A' for Active; 'I' for Inactive)
REMARK    1  A    between atoms: N_1  and  N_2 
REMARK    2  A    between atoms: N_1  and  C_5 
REMARK    3  A    between atoms: C_3  and  C_4 
REMARK    4  A    between atoms: C_3  and  C_5 
ROOT
HETATM    1  C   UNK N   1      34.282  17.148   7.101  0.00  0.00     0.060 C 
ENDROOT
BRANCH   1   2
HETATM    2  C   UNK N   1      33.051  17.251   6.249  0.00  0.00    -0.057 A 
HETATM    3  C   UNK N   1      31.763  17.070   6.784  0.00  0.00     0.007 A 
HETATM    4  C   UNK N   1      30.637  17.172   5.966  0.00  0.00     0.001 A 
HETATM    5  C   UNK N   1      30.786  17.455   4.607  0.00  0.00     0.000 A 
HETATM    6  C   UNK N   1      32.062  17.637   4.066  0.00  0.00     0.001 A 
HETATM    7  C   UNK N   1      33.191  17.535   4.885  0.00  0.00     0.007 A 
ENDBRANCH   1   2
BRANCH   1   8
HETATM    8  C   UNK N   1      34.356  18.236   8.162  0.00  0.00     0.143 C 
BRANCH   8   9
HETATM    9  N   UNK N   1      34.857  17.689   9.407  0.00  0.00    -0.343 N 
HETATM   10  H   UNK N   1      35.699  17.975   9.907  0.00  0.00     0.179 HD
BRANCH   9  11
HETATM   11  N   UNK N   1      33.955  16.689   9.786  0.00  0.00    -0.349 N 
HETATM   12  H   UNK N   1      33.204  16.902  10.443  0.00  0.00     0.176 HD
HETATM   13  H   UNK N   1      34.048  15.748   9.405  0.00  0.00     0.176 HD
ENDBRANCH   9  11
ENDBRANCH   8   9
ENDBRANCH   1   8
TORSDOF 4
ENDMDL
MODEL 8
REMARK VINA RESULT:      -4.2     10.503     12.459
REMARK  4 active torsions:
REMARK  status: ('A' for Active; 'I' for Inactive)
REMARK    1  A    between atoms: N_1  and  N_2 
REMARK    2  A    between atoms: N_1  and  C_5 
REMARK    3  A    between atoms: C_3  and  C_4 
REMARK    4  A    between atoms: C_3  and  C_5 
ROOT
HETATM    1  C   UNK N   1      34.015  17.743   7.097  0.00  0.00     0.060 C 
ENDROOT
BRANCH   1   2
HETATM    2  C   UNK N   1      33.730  17.093   5.776  0.00  0.00    -0.057 A 
HETATM    3  C   UNK N   1      32.984  17.744   4.776  0.00  0.00     0.007 A 
HETATM    4  C   UNK N   1      32.735  17.114   3.556  0.00  0.00     0.001 A 
HETATM    5  C   UNK N   1      33.228  15.829   3.323  0.00  0.00     0.000 A 
HETATM    6  C   UNK N   1      33.970  15.174   4.310  0.00  0.00     0.001 A 
HETATM    7  C   UNK N   1      34.220  15.805   5.532  0.00  0.00     0.007 A 
ENDBRANCH   1   2
BRANCH   1   8
HETATM    8  C   UNK N   1      32.790  17.810   7.998  0.00  0.00     0.143 C 
BRANCH   8   9
HETATM    9  N   UNK N   1      32.945  16.910   9.123  0.00  0.00    -0.343 N 
HETATM   10  H   UNK N   1      32.277  16.208   9.442  0.00  0.00     0.179 HD
BRANCH   9  11
HETATM   11  N   UNK N   1      34.195  17.196   9.683  0.00  0.00    -0.349 N 
HETATM   12  H   UNK N   1      35.011  16.644   9.419  0.00  0.00     0.176 HD
HETATM   13  H   UNK N   1      34.289  17.957  10.356  0.00  0.00     0.176 HD
ENDBRANCH   9  11
ENDBRANCH   8   9
ENDBRANCH   1   8
TORSDOF 4
ENDMDL
MODEL 9
REMARK VINA RESULT:      -4.1      9.424     11.033
REMARK  4 active torsions:
REMARK  status: ('A' for Active; 'I' for Inactive)
REMARK    1  A    between atoms: N_1  and  N_2 
REMARK    2  A    between atoms: N_1  and  C_5 
REMARK    3  A    between atoms: C_3  and  C_4 
REMARK    4  A    between atoms: C_3  and  C_5 
ROOT
HETATM    1  C   UNK N   1      32.246  17.227   7.582  0.00  0.00     0.060 C 
ENDROOT
BRANCH   1   2
HETATM    2  C   UNK N   1      30.846  17.519   8.035  0.00  0.00    -0.057 A 
HETATM    3  C   UNK N   1      30.586  18.267   9.199  0.00  0.00     0.007 A 
HETATM    4  C   UNK N   1      29.273  18.522   9.596  0.00  0.00     0.001 A 
HETATM    5  C   UNK N   1      28.208  18.034   8.836  0.00  0.00     0.000 A 
HETATM    6  C   UNK N   1      28.457  17.290   7.679  0.00  0.00     0.001 A 
HETATM    7  C   UNK N   1      29.772  17.034   7.280  0.00  0.00     0.007 A 
ENDBRANCH   1   2
BRANCH   1   8
HETATM    8  C   UNK N   1      33.126  16.684   8.698  0.00  0.00     0.143 C 
BRANCH   8   9
HETATM    9  N   UNK N   1      34.186  17.624   9.004  0.00  0.00    -0.343 N 
HETATM   10  H   UNK N   1      34.449  18.447   8.463  0.00  0.00     0.179 HD
BRANCH   9  11
HETATM   11  N   UNK N   1      34.774  17.176  10.192  0.00  0.00    -0.349 N 
HETATM   12  H   UNK N   1      34.239  17.182  11.060  0.00  0.00     0.176 HD
HETATM   13  H   UNK N   1      35.738  16.842  10.188  0.00  0.00     0.176 HD
ENDBRANCH   9  11
ENDBRANCH   8   9
ENDBRANCH   1   8
TORSDOF 4
ENDMDL
