MODEL 1
REMARK VINA RESULT:      -6.5      0.000      0.000
REMARK  7 active torsions:
REMARK  status: ('A' for Active; 'I' for Inactive)
REMARK    1  A    between atoms: O_1  and  C_13 
REMARK    2  A    between atoms: O_1  and  C_15 
REMARK    3  A    between atoms: N_4  and  C_5 
REMARK    4  A    between atoms: N_4  and  C_6 
REMARK    5  A    between atoms: N_4  and  C_7 
REMARK    6  A    between atoms: C_7  and  C_13 
REMARK    7  A    between atoms: C_14  and  C_15 
ROOT
HETATM    1  O   UNK N   1      30.358  16.301   6.080  0.00  0.00    -0.310 OA
HETATM    2  C   UNK N   1      32.639  17.368   7.380  0.00  0.00     0.157 A 
HETATM    3  C   UNK N   1      32.758  16.491   6.169  0.00  0.00    -0.006 A 
HETATM    4  C   UNK N   1      31.250  17.647   7.869  0.00  0.00    -0.006 A 
HETATM    5  C   UNK N   1      31.581  15.995   5.573  0.00  0.00     0.083 A 
HETATM    6  C   UNK N   1      30.160  17.086   7.173  0.00  0.00     0.083 A 
HETATM    7  C   UNK N   1      34.006  16.152   5.632  0.00  0.00     0.011 A 
HETATM    8  C   UNK N   1      31.021  18.455   8.990  0.00  0.00     0.011 A 
HETATM    9  C   UNK N   1      31.672  15.170   4.447  0.00  0.00     0.038 A 
HETATM   10  C   UNK N   1      28.857  17.337   7.612  0.00  0.00     0.038 A 
HETATM   11  C   UNK N   1      34.087  15.329   4.506  0.00  0.00     0.001 A 
HETATM   12  C   UNK N   1      29.715  18.702   9.420  0.00  0.00     0.001 A 
HETATM   13  C   UNK N   1      32.921  14.838   3.914  0.00  0.00     0.003 A 
HETATM   14  C   UNK N   1      28.634  18.143   8.733  0.00  0.00     0.003 A 
ENDROOT
BRANCH   2  15
HETATM   15  C   UNK N   1      33.849  17.883   8.107  0.00  0.00     0.272 C 
HETATM   16  O   UNK N   1      34.632  18.620   7.531  0.00  0.00    -0.264 OA
BRANCH  15  17
HETATM   17  O   UNK N   1      34.090  17.505   9.382  0.00  0.00    -0.319 OA
BRANCH  17  18
HETATM   18  C   UNK N   1      35.081  16.607   9.717  0.00  0.00     0.206 C 
BRANCH  18  19
HETATM   19  C   UNK N   1      34.517  15.299  10.297  0.00  0.00     0.264 C 
BRANCH  19  20
HETATM   20  N   UNK N   1      34.848  14.078   9.522  0.00  0.00    -0.062 N 
HETATM   21  C   UNK N   1      35.804  14.420   8.459  0.00  0.00     0.273 C 
BRANCH  20  22
HETATM   22  C   UNK N   1      33.609  13.441   8.969  0.00  0.00     0.182 C 
HETATM   23  C   UNK N   1      32.342  14.284   9.055  0.00  0.00     0.040 C 
HETATM   24  C   UNK N   1      33.740  12.990   7.513  0.00  0.00     0.040 C 
ENDBRANCH  20  22
BRANCH  20  25
HETATM   25  C   UNK N   1      35.486  13.144  10.496  0.00  0.00     0.182 C 
HETATM   26  C   UNK N   1      35.086  13.404  11.952  0.00  0.00     0.040 C 
HETATM   27  C   UNK N   1      37.011  13.106  10.439  0.00  0.00     0.040 C 
ENDBRANCH  20  25
ENDBRANCH  19  20
ENDBRANCH  18  19
ENDBRANCH  17  18
ENDBRANCH  15  17
ENDBRANCH   2  15
TORSDOF 7
ENDMDL
MODEL 2
REMARK VINA RESULT:      -6.4      0.423      3.594
REMARK  7 active torsions:
REMARK  status: ('A' for Active; 'I' for Inactive)
REMARK    1  A    between atoms: O_1  and  C_13 
REMARK    2  A    between atoms: O_1  and  C_15 
REMARK    3  A    between atoms: N_4  and  C_5 
REMARK    4  A    between atoms: N_4  and  C_6 
REMARK    5  A    between atoms: N_4  and  C_7 
REMARK    6  A    between atoms: C_7  and  C_13 
REMARK    7  A    between atoms: C_14  and  C_15 
ROOT
HETATM    1  O   UNK N   1      30.257  16.456   6.012  0.00  0.00    -0.310 OA
HETATM    2  C   UNK N   1      32.499  17.371   7.484  0.00  0.00     0.157 A 
HETATM    3  C   UNK N   1      31.094  17.657   7.926  0.00  0.00    -0.006 A 
HETATM    4  C   UNK N   1      32.654  16.578   6.222  0.00  0.00    -0.006 A 
HETATM    5  C   UNK N   1      30.026  17.171   7.144  0.00  0.00     0.083 A 
HETATM    6  C   UNK N   1      31.496  16.153   5.540  0.00  0.00     0.083 A 
HETATM    7  C   UNK N   1      30.828  18.400   9.083  0.00  0.00     0.011 A 
HETATM    8  C   UNK N   1      33.920  16.251   5.718  0.00  0.00     0.011 A 
HETATM    9  C   UNK N   1      28.708  17.434   7.535  0.00  0.00     0.038 A 
HETATM   10  C   UNK N   1      31.621  15.411   4.362  0.00  0.00     0.038 A 
HETATM   11  C   UNK N   1      29.509  18.655   9.467  0.00  0.00     0.001 A 
HETATM   12  C   UNK N   1      34.035  15.508   4.541  0.00  0.00     0.001 A 
HETATM   13  C   UNK N   1      28.451  18.173   8.693  0.00  0.00     0.003 A 
HETATM   14  C   UNK N   1      32.886  15.089   3.864  0.00  0.00     0.003 A 
ENDROOT
BRANCH   2  15
HETATM   15  C   UNK N   1      33.687  17.907   8.230  0.00  0.00     0.272 C 
HETATM   16  O   UNK N   1      34.381  18.772   7.721  0.00  0.00    -0.264 OA
BRANCH  15  17
HETATM   17  O   UNK N   1      34.011  17.410   9.445  0.00  0.00    -0.319 OA
BRANCH  17  18
HETATM   18  C   UNK N   1      35.001  16.467   9.623  0.00  0.00     0.206 C 
BRANCH  18  19
HETATM   19  C   UNK N   1      34.466  15.162  10.235  0.00  0.00     0.264 C 
BRANCH  19  20
HETATM   20  N   UNK N   1      34.990  13.921   9.615  0.00  0.00    -0.062 N 
HETATM   21  C   UNK N   1      36.166  14.245   8.795  0.00  0.00     0.273 C 
BRANCH  20  22
HETATM   22  C   UNK N   1      33.927  13.231   8.813  0.00  0.00     0.182 C 
HETATM   23  C   UNK N   1      32.568  13.920   8.793  0.00  0.00     0.040 C 
HETATM   24  C   UNK N   1      34.315  12.981   7.355  0.00  0.00     0.040 C 
ENDBRANCH  20  22
BRANCH  20  25
HETATM   25  C   UNK N   1      35.393  13.042  10.753  0.00  0.00     0.182 C 
HETATM   26  C   UNK N   1      34.820  11.624  10.668  0.00  0.00     0.040 C 
HETATM   27  C   UNK N   1      35.055  13.592  12.136  0.00  0.00     0.040 C 
ENDBRANCH  20  25
ENDBRANCH  19  20
ENDBRANCH  18  19
ENDBRANCH  17  18
ENDBRANCH  15  17
ENDBRANCH   2  15
TORSDOF 7
ENDMDL
MODEL 3
REMARK VINA RESULT:      -6.3     13.824     16.887
REMARK  7 active torsions:
REMARK  status: ('A' for Active; 'I' for Inactive)
REMARK    1  A    between atoms: O_1  and  C_13 
REMARK    2  A    between atoms: O_1  and  C_15 
REMARK    3  A    between atoms: N_4  and  C_5 
REMARK    4  A    between atoms: N_4  and  C_6 
REMARK    5  A    between atoms: N_4  and  C_7 
REMARK    6  A    between atoms: C_7  and  C_13 
REMARK    7  A    between atoms: C_14  and  C_15 
ROOT
HETATM    1  O   UNK N   1      31.117  19.913  -6.218  0.00  0.00    -0.310 OA
HETATM    2  C   UNK N   1      30.040  22.209  -4.955  0.00  0.00     0.157 A 
HETATM    3  C   UNK N   1      29.412  21.615  -6.180  0.00  0.00    -0.006 A 
HETATM    4  C   UNK N   1      31.269  21.527  -4.436  0.00  0.00    -0.006 A 
HETATM    5  C   UNK N   1      30.001  20.471  -6.757  0.00  0.00     0.083 A 
HETATM    6  C   UNK N   1      31.750  20.388  -5.112  0.00  0.00     0.083 A 
HETATM    7  C   UNK N   1      28.267  22.175  -6.761  0.00  0.00     0.011 A 
HETATM    8  C   UNK N   1      31.937  21.996  -3.297  0.00  0.00     0.011 A 
HETATM    9  C   UNK N   1      29.435  19.906  -7.904  0.00  0.00     0.038 A 
HETATM   10  C   UNK N   1      32.894  19.737  -4.642  0.00  0.00     0.038 A 
HETATM   11  C   UNK N   1      27.707  21.602  -7.905  0.00  0.00     0.001 A 
HETATM   12  C   UNK N   1      33.078  21.338  -2.833  0.00  0.00     0.001 A 
HETATM   13  C   UNK N   1      28.290  20.469  -8.476  0.00  0.00     0.003 A 
HETATM   14  C   UNK N   1      33.557  20.210  -3.506  0.00  0.00     0.003 A 
ENDROOT
BRANCH   2  15
HETATM   15  C   UNK N   1      29.506  23.462  -4.320  0.00  0.00     0.272 C 
HETATM   16  O   UNK N   1      28.817  23.385  -3.316  0.00  0.00    -0.264 OA
BRANCH  15  17
HETATM   17  O   UNK N   1      29.756  24.668  -4.878  0.00  0.00    -0.319 OA
BRANCH  17  18
HETATM   18  C   UNK N   1      29.145  25.827  -4.448  0.00  0.00     0.206 C 
BRANCH  18  19
HETATM   19  C   UNK N   1      28.154  26.386  -5.483  0.00  0.00     0.264 C 
BRANCH  19  20
HETATM   20  N   UNK N   1      26.758  26.521  -5.001  0.00  0.00    -0.062 N 
HETATM   21  C   UNK N   1      26.718  26.276  -3.552  0.00  0.00     0.273 C 
BRANCH  20  22
HETATM   22  C   UNK N   1      25.840  25.598  -5.745  0.00  0.00     0.182 C 
HETATM   23  C   UNK N   1      26.165  25.398  -7.220  0.00  0.00     0.040 C 
HETATM   24  C   UNK N   1      25.726  24.204  -5.125  0.00  0.00     0.040 C 
ENDBRANCH  20  22
BRANCH  20  25
HETATM   25  C   UNK N   1      26.369  27.934  -5.287  0.00  0.00     0.182 C 
HETATM   26  C   UNK N   1      27.406  28.704  -6.111  0.00  0.00     0.040 C 
HETATM   27  C   UNK N   1      26.051  28.771  -4.051  0.00  0.00     0.040 C 
ENDBRANCH  20  25
ENDBRANCH  19  20
ENDBRANCH  18  19
ENDBRANCH  17  18
ENDBRANCH  15  17
ENDBRANCH   2  15
TORSDOF 7
ENDMDL
MODEL 4
REMARK VINA RESULT:      -6.3     16.235     18.416
REMARK  7 active torsions:
REMARK  status: ('A' for Active; 'I' for Inactive)
REMARK    1  A    between atoms: O_1  and  C_13 
REMARK    2  A    between atoms: O_1  and  C_15 
REMARK    3  A    between atoms: N_4  and  C_5 
REMARK    4  A    between atoms: N_4  and  C_6 
REMARK    5  A    between atoms: N_4  and  C_7 
REMARK    6  A    between atoms: C_7  and  C_13 
REMARK    7  A    between atoms: C_14  and  C_15 
ROOT
HETATM    1  O   UNK N   1      28.148  27.269  -8.870  0.00  0.00    -0.310 OA
HETATM    2  C   UNK N   1      26.392  26.746  -6.709  0.00  0.00     0.157 A 
HETATM    3  C   UNK N   1      26.441  25.860  -7.918  0.00  0.00    -0.006 A 
HETATM    4  C   UNK N   1      27.318  27.924  -6.705  0.00  0.00    -0.006 A 
HETATM    5  C   UNK N   1      27.339  26.181  -8.957  0.00  0.00     0.083 A 
HETATM    6  C   UNK N   1      28.167  28.123  -7.812  0.00  0.00     0.083 A 
HETATM    7  C   UNK N   1      25.611  24.738  -8.037  0.00  0.00     0.011 A 
HETATM    8  C   UNK N   1      27.358  28.816  -5.625  0.00  0.00     0.011 A 
HETATM    9  C   UNK N   1      27.395  25.371 -10.096  0.00  0.00     0.038 A 
HETATM   10  C   UNK N   1      29.040  29.215  -7.826  0.00  0.00     0.038 A 
HETATM   11  C   UNK N   1      25.675  23.934  -9.178  0.00  0.00     0.001 A 
HETATM   12  C   UNK N   1      28.235  29.903  -5.647  0.00  0.00     0.001 A 
HETATM   13  C   UNK N   1      26.566  24.251 -10.207  0.00  0.00     0.003 A 
HETATM   14  C   UNK N   1      29.074  30.103  -6.747  0.00  0.00     0.003 A 
ENDROOT
BRANCH   2  15
HETATM   15  C   UNK N   1      25.418  26.505  -5.590  0.00  0.00     0.272 C 
HETATM   16  O   UNK N   1      24.409  27.186  -5.508  0.00  0.00    -0.264 OA
BRANCH  15  17
HETATM   17  O   UNK N   1      25.674  25.561  -4.656  0.00  0.00    -0.319 OA
BRANCH  17  18
HETATM   18  C   UNK N   1      26.701  25.677  -3.744  0.00  0.00     0.206 C 
BRANCH  18  19
HETATM   19  C   UNK N   1      27.596  24.427  -3.706  0.00  0.00     0.264 C 
BRANCH  19  20
HETATM   20  N   UNK N   1      29.013  24.663  -4.074  0.00  0.00    -0.062 N 
HETATM   21  C   UNK N   1      29.279  26.109  -4.085  0.00  0.00     0.273 C 
BRANCH  20  22
HETATM   22  C   UNK N   1      29.339  24.030  -5.394  0.00  0.00     0.182 C 
HETATM   23  C   UNK N   1      28.237  23.167  -5.998  0.00  0.00     0.040 C 
HETATM   24  C   UNK N   1      29.759  25.028  -6.474  0.00  0.00     0.040 C 
ENDBRANCH  20  22
BRANCH  20  25
HETATM   25  C   UNK N   1      29.821  24.007  -3.003  0.00  0.00     0.182 C 
HETATM   26  C   UNK N   1      31.112  23.360  -3.515  0.00  0.00     0.040 C 
HETATM   27  C   UNK N   1      29.071  22.956  -2.190  0.00  0.00     0.040 C 
ENDBRANCH  20  25
ENDBRANCH  19  20
ENDBRANCH  18  19
ENDBRANCH  17  18
ENDBRANCH  15  17
ENDBRANCH   2  15
TORSDOF 7
ENDMDL
MODEL 5
REMARK VINA RESULT:      -6.3     13.864     16.896
REMARK  7 active torsions:
REMARK  status: ('A' for Active; 'I' for Inactive)
REMARK    1  A    between atoms: O_1  and  C_13 
REMARK    2  A    between atoms: O_1  and  C_15 
REMARK    3  A    between atoms: N_4  and  C_5 
REMARK    4  A    between atoms: N_4  and  C_6 
REMARK    5  A    between atoms: N_4  and  C_7 
REMARK    6  A    between atoms: C_7  and  C_13 
REMARK    7  A    between atoms: C_14  and  C_15 
ROOT
HETATM    1  O   UNK N   1      31.210  19.870  -6.253  0.00  0.00    -0.310 OA
HETATM    2  C   UNK N   1      30.333  22.127  -4.780  0.00  0.00     0.157 A 
HETATM    3  C   UNK N   1      31.563  21.362  -4.393  0.00  0.00    -0.006 A 
HETATM    4  C   UNK N   1      29.590  21.634  -5.985  0.00  0.00    -0.006 A 
HETATM    5  C   UNK N   1      31.941  20.248  -5.171  0.00  0.00     0.083 A 
HETATM    6  C   UNK N   1      30.083  20.506  -6.671  0.00  0.00     0.083 A 
HETATM    7  C   UNK N   1      32.329  21.724  -3.278  0.00  0.00     0.011 A 
HETATM    8  C   UNK N   1      28.429  22.273  -6.437  0.00  0.00     0.011 A 
HETATM    9  C   UNK N   1      33.082  19.517  -4.822  0.00  0.00     0.038 A 
HETATM   10  C   UNK N   1      29.406  20.032  -7.799  0.00  0.00     0.038 A 
HETATM   11  C   UNK N   1      33.468  20.989  -2.939  0.00  0.00     0.001 A 
HETATM   12  C   UNK N   1      27.759  21.794  -7.566  0.00  0.00     0.001 A 
HETATM   13  C   UNK N   1      33.844  19.887  -3.710  0.00  0.00     0.003 A 
HETATM   14  C   UNK N   1      28.247  20.674  -8.245  0.00  0.00     0.003 A 
ENDROOT
BRANCH   2  15
HETATM   15  C   UNK N   1      29.832  23.286  -3.965  0.00  0.00     0.272 C 
HETATM   16  O   UNK N   1      29.223  23.078  -2.929  0.00  0.00    -0.264 OA
BRANCH  15  17
HETATM   17  O   UNK N   1      30.024  24.553  -4.394  0.00  0.00    -0.319 OA
BRANCH  17  18
HETATM   18  C   UNK N   1      29.121  25.566  -4.148  0.00  0.00     0.206 C 
BRANCH  18  19
HETATM   19  C   UNK N   1      28.261  25.898  -5.380  0.00  0.00     0.264 C 
BRANCH  19  20
HETATM   20  N   UNK N   1      27.215  26.923  -5.152  0.00  0.00    -0.062 N 
HETATM   21  C   UNK N   1      27.553  27.707  -3.955  0.00  0.00     0.273 C 
BRANCH  20  22
HETATM   22  C   UNK N   1      25.859  26.292  -5.037  0.00  0.00     0.182 C 
HETATM   23  C   UNK N   1      24.717  27.068  -5.683  0.00  0.00     0.040 C 
HETATM   24  C   UNK N   1      25.789  24.867  -5.586  0.00  0.00     0.040 C 
ENDBRANCH  20  22
BRANCH  20  25
HETATM   25  C   UNK N   1      27.244  27.803  -6.358  0.00  0.00     0.182 C 
HETATM   26  C   UNK N   1      27.918  27.159  -7.574  0.00  0.00     0.040 C 
HETATM   27  C   UNK N   1      27.898  29.165  -6.140  0.00  0.00     0.040 C 
ENDBRANCH  20  25
ENDBRANCH  19  20
ENDBRANCH  18  19
ENDBRANCH  17  18
ENDBRANCH  15  17
ENDBRANCH   2  15
TORSDOF 7
ENDMDL
MODEL 6
REMARK VINA RESULT:      -6.2      1.345      4.086
REMARK  7 active torsions:
REMARK  status: ('A' for Active; 'I' for Inactive)
REMARK    1  A    between atoms: O_1  and  C_13 
REMARK    2  A    between atoms: O_1  and  C_15 
REMARK    3  A    between atoms: N_4  and  C_5 
REMARK    4  A    between atoms: N_4  and  C_6 
REMARK    5  A    between atoms: N_4  and  C_7 
REMARK    6  A    between atoms: C_7  and  C_13 
REMARK    7  A    between atoms: C_14  and  C_15 
ROOT
HETATM    1  O   UNK N   1      29.708  17.429   5.698  0.00  0.00    -0.310 OA
HETATM    2  C   UNK N   1      32.046  17.425   7.300  0.00  0.00     0.157 A 
HETATM    3  C   UNK N   1      30.692  17.707   7.880  0.00  0.00    -0.006 A 
HETATM    4  C   UNK N   1      32.098  17.148   5.828  0.00  0.00    -0.006 A 
HETATM    5  C   UNK N   1      29.571  17.694   7.024  0.00  0.00     0.083 A 
HETATM    6  C   UNK N   1      30.896  17.165   5.091  0.00  0.00     0.083 A 
HETATM    7  C   UNK N   1      30.524  17.992   9.241  0.00  0.00     0.011 A 
HETATM    8  C   UNK N   1      33.309  16.869   5.181  0.00  0.00     0.011 A 
HETATM    9  C   UNK N   1      28.301  17.962   7.544  0.00  0.00     0.038 A 
HETATM   10  C   UNK N   1      30.924  16.907   3.718  0.00  0.00     0.038 A 
HETATM   11  C   UNK N   1      29.251  18.257   9.752  0.00  0.00     0.001 A 
HETATM   12  C   UNK N   1      33.327  16.611   3.809  0.00  0.00     0.001 A 
HETATM   13  C   UNK N   1      28.141  18.242   8.905  0.00  0.00     0.003 A 
HETATM   14  C   UNK N   1      32.136  16.630   3.078  0.00  0.00     0.003 A 
ENDROOT
BRANCH   2  15
HETATM   15  C   UNK N   1      33.292  17.482   8.136  0.00  0.00     0.272 C 
HETATM   16  O   UNK N   1      33.984  18.487   8.122  0.00  0.00    -0.264 OA
BRANCH  15  17
HETATM   17  O   UNK N   1      33.668  16.413   8.874  0.00  0.00    -0.319 OA
BRANCH  17  18
HETATM   18  C   UNK N   1      34.850  16.377   9.583  0.00  0.00     0.206 C 
BRANCH  18  19
HETATM   19  C   UNK N   1      34.801  15.383  10.755  0.00  0.00     0.264 C 
BRANCH  19  20
HETATM   20  N   UNK N   1      35.576  14.136  10.548  0.00  0.00    -0.062 N 
HETATM   21  C   UNK N   1      34.658  13.046  10.186  0.00  0.00     0.273 C 
BRANCH  20  22
HETATM   22  C   UNK N   1      36.386  13.798  11.764  0.00  0.00     0.182 C 
HETATM   23  C   UNK N   1      36.057  14.602  13.016  0.00  0.00     0.040 C 
HETATM   24  C   UNK N   1      36.326  12.321  12.159  0.00  0.00     0.040 C 
ENDBRANCH  20  22
BRANCH  20  25
HETATM   25  C   UNK N   1      36.498  14.420   9.409  0.00  0.00     0.182 C 
HETATM   26  C   UNK N   1      36.296  13.493   8.206  0.00  0.00     0.040 C 
HETATM   27  C   UNK N   1      37.982  14.391   9.765  0.00  0.00     0.040 C 
ENDBRANCH  20  25
ENDBRANCH  19  20
ENDBRANCH  18  19
ENDBRANCH  17  18
ENDBRANCH  15  17
ENDBRANCH   2  15
TORSDOF 7
ENDMDL
MODEL 7
REMARK VINA RESULT:      -6.2     16.038     18.145
REMARK  7 active torsions:
REMARK  status: ('A' for Active; 'I' for Inactive)
REMARK    1  A    between atoms: O_1  and  C_13 
REMARK    2  A    between atoms: O_1  and  C_15 
REMARK    3  A    between atoms: N_4  and  C_5 
REMARK    4  A    between atoms: N_4  and  C_6 
REMARK    5  A    between atoms: N_4  and  C_7 
REMARK    6  A    between atoms: C_7  and  C_13 
REMARK    7  A    between atoms: C_14  and  C_15 
ROOT
HETATM    1  O   UNK N   1      28.298  29.123  -7.049  0.00  0.00    -0.310 OA
HETATM    2  C   UNK N   1      26.510  27.306  -5.811  0.00  0.00     0.157 A 
HETATM    3  C   UNK N   1      27.138  27.013  -7.141  0.00  0.00    -0.006 A 
HETATM    4  C   UNK N   1      26.875  28.612  -5.173  0.00  0.00    -0.006 A 
HETATM    5  C   UNK N   1      28.019  27.962  -7.699  0.00  0.00     0.083 A 
HETATM    6  C   UNK N   1      27.772  29.468  -5.843  0.00  0.00     0.083 A 
HETATM    7  C   UNK N   1      26.861  25.829  -7.836  0.00  0.00     0.011 A 
HETATM    8  C   UNK N   1      26.349  28.988  -3.930  0.00  0.00     0.011 A 
HETATM    9  C   UNK N   1      28.610  27.710  -8.942  0.00  0.00     0.038 A 
HETATM   10  C   UNK N   1      28.127  30.689  -5.263  0.00  0.00     0.038 A 
HETATM   11  C   UNK N   1      27.457  25.585  -9.076  0.00  0.00     0.001 A 
HETATM   12  C   UNK N   1      26.710  30.210  -3.357  0.00  0.00     0.001 A 
HETATM   13  C   UNK N   1      28.331  26.525  -9.628  0.00  0.00     0.003 A 
HETATM   14  C   UNK N   1      27.597  31.059  -4.023  0.00  0.00     0.003 A 
ENDROOT
BRANCH   2  15
HETATM   15  C   UNK N   1      25.515  26.372  -5.183  0.00  0.00     0.272 C 
HETATM   16  O   UNK N   1      24.362  26.358  -5.583  0.00  0.00    -0.264 OA
BRANCH  15  17
HETATM   17  O   UNK N   1      25.883  25.576  -4.155  0.00  0.00    -0.319 OA
BRANCH  17  18
HETATM   18  C   UNK N   1      26.663  24.452  -4.327  0.00  0.00     0.206 C 
BRANCH  18  19
HETATM   19  C   UNK N   1      28.049  24.594  -3.674  0.00  0.00     0.264 C 
BRANCH  19  20
HETATM   20  N   UNK N   1      29.159  23.954  -4.421  0.00  0.00    -0.062 N 
HETATM   21  C   UNK N   1      28.629  23.329  -5.641  0.00  0.00     0.273 C 
BRANCH  20  22
HETATM   22  C   UNK N   1      29.885  22.963  -3.561  0.00  0.00     0.182 C 
HETATM   23  C   UNK N   1      31.397  23.145  -3.484  0.00  0.00     0.040 C 
HETATM   24  C   UNK N   1      29.375  22.900  -2.120  0.00  0.00     0.040 C 
ENDBRANCH  20  22
BRANCH  20  25
HETATM   25  C   UNK N   1      30.090  25.063  -4.784  0.00  0.00     0.182 C 
HETATM   26  C   UNK N   1      29.719  26.411  -4.158  0.00  0.00     0.040 C 
HETATM   27  C   UNK N   1      30.264  25.286  -6.284  0.00  0.00     0.040 C 
ENDBRANCH  20  25
ENDBRANCH  19  20
ENDBRANCH  18  19
ENDBRANCH  17  18
ENDBRANCH  15  17
ENDBRANCH   2  15
TORSDOF 7
ENDMDL
MODEL 8
REMARK VINA RESULT:      -6.2      8.407     11.049
REMARK  7 active torsions:
REMARK  status: ('A' for Active; 'I' for Inactive)
REMARK    1  A    between atoms: O_1  and  C_13 
REMARK    2  A    between atoms: O_1  and  C_15 
REMARK    3  A    between atoms: N_4  and  C_5 
REMARK    4  A    between atoms: N_4  and  C_6 
REMARK    5  A    between atoms: N_4  and  C_7 
REMARK    6  A    between atoms: C_7  and  C_13 
REMARK    7  A    between atoms: C_14  and  C_15 
ROOT
HETATM    1  O   UNK N   1      23.683  20.374   3.128  0.00  0.00    -0.310 OA
HETATM    2  C   UNK N   1      23.573  17.723   4.125  0.00  0.00     0.157 A 
HETATM    3  C   UNK N   1      22.342  18.444   3.661  0.00  0.00    -0.006 A 
HETATM    4  C   UNK N   1      24.864  18.480   4.037  0.00  0.00    -0.006 A 
HETATM    5  C   UNK N   1      22.471  19.762   3.177  0.00  0.00     0.083 A 
HETATM    6  C   UNK N   1      24.846  19.795   3.530  0.00  0.00     0.083 A 
HETATM    7  C   UNK N   1      21.079  17.841   3.709  0.00  0.00     0.011 A 
HETATM    8  C   UNK N   1      26.075  17.904   4.442  0.00  0.00     0.011 A 
HETATM    9  C   UNK N   1      21.334  20.454   2.745  0.00  0.00     0.038 A 
HETATM   10  C   UNK N   1      26.041  20.516   3.438  0.00  0.00     0.038 A 
HETATM   11  C   UNK N   1      19.950  18.538   3.274  0.00  0.00     0.001 A 
HETATM   12  C   UNK N   1      27.264  18.632   4.345  0.00  0.00     0.001 A 
HETATM   13  C   UNK N   1      20.077  19.843   2.793  0.00  0.00     0.003 A 
HETATM   14  C   UNK N   1      27.246  19.936   3.844  0.00  0.00     0.003 A 
ENDROOT
BRANCH   2  15
HETATM   15  C   UNK N   1      23.507  16.342   4.711  0.00  0.00     0.272 C 
HETATM   16  O   UNK N   1      23.479  15.371   3.972  0.00  0.00    -0.264 OA
BRANCH  15  17
HETATM   17  O   UNK N   1      23.443  16.172   6.051  0.00  0.00    -0.319 OA
BRANCH  17  18
HETATM   18  C   UNK N   1      23.752  14.977   6.665  0.00  0.00     0.206 C 
BRANCH  18  19
HETATM   19  C   UNK N   1      22.548  14.367   7.402  0.00  0.00     0.264 C 
BRANCH  19  20
HETATM   20  N   UNK N   1      22.890  13.327   8.402  0.00  0.00    -0.062 N 
HETATM   21  C   UNK N   1      24.342  13.328   8.628  0.00  0.00     0.273 C 
BRANCH  20  22
HETATM   22  C   UNK N   1      22.397  11.979   7.967  0.00  0.00     0.182 C 
HETATM   23  C   UNK N   1      21.415  11.984   6.801  0.00  0.00     0.040 C 
HETATM   24  C   UNK N   1      23.513  11.000   7.598  0.00  0.00     0.040 C 
ENDBRANCH  20  22
BRANCH  20  25
HETATM   25  C   UNK N   1      22.182  13.726   9.654  0.00  0.00     0.182 C 
HETATM   26  C   UNK N   1      21.835  12.547  10.569  0.00  0.00     0.040 C 
HETATM   27  C   UNK N   1      20.903  14.530   9.437  0.00  0.00     0.040 C 
ENDBRANCH  20  25
ENDBRANCH  19  20
ENDBRANCH  18  19
ENDBRANCH  17  18
ENDBRANCH  15  17
ENDBRANCH   2  15
TORSDOF 7
ENDMDL
MODEL 9
REMARK VINA RESULT:      -6.2     14.002     16.947
REMARK  7 active torsions:
REMARK  status: ('A' for Active; 'I' for Inactive)
REMARK    1  A    between atoms: O_1  and  C_13 
REMARK    2  A    between atoms: O_1  and  C_15 
REMARK    3  A    between atoms: N_4  and  C_5 
REMARK    4  A    between atoms: N_4  and  C_6 
REMARK    5  A    between atoms: N_4  and  C_7 
REMARK    6  A    between atoms: C_7  and  C_13 
REMARK    7  A    between atoms: C_14  and  C_15 
ROOT
HETATM    1  O   UNK N   1      32.651  23.939  -5.760  0.00  0.00    -0.310 OA
HETATM    2  C   UNK N   1      30.740  23.613  -3.693  0.00  0.00     0.157 A 
HETATM    3  C   UNK N   1      31.291  24.961  -4.053  0.00  0.00    -0.006 A 
HETATM    4  C   UNK N   1      31.255  22.447  -4.481  0.00  0.00    -0.006 A 
HETATM    5  C   UNK N   1      32.239  25.049  -5.092  0.00  0.00     0.083 A 
HETATM    6  C   UNK N   1      32.204  22.681  -5.497  0.00  0.00     0.083 A 
HETATM    7  C   UNK N   1      30.891  26.119  -3.375  0.00  0.00     0.011 A 
HETATM    8  C   UNK N   1      30.808  21.143  -4.231  0.00  0.00     0.011 A 
HETATM    9  C   UNK N   1      32.771  26.296  -5.438  0.00  0.00     0.038 A 
HETATM   10  C   UNK N   1      32.695  21.607  -6.245  0.00  0.00     0.038 A 
HETATM   11  C   UNK N   1      31.426  27.361  -3.729  0.00  0.00     0.001 A 
HETATM   12  C   UNK N   1      31.304  20.076  -4.985  0.00  0.00     0.001 A 
HETATM   13  C   UNK N   1      32.364  27.449  -4.760  0.00  0.00     0.003 A 
HETATM   14  C   UNK N   1      32.246  20.308  -5.990  0.00  0.00     0.003 A 
ENDROOT
BRANCH   2  15
HETATM   15  C   UNK N   1      29.773  23.431  -2.557  0.00  0.00     0.272 C 
HETATM   16  O   UNK N   1      30.188  23.110  -1.455  0.00  0.00    -0.264 OA
BRANCH  15  17
HETATM   17  O   UNK N   1      28.446  23.586  -2.761  0.00  0.00    -0.319 OA
BRANCH  17  18
HETATM   18  C   UNK N   1      27.920  23.975  -3.975  0.00  0.00     0.206 C 
BRANCH  18  19
HETATM   19  C   UNK N   1      27.267  25.366  -3.912  0.00  0.00     0.264 C 
BRANCH  19  20
HETATM   20  N   UNK N   1      27.208  26.087  -5.207  0.00  0.00    -0.062 N 
HETATM   21  C   UNK N   1      28.248  25.562  -6.104  0.00  0.00     0.273 C 
BRANCH  20  22
HETATM   22  C   UNK N   1      27.346  27.567  -5.006  0.00  0.00     0.182 C 
HETATM   23  C   UNK N   1      27.757  28.003  -3.604  0.00  0.00     0.040 C 
HETATM   24  C   UNK N   1      28.317  28.238  -5.978  0.00  0.00     0.040 C 
ENDBRANCH  20  22
BRANCH  20  25
HETATM   25  C   UNK N   1      25.858  25.793  -5.770  0.00  0.00     0.182 C 
HETATM   26  C   UNK N   1      25.879  25.405  -7.252  0.00  0.00     0.040 C 
HETATM   27  C   UNK N   1      24.838  26.917  -5.605  0.00  0.00     0.040 C 
ENDBRANCH  20  25
ENDBRANCH  19  20
ENDBRANCH  18  19
ENDBRANCH  17  18
ENDBRANCH  15  17
ENDBRANCH   2  15
TORSDOF 7
ENDMDL
