REMARK  7 active torsions:
REMARK  status: ('A' for Active; 'I' for Inactive)
REMARK    1  A    between atoms: O_1  and  C_13 
REMARK    2  A    between atoms: O_1  and  C_15 
REMARK    3  A    between atoms: N_4  and  C_5 
REMARK    4  A    between atoms: N_4  and  C_6 
REMARK    5  A    between atoms: N_4  and  C_7 
REMARK    6  A    between atoms: C_7  and  C_13 
REMARK    7  A    between atoms: C_14  and  C_15 
ROOT
HETATM    1  O   UNK N   1       3.560  -4.558   0.383  0.00  0.00    -0.310 OA
HETATM    2  C   UNK N   1       3.310  -1.761   0.001  0.00  0.00     0.157 A 
HETATM    3  C   UNK N   1       4.646  -2.415   0.194  0.00  0.00    -0.006 A 
HETATM    4  C   UNK N   1       2.114  -2.664   0.024  0.00  0.00    -0.006 A 
HETATM    5  C   UNK N   1       4.696  -3.812   0.379  0.00  0.00     0.083 A 
HETATM    6  C   UNK N   1       2.311  -4.046   0.217  0.00  0.00     0.083 A 
HETATM    7  C   UNK N   1       5.831  -1.669   0.204  0.00  0.00     0.011 A 
HETATM    8  C   UNK N   1       0.818  -2.161  -0.148  0.00  0.00     0.011 A 
HETATM    9  C   UNK N   1       5.932  -4.440   0.568  0.00  0.00     0.038 A 
HETATM   10  C   UNK N   1       1.208  -4.905   0.239  0.00  0.00     0.038 A 
HETATM   11  C   UNK N   1       7.061  -2.305   0.391  0.00  0.00     0.001 A 
HETATM   12  C   UNK N   1      -0.278  -3.027  -0.126  0.00  0.00     0.001 A 
HETATM   13  C   UNK N   1       7.111  -3.689   0.573  0.00  0.00     0.003 A 
HETATM   14  C   UNK N   1      -0.083  -4.397   0.068  0.00  0.00     0.003 A 
ENDROOT
BRANCH   2  15
HETATM   15  C   UNK N   1       3.171  -0.272  -0.140  0.00  0.00     0.272 C 
HETATM   16  O   UNK N   1       2.582   0.365   0.718  0.00  0.00    -0.264 OA
BRANCH  15  17
HETATM   17  O   UNK N   1       3.664   0.358  -1.230  0.00  0.00    -0.319 OA
BRANCH  17  18
HETATM   18  C   UNK N   1       4.874   1.019  -1.223  0.00  0.00     0.206 C 
BRANCH  18  19
HETATM   19  C   UNK N   1       4.952   2.089  -0.121  0.00  0.00     0.264 C 
BRANCH  19  20
HETATM   20  N   UNK N   1       5.958   3.153  -0.354  0.00  0.00    -0.062 N 
HETATM   21  C   UNK N   1       5.829   3.652  -1.731  0.00  0.00     0.273 C 
BRANCH  20  22
HETATM   22  C   UNK N   1       7.344   2.654  -0.073  0.00  0.00     0.182 C 
HETATM   23  C   UNK N   1       7.673   1.277  -0.638  0.00  0.00     0.040 C 
HETATM   24  C   UNK N   1       8.451   3.599  -0.543  0.00  0.00     0.040 C 
ENDBRANCH  20  22
BRANCH  20  25
HETATM   25  C   UNK N   1       5.624   4.241   0.612  0.00  0.00     0.182 C 
HETATM   26  C   UNK N   1       4.172   4.721   0.522  0.00  0.00     0.040 C 
HETATM   27  C   UNK N   1       6.521   5.473   0.522  0.00  0.00     0.040 C 
ENDBRANCH  20  25
ENDBRANCH  19  20
ENDBRANCH  18  19
ENDBRANCH  17  18
ENDBRANCH  15  17
ENDBRANCH   2  15
TORSDOF 7
