MODEL 1
REMARK VINA RESULT:      -7.1      0.000      0.000
REMARK  2 active torsions:
REMARK  status: ('A' for Active; 'I' for Inactive)
REMARK    1  A    between atoms: C_7  and  O_1 
REMARK    2  A    between atoms: O_2  and  C_20 
ROOT
HETATM    1  C   UNK N   1      26.145  26.942  -4.928  0.00  0.00    -0.014 C 
HETATM    2  C   UNK N   1      27.231  26.861  -5.995  0.00  0.00     0.001 C 
HETATM    3  C   UNK N   1      26.905  25.789  -7.046  0.00  0.00    -0.001 C 
HETATM    4  C   UNK N   1      26.768  24.418  -6.339  0.00  0.00     0.023 C 
HETATM    5  C   UNK N   1      26.676  28.118  -4.129  0.00  0.00     0.126 C 
HETATM    6  C   UNK N   1      26.081  25.614  -4.175  0.00  0.00     0.013 C 
HETATM    7  C   UNK N   1      27.357  28.303  -6.470  0.00  0.00     0.008 C 
HETATM    8  C   UNK N   1      25.760  24.480  -5.165  0.00  0.00     0.010 C 
HETATM    9  C   UNK N   1      27.092  29.134  -5.200  0.00  0.00     0.033 C 
HETATM   10  C   UNK N   1      28.027  25.676  -8.081  0.00  0.00     0.010 C 
HETATM   11  C   UNK N   1      24.757  27.275  -5.511  0.00  0.00     0.018 C 
HETATM   12  C   UNK N   1      26.378  23.375  -7.366  0.00  0.00    -0.047 A 
HETATM   13  C   UNK N   1      27.723  24.621  -9.153  0.00  0.00     0.039 C 
HETATM   14  C   UNK N   1      26.851  23.477  -8.697  0.00  0.00    -0.049 A 
HETATM   15  C   UNK N   1      25.511  22.324  -7.026  0.00  0.00     0.011 A 
HETATM   16  C   UNK N   1      26.445  22.537  -9.650  0.00  0.00     0.044 A 
HETATM   17  C   UNK N   1      25.117  21.391  -7.986  0.00  0.00     0.037 A 
HETATM   18  C   UNK N   1      25.580  21.500  -9.297  0.00  0.00     0.066 A 
ENDROOT
BRANCH   5  19
HETATM   19  O   UNK N   1      25.734  28.642  -3.240  0.00  0.00    -0.395 OA
HETATM   20  H   UNK N   1      24.796  28.408  -3.171  0.00  0.00     0.210 HD
ENDBRANCH   5  19
BRANCH  18  21
HETATM   21  O   UNK N   1      25.182  20.614 -10.224  0.00  0.00    -0.361 OA
HETATM   22  H   UNK N   1      24.892  19.751 -10.000  0.00  0.00     0.217 HD
ENDBRANCH  18  21
TORSDOF 2
ENDMDL
MODEL 2
REMARK VINA RESULT:      -6.9     26.929     28.793
REMARK  2 active torsions:
REMARK  status: ('A' for Active; 'I' for Inactive)
REMARK    1  A    between atoms: C_7  and  O_1 
REMARK    2  A    between atoms: O_2  and  C_20 
ROOT
HETATM    1  C   UNK N   1      36.076  11.830  13.743  0.00  0.00    -0.014 C 
HETATM    2  C   UNK N   1      35.566  12.973  14.611  0.00  0.00     0.001 C 
HETATM    3  C   UNK N   1      35.724  12.656  16.105  0.00  0.00    -0.001 C 
HETATM    4  C   UNK N   1      34.933  11.364  16.431  0.00  0.00     0.023 C 
HETATM    5  C   UNK N   1      35.896  12.462  12.375  0.00  0.00     0.126 C 
HETATM    6  C   UNK N   1      35.231  10.584  14.004  0.00  0.00     0.013 C 
HETATM    7  C   UNK N   1      36.310  14.184  14.061  0.00  0.00     0.008 C 
HETATM    8  C   UNK N   1      35.334  10.200  15.491  0.00  0.00     0.010 C 
HETATM    9  C   UNK N   1      36.433  13.888  12.554  0.00  0.00     0.033 C 
HETATM   10  C   UNK N   1      35.156  13.785  16.969  0.00  0.00     0.010 C 
HETATM   11  C   UNK N   1      37.564  11.508  13.991  0.00  0.00     0.018 C 
HETATM   12  C   UNK N   1      35.148  11.015  17.889  0.00  0.00    -0.047 A 
HETATM   13  C   UNK N   1      35.313  13.503  18.469  0.00  0.00     0.039 C 
HETATM   14  C   UNK N   1      35.312  12.042  18.849  0.00  0.00    -0.049 A 
HETATM   15  C   UNK N   1      35.230   9.674  18.300  0.00  0.00     0.011 A 
HETATM   16  C   UNK N   1      35.559  11.708  20.185  0.00  0.00     0.044 A 
HETATM   17  C   UNK N   1      35.473   9.355  19.636  0.00  0.00     0.037 A 
HETATM   18  C   UNK N   1      35.641  10.371  20.577  0.00  0.00     0.066 A 
ENDROOT
BRANCH   5  19
HETATM   19  O   UNK N   1      36.563  11.769  11.362  0.00  0.00    -0.395 OA
HETATM   20  H   UNK N   1      36.978  12.142  10.568  0.00  0.00     0.210 HD
ENDBRANCH   5  19
BRANCH  18  21
HETATM   21  O   UNK N   1      35.898  10.063  21.858  0.00  0.00    -0.361 OA
HETATM   22  H   UNK N   1      35.921  10.712  22.534  0.00  0.00     0.217 HD
ENDBRANCH  18  21
TORSDOF 2
ENDMDL
MODEL 3
REMARK VINA RESULT:      -6.9      3.659      4.578
REMARK  2 active torsions:
REMARK  status: ('A' for Active; 'I' for Inactive)
REMARK    1  A    between atoms: C_7  and  O_1 
REMARK    2  A    between atoms: O_2  and  C_20 
ROOT
HETATM    1  C   UNK N   1      26.955  26.929  -4.502  0.00  0.00    -0.014 C 
HETATM    2  C   UNK N   1      26.908  25.971  -5.686  0.00  0.00     0.001 C 
HETATM    3  C   UNK N   1      27.689  24.681  -5.394  0.00  0.00    -0.001 C 
HETATM    4  C   UNK N   1      29.161  25.045  -5.079  0.00  0.00     0.023 C 
HETATM    5  C   UNK N   1      26.038  28.016  -5.032  0.00  0.00     0.126 C 
HETATM    6  C   UNK N   1      28.402  27.355  -4.257  0.00  0.00     0.013 C 
HETATM    7  C   UNK N   1      25.416  25.847  -5.971  0.00  0.00     0.008 C 
HETATM    8  C   UNK N   1      29.257  26.110  -3.959  0.00  0.00     0.010 C 
HETATM    9  C   UNK N   1      24.860  27.243  -5.636  0.00  0.00     0.033 C 
HETATM   10  C   UNK N   1      27.684  23.749  -6.608  0.00  0.00     0.010 C 
HETATM   11  C   UNK N   1      26.370  26.318  -3.213  0.00  0.00     0.018 C 
HETATM   12  C   UNK N   1      29.912  23.779  -4.723  0.00  0.00    -0.047 A 
HETATM   13  C   UNK N   1      28.445  22.444  -6.342  0.00  0.00     0.039 C 
HETATM   14  C   UNK N   1      29.571  22.552  -5.342  0.00  0.00    -0.049 A 
HETATM   15  C   UNK N   1      30.923  23.796  -3.748  0.00  0.00     0.011 A 
HETATM   16  C   UNK N   1      30.237  21.380  -4.970  0.00  0.00     0.044 A 
HETATM   17  C   UNK N   1      31.582  22.620  -3.388  0.00  0.00     0.037 A 
HETATM   18  C   UNK N   1      31.237  21.413  -3.996  0.00  0.00     0.066 A 
ENDROOT
BRANCH   5  19
HETATM   19  O   UNK N   1      25.631  28.915  -4.043  0.00  0.00    -0.395 OA
HETATM   20  H   UNK N   1      24.848  28.849  -3.475  0.00  0.00     0.210 HD
ENDBRANCH   5  19
BRANCH  18  21
HETATM   21  O   UNK N   1      31.857  20.279  -3.633  0.00  0.00    -0.361 OA
HETATM   22  H   UNK N   1      31.540  19.433  -3.885  0.00  0.00     0.217 HD
ENDBRANCH  18  21
TORSDOF 2
ENDMDL
MODEL 4
REMARK VINA RESULT:      -6.8     17.183     19.038
REMARK  2 active torsions:
REMARK  status: ('A' for Active; 'I' for Inactive)
REMARK    1  A    between atoms: C_7  and  O_1 
REMARK    2  A    between atoms: O_2  and  C_20 
ROOT
HETATM    1  C   UNK N   1      32.150  15.433   5.092  0.00  0.00    -0.014 C 
HETATM    2  C   UNK N   1      32.508  16.825   5.598  0.00  0.00     0.001 C 
HETATM    3  C   UNK N   1      33.423  16.755   6.830  0.00  0.00    -0.001 C 
HETATM    4  C   UNK N   1      32.699  15.965   7.949  0.00  0.00     0.023 C 
HETATM    5  C   UNK N   1      31.363  15.819   3.853  0.00  0.00     0.126 C 
HETATM    6  C   UNK N   1      31.357  14.694   6.169  0.00  0.00     0.013 C 
HETATM    7  C   UNK N   1      33.048  17.518   4.353  0.00  0.00     0.008 C 
HETATM    8  C   UNK N   1      32.209  14.585   7.446  0.00  0.00     0.010 C 
HETATM    9  C   UNK N   1      32.208  16.923   3.207  0.00  0.00     0.033 C 
HETATM   10  C   UNK N   1      33.730  18.155   7.366  0.00  0.00     0.010 C 
HETATM   11  C   UNK N   1      33.389  14.603   4.699  0.00  0.00     0.018 C 
HETATM   12  C   UNK N   1      33.630  15.837   9.137  0.00  0.00    -0.047 A 
HETATM   13  C   UNK N   1      34.655  18.118   8.590  0.00  0.00     0.039 C 
HETATM   14  C   UNK N   1      34.545  16.875   9.438  0.00  0.00    -0.049 A 
HETATM   15  C   UNK N   1      33.629  14.674   9.926  0.00  0.00     0.011 A 
HETATM   16  C   UNK N   1      35.434  16.725  10.508  0.00  0.00     0.044 A 
HETATM   17  C   UNK N   1      34.520  14.540  10.992  0.00  0.00     0.037 A 
HETATM   18  C   UNK N   1      35.423  15.562  11.280  0.00  0.00     0.066 A 
ENDROOT
BRANCH   5  19
HETATM   19  O   UNK N   1      31.145  14.744   2.988  0.00  0.00    -0.395 OA
HETATM   20  H   UNK N   1      31.391  14.683   2.052  0.00  0.00     0.210 HD
ENDBRANCH   5  19
BRANCH  18  21
HETATM   21  O   UNK N   1      36.294  15.422  12.291  0.00  0.00    -0.361 OA
HETATM   22  H   UNK N   1      36.116  14.875  13.032  0.00  0.00     0.217 HD
ENDBRANCH  18  21
TORSDOF 2
ENDMDL
MODEL 5
REMARK VINA RESULT:      -6.7      4.766      5.602
REMARK  2 active torsions:
REMARK  status: ('A' for Active; 'I' for Inactive)
REMARK    1  A    between atoms: C_7  and  O_1 
REMARK    2  A    between atoms: O_2  and  C_20 
ROOT
HETATM    1  C   UNK N   1      27.680  24.982  -4.298  0.00  0.00    -0.014 C 
HETATM    2  C   UNK N   1      27.785  24.126  -5.555  0.00  0.00     0.001 C 
HETATM    3  C   UNK N   1      28.739  22.940  -5.347  0.00  0.00    -0.001 C 
HETATM    4  C   UNK N   1      30.140  23.483  -4.970  0.00  0.00     0.023 C 
HETATM    5  C   UNK N   1      26.623  25.967  -4.762  0.00  0.00     0.126 C 
HETATM    6  C   UNK N   1      29.048  25.587  -3.986  0.00  0.00     0.013 C 
HETATM    7  C   UNK N   1      26.330  23.815  -5.884  0.00  0.00     0.008 C 
HETATM    8  C   UNK N   1      30.069  24.456  -3.767  0.00  0.00     0.010 C 
HETATM    9  C   UNK N   1      25.575  25.087  -5.453  0.00  0.00     0.033 C 
HETATM   10  C   UNK N   1      28.882  22.119  -6.631  0.00  0.00     0.010 C 
HETATM   11  C   UNK N   1      27.173  24.190  -3.076  0.00  0.00     0.018 C 
HETATM   12  C   UNK N   1      31.061  22.311  -4.697  0.00  0.00    -0.047 A 
HETATM   13  C   UNK N   1      29.820  20.918  -6.450  0.00  0.00     0.039 C 
HETATM   14  C   UNK N   1      30.906  21.103  -5.418  0.00  0.00    -0.049 A 
HETATM   15  C   UNK N   1      32.046  22.392  -3.700  0.00  0.00     0.011 A 
HETATM   16  C   UNK N   1      31.729  20.011  -5.124  0.00  0.00     0.044 A 
HETATM   17  C   UNK N   1      32.863  21.296  -3.419  0.00  0.00     0.037 A 
HETATM   18  C   UNK N   1      32.702  20.106  -4.127  0.00  0.00     0.066 A 
ENDROOT
BRANCH   5  19
HETATM   19  O   UNK N   1      26.079  26.716  -3.716  0.00  0.00    -0.395 OA
HETATM   20  H   UNK N   1      26.474  27.485  -3.275  0.00  0.00     0.210 HD
ENDBRANCH   5  19
BRANCH  18  21
HETATM   21  O   UNK N   1      33.473  19.046  -3.841  0.00  0.00    -0.361 OA
HETATM   22  H   UNK N   1      34.288  18.887  -4.276  0.00  0.00     0.217 HD
ENDBRANCH  18  21
TORSDOF 2
ENDMDL
MODEL 6
REMARK VINA RESULT:      -6.6     14.545     16.459
REMARK  2 active torsions:
REMARK  status: ('A' for Active; 'I' for Inactive)
REMARK    1  A    between atoms: C_7  and  O_1 
REMARK    2  A    between atoms: O_2  and  C_20 
ROOT
HETATM    1  C   UNK N   1      31.874  16.699   8.316  0.00  0.00    -0.014 C 
HETATM    2  C   UNK N   1      31.365  15.921   7.108  0.00  0.00     0.001 C 
HETATM    3  C   UNK N   1      30.490  16.801   6.203  0.00  0.00    -0.001 C 
HETATM    4  C   UNK N   1      29.288  17.329   7.025  0.00  0.00     0.023 C 
HETATM    5  C   UNK N   1      32.762  15.636   8.935  0.00  0.00     0.126 C 
HETATM    6  C   UNK N   1      30.684  17.137   9.169  0.00  0.00     0.013 C 
HETATM    7  C   UNK N   1      32.640  15.337   6.511  0.00  0.00     0.008 C 
HETATM    8  C   UNK N   1      29.751  18.026   8.328  0.00  0.00     0.010 C 
HETATM    9  C   UNK N   1      33.524  15.050   7.739  0.00  0.00     0.033 C 
HETATM   10  C   UNK N   1      29.938  15.996   5.024  0.00  0.00     0.010 C 
HETATM   11  C   UNK N   1      32.712  17.933   7.923  0.00  0.00     0.018 C 
HETATM   12  C   UNK N   1      28.466  18.252   6.150  0.00  0.00    -0.047 A 
HETATM   13  C   UNK N   1      29.070  16.853   4.092  0.00  0.00     0.039 C 
HETATM   14  C   UNK N   1      28.359  18.005   4.759  0.00  0.00    -0.049 A 
HETATM   15  C   UNK N   1      27.837  19.383   6.695  0.00  0.00     0.011 A 
HETATM   16  C   UNK N   1      27.638  18.892   3.952  0.00  0.00     0.044 A 
HETATM   17  C   UNK N   1      27.118  20.258   5.879  0.00  0.00     0.037 A 
HETATM   18  C   UNK N   1      27.022  20.014   4.509  0.00  0.00     0.066 A 
ENDROOT
BRANCH   5  19
HETATM   19  O   UNK N   1      33.621  16.144   9.912  0.00  0.00    -0.395 OA
HETATM   20  H   UNK N   1      33.555  16.027  10.872  0.00  0.00     0.210 HD
ENDBRANCH   5  19
BRANCH  18  21
HETATM   21  O   UNK N   1      26.349  20.868   3.722  0.00  0.00    -0.361 OA
HETATM   22  H   UNK N   1      26.727  21.668   3.413  0.00  0.00     0.217 HD
ENDBRANCH  18  21
TORSDOF 2
ENDMDL
MODEL 7
REMARK VINA RESULT:      -6.6     29.104     30.906
REMARK  2 active torsions:
REMARK  status: ('A' for Active; 'I' for Inactive)
REMARK    1  A    between atoms: C_7  and  O_1 
REMARK    2  A    between atoms: O_2  and  C_20 
ROOT
HETATM    1  C   UNK N   1      33.776   8.335  20.405  0.00  0.00    -0.014 C 
HETATM    2  C   UNK N   1      34.507   9.629  20.746  0.00  0.00     0.001 C 
HETATM    3  C   UNK N   1      34.512  10.600  19.556  0.00  0.00    -0.001 C 
HETATM    4  C   UNK N   1      35.204   9.914  18.351  0.00  0.00     0.023 C 
HETATM    5  C   UNK N   1      33.841   7.655  21.760  0.00  0.00     0.126 C 
HETATM    6  C   UNK N   1      34.519   7.621  19.277  0.00  0.00     0.013 C 
HETATM    7  C   UNK N   1      33.822  10.084  22.029  0.00  0.00     0.008 C 
HETATM    8  C   UNK N   1      34.571   8.535  18.040  0.00  0.00     0.010 C 
HETATM    9  C   UNK N   1      33.478   8.768  22.750  0.00  0.00     0.033 C 
HETATM   10  C   UNK N   1      35.296  11.871  19.888  0.00  0.00     0.010 C 
HETATM   11  C   UNK N   1      32.308   8.568  19.994  0.00  0.00     0.018 C 
HETATM   12  C   UNK N   1      35.145  10.846  17.159  0.00  0.00    -0.047 A 
HETATM   13  C   UNK N   1      35.307  12.868  18.721  0.00  0.00     0.039 C 
HETATM   14  C   UNK N   1      35.209  12.248  17.349  0.00  0.00    -0.049 A 
HETATM   15  C   UNK N   1      34.983  10.338  15.860  0.00  0.00     0.011 A 
HETATM   16  C   UNK N   1      35.105  13.101  16.245  0.00  0.00     0.044 A 
HETATM   17  C   UNK N   1      34.883  11.201  14.767  0.00  0.00     0.037 A 
HETATM   18  C   UNK N   1      34.940  12.580  14.961  0.00  0.00     0.066 A 
ENDROOT
BRANCH   5  19
HETATM   19  O   UNK N   1      32.983   6.556  21.860  0.00  0.00    -0.395 OA
HETATM   20  H   UNK N   1      32.558   6.213  22.661  0.00  0.00     0.210 HD
ENDBRANCH   5  19
BRANCH  18  21
HETATM   21  O   UNK N   1      34.822  13.409  13.912  0.00  0.00    -0.361 OA
HETATM   22  H   UNK N   1      33.988  13.664  13.567  0.00  0.00     0.217 HD
ENDBRANCH  18  21
TORSDOF 2
ENDMDL
MODEL 8
REMARK VINA RESULT:      -6.5      4.331      6.132
REMARK  2 active torsions:
REMARK  status: ('A' for Active; 'I' for Inactive)
REMARK    1  A    between atoms: C_7  and  O_1 
REMARK    2  A    between atoms: O_2  and  C_20 
ROOT
HETATM    1  C   UNK N   1      30.726  22.360  -3.417  0.00  0.00    -0.014 C 
HETATM    2  C   UNK N   1      30.043  21.892  -4.696  0.00  0.00     0.001 C 
HETATM    3  C   UNK N   1      29.075  22.955  -5.236  0.00  0.00    -0.001 C 
HETATM    4  C   UNK N   1      28.005  23.254  -4.156  0.00  0.00     0.023 C 
HETATM    5  C   UNK N   1      31.666  21.189  -3.199  0.00  0.00     0.126 C 
HETATM    6  C   UNK N   1      29.671  22.564  -2.330  0.00  0.00     0.013 C 
HETATM    7  C   UNK N   1      31.213  21.486  -5.584  0.00  0.00     0.008 C 
HETATM    8  C   UNK N   1      28.653  23.619  -2.797  0.00  0.00     0.010 C 
HETATM    9  C   UNK N   1      32.247  20.919  -4.592  0.00  0.00     0.033 C 
HETATM   10  C   UNK N   1      28.352  22.455  -6.489  0.00  0.00     0.010 C 
HETATM   11  C   UNK N   1      31.530  23.662  -3.609  0.00  0.00     0.018 C 
HETATM   12  C   UNK N   1      27.093  24.352  -4.662  0.00  0.00    -0.047 A 
HETATM   13  C   UNK N   1      27.386  23.502  -7.059  0.00  0.00     0.039 C 
HETATM   14  C   UNK N   1      26.796  24.449  -6.043  0.00  0.00    -0.049 A 
HETATM   15  C   UNK N   1      26.567  25.310  -3.780  0.00  0.00     0.011 A 
HETATM   16  C   UNK N   1      25.992  25.497  -6.507  0.00  0.00     0.044 A 
HETATM   17  C   UNK N   1      25.764  26.348  -4.255  0.00  0.00     0.037 A 
HETATM   18  C   UNK N   1      25.481  26.443  -5.617  0.00  0.00     0.066 A 
ENDROOT
BRANCH   5  19
HETATM   19  O   UNK N   1      32.659  21.454  -2.253  0.00  0.00    -0.395 OA
HETATM   20  H   UNK N   1      32.638  22.123  -1.551  0.00  0.00     0.210 HD
ENDBRANCH   5  19
BRANCH  18  21
HETATM   21  O   UNK N   1      24.727  27.454  -6.076  0.00  0.00    -0.361 OA
HETATM   22  H   UNK N   1      25.026  28.037  -6.747  0.00  0.00     0.217 HD
ENDBRANCH  18  21
TORSDOF 2
ENDMDL
MODEL 9
REMARK VINA RESULT:      -6.5     16.112     17.855
REMARK  2 active torsions:
REMARK  status: ('A' for Active; 'I' for Inactive)
REMARK    1  A    between atoms: C_7  and  O_1 
REMARK    2  A    between atoms: O_2  and  C_20 
ROOT
HETATM    1  C   UNK N   1      33.447  14.601   4.979  0.00  0.00    -0.014 C 
HETATM    2  C   UNK N   1      33.918  15.794   5.802  0.00  0.00     0.001 C 
HETATM    3  C   UNK N   1      32.811  16.300   6.738  0.00  0.00    -0.001 C 
HETATM    4  C   UNK N   1      31.582  16.709   5.888  0.00  0.00     0.023 C 
HETATM    5  C   UNK N   1      34.744  14.271   4.263  0.00  0.00     0.126 C 
HETATM    6  C   UNK N   1      32.294  15.037   4.076  0.00  0.00     0.013 C 
HETATM    7  C   UNK N   1      35.207  15.288   6.438  0.00  0.00     0.008 C 
HETATM    8  C   UNK N   1      31.138  15.564   4.944  0.00  0.00     0.010 C 
HETATM    9  C   UNK N   1      35.807  14.359   5.366  0.00  0.00     0.033 C 
HETATM   10  C   UNK N   1      33.274  17.533   7.519  0.00  0.00     0.010 C 
HETATM   11  C   UNK N   1      33.001  13.410   5.851  0.00  0.00     0.018 C 
HETATM   12  C   UNK N   1      30.467  17.141   6.818  0.00  0.00    -0.047 A 
HETATM   13  C   UNK N   1      32.192  18.054   8.475  0.00  0.00     0.039 C 
HETATM   14  C   UNK N   1      30.771  17.793   8.038  0.00  0.00    -0.049 A 
HETATM   15  C   UNK N   1      29.126  16.865   6.505  0.00  0.00     0.011 A 
HETATM   16  C   UNK N   1      29.737  18.144   8.912  0.00  0.00     0.044 A 
HETATM   17  C   UNK N   1      28.104  17.223   7.385  0.00  0.00     0.037 A 
HETATM   18  C   UNK N   1      28.410  17.859   8.588  0.00  0.00     0.066 A 
ENDROOT
BRANCH   5  19
HETATM   19  O   UNK N   1      34.724  13.018   3.646  0.00  0.00    -0.395 OA
HETATM   20  H   UNK N   1      34.700  12.150   4.078  0.00  0.00     0.210 HD
ENDBRANCH   5  19
BRANCH  18  21
HETATM   21  O   UNK N   1      27.427  18.183   9.443  0.00  0.00    -0.361 OA
HETATM   22  H   UNK N   1      26.682  18.688   9.180  0.00  0.00     0.217 HD
ENDBRANCH  18  21
TORSDOF 2
ENDMDL
