REMARK  2 active torsions:
REMARK  status: ('A' for Active; 'I' for Inactive)
REMARK    1  A    between atoms: C_7  and  O_1 
REMARK    2  A    between atoms: O_2  and  C_20 
ROOT
HETATM    1  C   UNK N   1       7.343   1.303  -0.152  0.00  0.00    -0.014 C 
HETATM    2  C   UNK N   1       7.387  -0.128   0.370  0.00  0.00     0.001 C 
HETATM    3  C   UNK N   1       6.063  -0.861   0.108  0.00  0.00    -0.001 C 
HETATM    4  C   UNK N   1       4.915  -0.089   0.805  0.00  0.00     0.023 C 
HETATM    5  C   UNK N   1       8.774   1.714   0.142  0.00  0.00     0.126 C 
HETATM    6  C   UNK N   1       6.269   2.082   0.606  0.00  0.00     0.013 C 
HETATM    7  C   UNK N   1       8.648  -0.692  -0.273  0.00  0.00     0.008 C 
HETATM    8  C   UNK N   1       4.903   1.405   0.396  0.00  0.00     0.010 C 
HETATM    9  C   UNK N   1       9.606   0.513  -0.324  0.00  0.00     0.033 C 
HETATM   10  C   UNK N   1       6.096  -2.278   0.686  0.00  0.00     0.010 C 
HETATM   11  C   UNK N   1       7.066   1.379  -1.667  0.00  0.00     0.018 C 
HETATM   12  C   UNK N   1       3.602  -0.774   0.487  0.00  0.00    -0.047 A 
HETATM   13  C   UNK N   1       4.790  -3.041   0.427  0.00  0.00     0.039 C 
HETATM   14  C   UNK N   1       3.555  -2.180   0.324  0.00  0.00    -0.049 A 
HETATM   15  C   UNK N   1       2.428  -0.024   0.307  0.00  0.00     0.011 A 
HETATM   16  C   UNK N   1       2.347  -2.797  -0.018  0.00  0.00     0.044 A 
HETATM   17  C   UNK N   1       1.229  -0.653  -0.031  0.00  0.00     0.037 A 
HETATM   18  C   UNK N   1       1.190  -2.037  -0.197  0.00  0.00     0.066 A 
ENDROOT
BRANCH   5  19
HETATM   19  O   UNK N   1       9.145   2.897  -0.502  0.00  0.00    -0.395 OA
HETATM   20  H   UNK N   1       9.985   3.085  -0.949  0.00  0.00     0.210 HD
ENDBRANCH   5  19
BRANCH  18  21
HETATM   21  O   UNK N   1       0.041  -2.638  -0.544  0.00  0.00    -0.361 OA
HETATM   22  H   UNK N   1      -0.724  -2.153  -0.787  0.00  0.00     0.217 HD
ENDBRANCH  18  21
TORSDOF 2
