REMARK  4 active torsions:
REMARK  status: ('A' for Active; 'I' for Inactive)
REMARK    1  A    between atoms: O_1  and  C_18 
REMARK    2  A    between atoms: N_3  and  C_5 
REMARK    3  A    between atoms: N_3  and  C_7 
REMARK    4  A    between atoms: C_12  and  C_18 
ROOT
HETATM    1  C   UNK N   1       4.252   0.801  -0.018  0.00  0.00     0.049 A 
HETATM    2  C   UNK N   1       4.140   2.214  -0.001  0.00  0.00     0.064 A 
HETATM    3  C   UNK N   1       5.529   0.214  -0.026  0.00  0.00     0.030 A 
HETATM    4  C   UNK N   1       5.303   2.993   0.008  0.00  0.00     0.020 A 
HETATM    5  C   UNK N   1       6.677   1.005  -0.017  0.00  0.00     0.002 A 
HETATM    6  C   UNK N   1       6.565   2.394   0.001  0.00  0.00     0.001 A 
ENDROOT
BRANCH   1   7
HETATM    7  N   UNK N   1       3.071   0.012  -0.026  0.00  0.00    -0.355 N 
HETATM    8  H   UNK N   1       2.225   0.515  -0.049  0.00  0.00     0.166 HD
BRANCH   7   9
HETATM    9  C   UNK N   1       2.942  -1.404  -0.007  0.00  0.00     0.039 A 
HETATM   10  C   UNK N   1       1.652  -1.962  -0.025  0.00  0.00    -0.029 A 
HETATM   11  C   UNK N   1       1.493  -3.359  -0.002  0.00  0.00    -0.054 A 
HETATM   12  C   UNK N   1       0.453  -1.063  -0.069  0.00  0.00     0.051 C 
HETATM   13  C   UNK N   1       2.618  -4.187   0.041  0.00  0.00     0.007 A 
HETATM   14  C   UNK N   1       0.138  -3.981  -0.022  0.00  0.00     0.049 C 
HETATM   15  C   UNK N   1       3.899  -3.634   0.061  0.00  0.00     0.003 A 
HETATM   16  C   UNK N   1       4.061  -2.248   0.037  0.00  0.00     0.030 A 
ENDBRANCH   7   9
ENDBRANCH   1   7
BRANCH   2  17
HETATM   17  C   UNK N   1       2.814   2.898   0.010  0.00  0.00     0.178 C 
HETATM   18  O   UNK N   1       1.774   2.265   0.014  0.00  0.00    -0.646 OA
BRANCH  17  19
HETATM   19  O   UNK N   1       2.759   4.246   0.017  0.00  0.00    -0.773 OA
HETATM   20  H   UNK N   1       3.550   4.748   0.022  0.00  0.00     0.167 HD
ENDBRANCH  17  19
ENDBRANCH   2  17
TORSDOF 4
