MODEL 1
REMARK VINA RESULT:      -6.7      0.000      0.000
REMARK  4 active torsions:
REMARK  status: ('A' for Active; 'I' for Inactive)
REMARK    1  A    between atoms: O_1  and  C_18 
REMARK    2  A    between atoms: N_3  and  C_5 
REMARK    3  A    between atoms: N_3  and  C_7 
REMARK    4  A    between atoms: C_12  and  C_18 
ROOT
HETATM    1  C   UNK N   1      33.259  16.268   8.894  0.00  0.00     0.049 A 
HETATM    2  C   UNK N   1      34.426  17.057   9.055  0.00  0.00     0.064 A 
HETATM    3  C   UNK N   1      33.034  15.191   9.767  0.00  0.00     0.030 A 
HETATM    4  C   UNK N   1      35.326  16.746  10.081  0.00  0.00     0.020 A 
HETATM    5  C   UNK N   1      33.941  14.894  10.783  0.00  0.00     0.002 A 
HETATM    6  C   UNK N   1      35.087  15.672  10.941  0.00  0.00     0.001 A 
ENDROOT
BRANCH   1   7
HETATM    7  N   UNK N   1      32.346  16.586   7.853  0.00  0.00    -0.355 N 
HETATM    8  H   UNK N   1      32.646  16.364   6.942  0.00  0.00     0.166 HD
BRANCH   7   9
HETATM    9  C   UNK N   1      31.057  17.180   7.946  0.00  0.00     0.039 A 
HETATM   10  C   UNK N   1      30.060  16.766   7.046  0.00  0.00    -0.029 A 
HETATM   11  C   UNK N   1      28.777  17.339   7.110  0.00  0.00    -0.054 A 
HETATM   12  C   UNK N   1      30.371  15.716   6.022  0.00  0.00     0.051 C 
HETATM   13  C   UNK N   1      28.500  18.319   8.067  0.00  0.00     0.007 A 
HETATM   14  C   UNK N   1      27.698  16.920   6.170  0.00  0.00     0.049 C 
HETATM   15  C   UNK N   1      29.490  18.732   8.960  0.00  0.00     0.003 A 
HETATM   16  C   UNK N   1      30.763  18.165   8.900  0.00  0.00     0.030 A 
ENDBRANCH   7   9
ENDBRANCH   1   7
BRANCH   2  17
HETATM   17  C   UNK N   1      34.722  18.216   8.162  0.00  0.00     0.178 C 
HETATM   18  O   UNK N   1      35.214  19.241   8.597  0.00  0.00    -0.646 OA
BRANCH  17  19
HETATM   19  O   UNK N   1      34.443  18.131   6.845  0.00  0.00    -0.773 OA
HETATM   20  H   UNK N   1      33.917  17.426   6.521  0.00  0.00     0.167 HD
ENDBRANCH  17  19
ENDBRANCH   2  17
TORSDOF 4
ENDMDL
MODEL 2
REMARK VINA RESULT:      -6.5      3.398      4.886
REMARK  4 active torsions:
REMARK  status: ('A' for Active; 'I' for Inactive)
REMARK    1  A    between atoms: O_1  and  C_18 
REMARK    2  A    between atoms: N_3  and  C_5 
REMARK    3  A    between atoms: N_3  and  C_7 
REMARK    4  A    between atoms: C_12  and  C_18 
ROOT
HETATM    1  C   UNK N   1      29.605  17.491   6.957  0.00  0.00     0.049 A 
HETATM    2  C   UNK N   1      30.089  17.537   8.289  0.00  0.00     0.064 A 
HETATM    3  C   UNK N   1      30.489  17.153   5.918  0.00  0.00     0.030 A 
HETATM    4  C   UNK N   1      31.435  17.245   8.539  0.00  0.00     0.020 A 
HETATM    5  C   UNK N   1      31.827  16.865   6.185  0.00  0.00     0.002 A 
HETATM    6  C   UNK N   1      32.300  16.910   7.495  0.00  0.00     0.001 A 
ENDROOT
BRANCH   1   7
HETATM    7  N   UNK N   1      28.239  17.786   6.705  0.00  0.00    -0.355 N 
HETATM    8  H   UNK N   1      27.609  17.046   6.863  0.00  0.00     0.166 HD
BRANCH   7   9
HETATM    9  C   UNK N   1      27.656  19.003   6.258  0.00  0.00     0.039 A 
HETATM   10  C   UNK N   1      27.178  19.075   4.938  0.00  0.00    -0.029 A 
HETATM   11  C   UNK N   1      26.601  20.267   4.466  0.00  0.00    -0.054 A 
HETATM   12  C   UNK N   1      27.288  17.879   4.041  0.00  0.00     0.051 C 
HETATM   13  C   UNK N   1      26.506  21.377   5.311  0.00  0.00     0.007 A 
HETATM   14  C   UNK N   1      26.084  20.374   3.072  0.00  0.00     0.049 C 
HETATM   15  C   UNK N   1      26.982  21.307   6.620  0.00  0.00     0.003 A 
HETATM   16  C   UNK N   1      27.554  20.125   7.093  0.00  0.00     0.030 A 
ENDBRANCH   7   9
ENDBRANCH   1   7
BRANCH   2  17
HETATM   17  C   UNK N   1      29.202  17.887   9.436  0.00  0.00     0.178 C 
HETATM   18  O   UNK N   1      28.065  17.459   9.512  0.00  0.00    -0.646 OA
BRANCH  17  19
HETATM   19  O   UNK N   1      29.663  18.694  10.414  0.00  0.00    -0.773 OA
HETATM   20  H   UNK N   1      29.114  18.912  11.141  0.00  0.00     0.167 HD
ENDBRANCH  17  19
ENDBRANCH   2  17
TORSDOF 4
ENDMDL
MODEL 3
REMARK VINA RESULT:      -6.5     13.714     15.809
REMARK  4 active torsions:
REMARK  status: ('A' for Active; 'I' for Inactive)
REMARK    1  A    between atoms: O_1  and  C_18 
REMARK    2  A    between atoms: N_3  and  C_5 
REMARK    3  A    between atoms: N_3  and  C_7 
REMARK    4  A    between atoms: C_12  and  C_18 
ROOT
HETATM    1  C   UNK N   1      28.827  23.437  -4.422  0.00  0.00     0.049 A 
HETATM    2  C   UNK N   1      29.525  22.621  -3.496  0.00  0.00     0.064 A 
HETATM    3  C   UNK N   1      28.877  23.119  -5.790  0.00  0.00     0.030 A 
HETATM    4  C   UNK N   1      30.248  21.518  -3.965  0.00  0.00     0.020 A 
HETATM    5  C   UNK N   1      29.602  22.017  -6.240  0.00  0.00     0.002 A 
HETATM    6  C   UNK N   1      30.287  21.216  -5.329  0.00  0.00     0.001 A 
ENDROOT
BRANCH   1   7
HETATM    7  N   UNK N   1      28.092  24.555  -3.945  0.00  0.00    -0.355 N 
HETATM    8  H   UNK N   1      28.158  24.724  -2.977  0.00  0.00     0.166 HD
BRANCH   7   9
HETATM    9  C   UNK N   1      27.277  25.465  -4.672  0.00  0.00     0.039 A 
HETATM   10  C   UNK N   1      27.841  26.681  -5.096  0.00  0.00    -0.029 A 
HETATM   11  C   UNK N   1      27.057  27.604  -5.812  0.00  0.00    -0.054 A 
HETATM   12  C   UNK N   1      29.274  26.987  -4.781  0.00  0.00     0.051 C 
HETATM   13  C   UNK N   1      25.722  27.309  -6.098  0.00  0.00     0.007 A 
HETATM   14  C   UNK N   1      27.627  28.901  -6.278  0.00  0.00     0.049 C 
HETATM   15  C   UNK N   1      25.161  26.103  -5.676  0.00  0.00     0.003 A 
HETATM   16  C   UNK N   1      25.935  25.184  -4.965  0.00  0.00     0.030 A 
ENDBRANCH   7   9
ENDBRANCH   1   7
BRANCH   2  17
HETATM   17  C   UNK N   1      29.510  22.904  -2.031  0.00  0.00     0.178 C 
HETATM   18  O   UNK N   1      30.543  23.027  -1.399  0.00  0.00    -0.646 OA
BRANCH  17  19
HETATM   19  O   UNK N   1      28.330  23.027  -1.388  0.00  0.00    -0.773 OA
HETATM   20  H   UNK N   1      27.671  22.369  -1.485  0.00  0.00     0.167 HD
ENDBRANCH  17  19
ENDBRANCH   2  17
TORSDOF 4
ENDMDL
MODEL 4
REMARK VINA RESULT:      -6.4      3.305      6.404
REMARK  4 active torsions:
REMARK  status: ('A' for Active; 'I' for Inactive)
REMARK    1  A    between atoms: O_1  and  C_18 
REMARK    2  A    between atoms: N_3  and  C_5 
REMARK    3  A    between atoms: N_3  and  C_7 
REMARK    4  A    between atoms: C_12  and  C_18 
ROOT
HETATM    1  C   UNK N   1      28.594  18.524   6.053  0.00  0.00     0.049 A 
HETATM    2  C   UNK N   1      28.078  19.128   7.227  0.00  0.00     0.064 A 
HETATM    3  C   UNK N   1      28.271  19.072   4.800  0.00  0.00     0.030 A 
HETATM    4  C   UNK N   1      27.259  20.258   7.112  0.00  0.00     0.020 A 
HETATM    5  C   UNK N   1      27.454  20.198   4.704  0.00  0.00     0.002 A 
HETATM    6  C   UNK N   1      26.949  20.792   5.859  0.00  0.00     0.001 A 
ENDROOT
BRANCH   1   7
HETATM    7  N   UNK N   1      29.425  17.378   6.171  0.00  0.00    -0.355 N 
HETATM    8  H   UNK N   1      28.971  16.552   6.455  0.00  0.00     0.166 HD
BRANCH   7   9
HETATM    9  C   UNK N   1      30.822  17.259   5.935  0.00  0.00     0.039 A 
HETATM   10  C   UNK N   1      31.256  16.853   4.661  0.00  0.00    -0.029 A 
HETATM   11  C   UNK N   1      32.631  16.722   4.399  0.00  0.00    -0.054 A 
HETATM   12  C   UNK N   1      30.249  16.561   3.590  0.00  0.00     0.051 C 
HETATM   13  C   UNK N   1      33.561  16.994   5.406  0.00  0.00     0.007 A 
HETATM   14  C   UNK N   1      33.123  16.294   3.058  0.00  0.00     0.049 C 
HETATM   15  C   UNK N   1      33.131  17.396   6.671  0.00  0.00     0.003 A 
HETATM   16  C   UNK N   1      31.767  17.528   6.935  0.00  0.00     0.030 A 
ENDBRANCH   7   9
ENDBRANCH   1   7
BRANCH   2  17
HETATM   17  C   UNK N   1      28.384  18.596   8.586  0.00  0.00     0.178 C 
HETATM   18  O   UNK N   1      29.498  18.693   9.069  0.00  0.00    -0.646 OA
BRANCH  17  19
HETATM   19  O   UNK N   1      27.412  17.993   9.301  0.00  0.00    -0.773 OA
HETATM   20  H   UNK N   1      27.579  17.173   9.723  0.00  0.00     0.167 HD
ENDBRANCH  17  19
ENDBRANCH   2  17
TORSDOF 4
ENDMDL
MODEL 5
REMARK VINA RESULT:      -6.2      8.955     10.550
REMARK  4 active torsions:
REMARK  status: ('A' for Active; 'I' for Inactive)
REMARK    1  A    between atoms: O_1  and  C_18 
REMARK    2  A    between atoms: N_3  and  C_5 
REMARK    3  A    between atoms: N_3  and  C_7 
REMARK    4  A    between atoms: C_12  and  C_18 
ROOT
HETATM    1  C   UNK N   1      22.208  13.064   9.753  0.00  0.00     0.049 A 
HETATM    2  C   UNK N   1      23.461  12.764  10.345  0.00  0.00     0.064 A 
HETATM    3  C   UNK N   1      21.027  12.705  10.426  0.00  0.00     0.030 A 
HETATM    4  C   UNK N   1      23.494  12.117  11.586  0.00  0.00     0.020 A 
HETATM    5  C   UNK N   1      21.079  12.062  11.662  0.00  0.00     0.002 A 
HETATM    6  C   UNK N   1      22.311  11.769  12.243  0.00  0.00     0.001 A 
ENDROOT
BRANCH   1   7
HETATM    7  N   UNK N   1      22.176  13.721   8.494  0.00  0.00    -0.355 N 
HETATM    8  H   UNK N   1      22.620  13.245   7.756  0.00  0.00     0.166 HD
BRANCH   7   9
HETATM    9  C   UNK N   1      21.590  14.971   8.153  0.00  0.00     0.039 A 
HETATM   10  C   UNK N   1      22.103  15.675   7.050  0.00  0.00    -0.029 A 
HETATM   11  C   UNK N   1      21.547  16.916   6.691  0.00  0.00    -0.054 A 
HETATM   12  C   UNK N   1      23.241  15.098   6.262  0.00  0.00     0.051 C 
HETATM   13  C   UNK N   1      20.488  17.445   7.434  0.00  0.00     0.007 A 
HETATM   14  C   UNK N   1      22.068  17.686   5.526  0.00  0.00     0.049 C 
HETATM   15  C   UNK N   1      19.979  16.747   8.530  0.00  0.00     0.003 A 
HETATM   16  C   UNK N   1      20.527  15.515   8.888  0.00  0.00     0.030 A 
ENDBRANCH   7   9
ENDBRANCH   1   7
BRANCH   2  17
HETATM   17  C   UNK N   1      24.749  13.120   9.683  0.00  0.00     0.178 C 
HETATM   18  O   UNK N   1      24.918  12.947   8.490  0.00  0.00    -0.646 OA
BRANCH  17  19
HETATM   19  O   UNK N   1      25.753  13.646  10.415  0.00  0.00    -0.773 OA
HETATM   20  H   UNK N   1      26.644  13.471  10.185  0.00  0.00     0.167 HD
ENDBRANCH  17  19
ENDBRANCH   2  17
TORSDOF 4
ENDMDL
MODEL 6
REMARK VINA RESULT:      -6.1      9.074     11.527
REMARK  4 active torsions:
REMARK  status: ('A' for Active; 'I' for Inactive)
REMARK    1  A    between atoms: O_1  and  C_18 
REMARK    2  A    between atoms: N_3  and  C_5 
REMARK    3  A    between atoms: N_3  and  C_7 
REMARK    4  A    between atoms: C_12  and  C_18 
ROOT
HETATM    1  C   UNK N   1      21.137  14.839   8.238  0.00  0.00     0.049 A 
HETATM    2  C   UNK N   1      21.713  15.665   7.240  0.00  0.00     0.064 A 
HETATM    3  C   UNK N   1      20.063  15.331   9.000  0.00  0.00     0.030 A 
HETATM    4  C   UNK N   1      21.199  16.951   7.036  0.00  0.00     0.020 A 
HETATM    5  C   UNK N   1      19.564  16.614   8.783  0.00  0.00     0.002 A 
HETATM    6  C   UNK N   1      20.131  17.424   7.801  0.00  0.00     0.001 A 
ENDROOT
BRANCH   1   7
HETATM    7  N   UNK N   1      21.659  13.534   8.444  0.00  0.00    -0.355 N 
HETATM    8  H   UNK N   1      21.272  12.828   7.877  0.00  0.00     0.166 HD
BRANCH   7   9
HETATM    9  C   UNK N   1      22.664  13.107   9.355  0.00  0.00     0.039 A 
HETATM   10  C   UNK N   1      22.267  12.597  10.603  0.00  0.00    -0.029 A 
HETATM   11  C   UNK N   1      23.239  12.171  11.526  0.00  0.00    -0.054 A 
HETATM   12  C   UNK N   1      20.810  12.509  10.942  0.00  0.00     0.051 C 
HETATM   13  C   UNK N   1      24.595  12.259  11.200  0.00  0.00     0.007 A 
HETATM   14  C   UNK N   1      22.850  11.623  12.857  0.00  0.00     0.049 C 
HETATM   15  C   UNK N   1      24.990  12.767   9.961  0.00  0.00     0.003 A 
HETATM   16  C   UNK N   1      24.028  13.189   9.042  0.00  0.00     0.030 A 
ENDBRANCH   7   9
ENDBRANCH   1   7
BRANCH   2  17
HETATM   17  C   UNK N   1      22.853  15.201   6.397  0.00  0.00     0.178 C 
HETATM   18  O   UNK N   1      22.760  14.213   5.693  0.00  0.00    -0.646 OA
BRANCH  17  19
HETATM   19  O   UNK N   1      24.014  15.888   6.410  0.00  0.00    -0.773 OA
HETATM   20  H   UNK N   1      24.804  15.470   6.691  0.00  0.00     0.167 HD
ENDBRANCH  17  19
ENDBRANCH   2  17
TORSDOF 4
ENDMDL
MODEL 7
REMARK VINA RESULT:      -6.0      9.634     11.579
REMARK  4 active torsions:
REMARK  status: ('A' for Active; 'I' for Inactive)
REMARK    1  A    between atoms: O_1  and  C_18 
REMARK    2  A    between atoms: N_3  and  C_5 
REMARK    3  A    between atoms: N_3  and  C_7 
REMARK    4  A    between atoms: C_12  and  C_18 
ROOT
HETATM    1  C   UNK N   1      21.935  15.749   6.857  0.00  0.00     0.049 A 
HETATM    2  C   UNK N   1      21.137  16.894   7.107  0.00  0.00     0.064 A 
HETATM    3  C   UNK N   1      22.950  15.819   5.887  0.00  0.00     0.030 A 
HETATM    4  C   UNK N   1      21.378  18.068   6.383  0.00  0.00     0.020 A 
HETATM    5  C   UNK N   1      23.176  16.996   5.175  0.00  0.00     0.002 A 
HETATM    6  C   UNK N   1      22.391  18.121   5.423  0.00  0.00     0.001 A 
ENDROOT
BRANCH   1   7
HETATM    7  N   UNK N   1      21.690  14.559   7.593  0.00  0.00    -0.355 N 
HETATM    8  H   UNK N   1      20.782  14.190   7.512  0.00  0.00     0.166 HD
BRANCH   7   9
HETATM    9  C   UNK N   1      22.577  13.828   8.430  0.00  0.00     0.039 A 
HETATM   10  C   UNK N   1      22.098  13.347   9.660  0.00  0.00    -0.029 A 
HETATM   11  C   UNK N   1      22.953  12.624  10.511  0.00  0.00    -0.054 A 
HETATM   12  C   UNK N   1      20.676  13.608  10.058  0.00  0.00     0.051 C 
HETATM   13  C   UNK N   1      24.277  12.389  10.130  0.00  0.00     0.007 A 
HETATM   14  C   UNK N   1      22.474  12.100  11.822  0.00  0.00     0.049 C 
HETATM   15  C   UNK N   1      24.755  12.868   8.910  0.00  0.00     0.003 A 
HETATM   16  C   UNK N   1      23.909  13.584   8.062  0.00  0.00     0.030 A 
ENDBRANCH   7   9
ENDBRANCH   1   7
BRANCH   2  17
HETATM   17  C   UNK N   1      20.046  16.885   8.124  0.00  0.00     0.178 C 
HETATM   18  O   UNK N   1      20.033  17.680   9.047  0.00  0.00    -0.646 OA
BRANCH  17  19
HETATM   19  O   UNK N   1      19.049  15.982   8.025  0.00  0.00    -0.773 OA
HETATM   20  H   UNK N   1      19.236  15.104   7.757  0.00  0.00     0.167 HD
ENDBRANCH  17  19
ENDBRANCH   2  17
TORSDOF 4
ENDMDL
MODEL 8
REMARK VINA RESULT:      -5.9      8.202     11.843
REMARK  4 active torsions:
REMARK  status: ('A' for Active; 'I' for Inactive)
REMARK    1  A    between atoms: O_1  and  C_18 
REMARK    2  A    between atoms: N_3  and  C_5 
REMARK    3  A    between atoms: N_3  and  C_7 
REMARK    4  A    between atoms: C_12  and  C_18 
ROOT
HETATM    1  C   UNK N   1      21.883  18.104   3.360  0.00  0.00     0.049 A 
HETATM    2  C   UNK N   1      20.869  18.875   2.739  0.00  0.00     0.064 A 
HETATM    3  C   UNK N   1      21.939  16.721   3.117  0.00  0.00     0.030 A 
HETATM    4  C   UNK N   1      19.946  18.243   1.898  0.00  0.00     0.020 A 
HETATM    5  C   UNK N   1      21.012  16.107   2.277  0.00  0.00     0.002 A 
HETATM    6  C   UNK N   1      20.016  16.867   1.666  0.00  0.00     0.001 A 
ENDROOT
BRANCH   1   7
HETATM    7  N   UNK N   1      22.819  18.748   4.213  0.00  0.00    -0.355 N 
HETATM    8  H   UNK N   1      22.509  18.920   5.131  0.00  0.00     0.166 HD
BRANCH   7   9
HETATM    9  C   UNK N   1      24.144  19.176   3.924  0.00  0.00     0.039 A 
HETATM   10  C   UNK N   1      25.219  18.391   4.376  0.00  0.00    -0.029 A 
HETATM   11  C   UNK N   1      26.540  18.792   4.109  0.00  0.00    -0.054 A 
HETATM   12  C   UNK N   1      24.949  17.130   5.140  0.00  0.00     0.051 C 
HETATM   13  C   UNK N   1      26.780  19.970   3.398  0.00  0.00     0.007 A 
HETATM   14  C   UNK N   1      27.701  17.979   4.574  0.00  0.00     0.049 C 
HETATM   15  C   UNK N   1      25.714  20.752   2.950  0.00  0.00     0.003 A 
HETATM   16  C   UNK N   1      24.401  20.357   3.212  0.00  0.00     0.030 A 
ENDBRANCH   7   9
ENDBRANCH   1   7
BRANCH   2  17
HETATM   17  C   UNK N   1      20.756  20.347   2.955  0.00  0.00     0.178 C 
HETATM   18  O   UNK N   1      20.303  20.804   3.989  0.00  0.00    -0.646 OA
BRANCH  17  19
HETATM   19  O   UNK N   1      21.165  21.196   1.989  0.00  0.00    -0.773 OA
HETATM   20  H   UNK N   1      21.983  21.645   2.074  0.00  0.00     0.167 HD
ENDBRANCH  17  19
ENDBRANCH   2  17
TORSDOF 4
ENDMDL
MODEL 9
REMARK VINA RESULT:      -5.9      3.082      4.604
REMARK  4 active torsions:
REMARK  status: ('A' for Active; 'I' for Inactive)
REMARK    1  A    between atoms: O_1  and  C_18 
REMARK    2  A    between atoms: N_3  and  C_5 
REMARK    3  A    between atoms: N_3  and  C_7 
REMARK    4  A    between atoms: C_12  and  C_18 
ROOT
HETATM    1  C   UNK N   1      29.864  17.422   6.807  0.00  0.00     0.049 A 
HETATM    2  C   UNK N   1      31.004  17.202   5.995  0.00  0.00     0.064 A 
HETATM    3  C   UNK N   1      30.014  17.465   8.204  0.00  0.00     0.030 A 
HETATM    4  C   UNK N   1      32.254  17.033   6.601  0.00  0.00     0.020 A 
HETATM    5  C   UNK N   1      31.267  17.294   8.791  0.00  0.00     0.002 A 
HETATM    6  C   UNK N   1      32.387  17.080   7.991  0.00  0.00     0.001 A 
ENDROOT
BRANCH   1   7
HETATM    7  N   UNK N   1      28.596  17.594   6.190  0.00  0.00    -0.355 N 
HETATM    8  H   UNK N   1      28.147  16.766   5.905  0.00  0.00     0.166 HD
BRANCH   7   9
HETATM    9  C   UNK N   1      27.885  18.798   5.930  0.00  0.00     0.039 A 
HETATM   10  C   UNK N   1      27.240  18.943   4.689  0.00  0.00    -0.029 A 
HETATM   11  C   UNK N   1      26.533  20.124   4.401  0.00  0.00    -0.054 A 
HETATM   12  C   UNK N   1      27.309  17.836   3.681  0.00  0.00     0.051 C 
HETATM   13  C   UNK N   1      26.477  21.150   5.349  0.00  0.00     0.007 A 
HETATM   14  C   UNK N   1      25.837  20.307   3.096  0.00  0.00     0.049 C 
HETATM   15  C   UNK N   1      27.119  21.008   6.580  0.00  0.00     0.003 A 
HETATM   16  C   UNK N   1      27.820  19.837   6.870  0.00  0.00     0.030 A 
ENDBRANCH   7   9
ENDBRANCH   1   7
BRANCH   2  17
HETATM   17  C   UNK N   1      30.911  17.148   4.506  0.00  0.00     0.178 C 
HETATM   18  O   UNK N   1      30.324  16.244   3.941  0.00  0.00    -0.646 OA
BRANCH  17  19
HETATM   19  O   UNK N   1      31.486  18.118   3.766  0.00  0.00    -0.773 OA
HETATM   20  H   UNK N   1      32.281  18.521   4.057  0.00  0.00     0.167 HD
ENDBRANCH  17  19
ENDBRANCH   2  17
TORSDOF 4
ENDMDL
