MODEL 1
REMARK VINA RESULT:      -6.5      0.000      0.000
REMARK  10 active torsions:
REMARK  status: ('A' for Active; 'I' for Inactive)
REMARK    1  A    between atoms: C_18  and  O_1 
REMARK    2  A    between atoms: O_5  and  N_8 
REMARK    3  A    between atoms: C_10  and  N_6 
REMARK       I    between atoms: N_6  and  C_14 
REMARK       I    between atoms: N_7  and  C_19 
REMARK       I    between atoms: N_8  and  C_22 
REMARK    4  A    between atoms: C_9  and  C_10 
REMARK    5  A    between atoms: C_10  and  C_19 
REMARK    6  A    between atoms: C_11  and  C_12 
REMARK    7  A    between atoms: C_11  and  C_14 
REMARK    8  A    between atoms: C_11  and  C_18 
REMARK    9  A    between atoms: C_12  and  C_13 
REMARK   10  A    between atoms: C_18  and  C_22 
ROOT
HETATM    1  C   UNK N   1      20.183  16.102   8.465  0.00  0.00     0.116 C 
ENDROOT
BRANCH   1   2
HETATM    2  C   UNK N   1      20.287  16.250   6.948  0.00  0.00     0.021 C 
BRANCH   2   3
HETATM    3  C   UNK N   1      21.615  16.874   6.545  0.00  0.00    -0.022 C 
HETATM    4  C   UNK N   1      22.204  16.093   5.390  0.00  0.00     0.009 C 
HETATM    5  C   UNK N   1      21.408  18.314   6.109  0.00  0.00     0.009 C 
ENDBRANCH   2   3
ENDBRANCH   1   2
BRANCH   1   6
HETATM    6  C   UNK N   1      20.482  14.685   8.874  0.00  0.00     0.225 C 
HETATM    7  O   UNK N   1      19.671  14.090   9.565  0.00  0.00    -0.273 OA
HETATM    8  N   UNK N   1      21.629  14.077   8.457  0.00  0.00    -0.347 N 
HETATM    9  H   UNK N   1      22.237  14.606   7.892  0.00  0.00     0.163 HD
BRANCH   8  10
HETATM   10  C   UNK N   1      22.037  12.709   8.775  0.00  0.00     0.183 C 
BRANCH  10  11
HETATM   11  C   UNK N   1      22.598  11.928   7.552  0.00  0.00    -0.022 C 
HETATM   12  C   UNK N   1      23.389  10.695   7.944  0.00  0.00     0.017 C 
HETATM   13  C   UNK N   1      21.484  11.484   6.620  0.00  0.00     0.017 C 
HETATM   14  C   UNK N   1      23.504  12.845   6.750  0.00  0.00     0.017 C 
ENDBRANCH  10  11
BRANCH  10  15
HETATM   15  C   UNK N   1      22.820  12.602  10.074  0.00  0.00     0.240 C 
HETATM   16  O   UNK N   1      23.902  13.160  10.196  0.00  0.00    -0.271 OA
HETATM   17  N   UNK N   1      22.283  11.936  11.124  0.00  0.00    -0.364 N 
HETATM   18  C   UNK N   1      22.956  11.844  12.396  0.00  0.00     0.149 C 
HETATM   19  H   UNK N   1      21.406  11.501  11.016  0.00  0.00     0.161 HD
ENDBRANCH  10  15
ENDBRANCH   8  10
ENDBRANCH   1   6
BRANCH   1  20
HETATM   20  C   UNK N   1      18.820  16.604   8.969  0.00  0.00     0.225 C 
BRANCH  20  21
HETATM   21  O   UNK N   1      17.902  16.576   7.914  0.00  0.00    -0.385 OA
HETATM   22  H   UNK N   1      17.367  15.787   7.730  0.00  0.00     0.210 HD
ENDBRANCH  20  21
BRANCH  20  23
HETATM   23  C   UNK N   1      18.909  18.005   9.527  0.00  0.00     0.270 C 
HETATM   24  O   UNK N   1      19.909  18.678   9.320  0.00  0.00    -0.268 OA
HETATM   25  N   UNK N   1      17.897  18.516  10.263  0.00  0.00    -0.235 N 
HETATM   26  H   UNK N   1      17.099  17.968  10.439  0.00  0.00     0.197 HD
BRANCH  25  27
HETATM   27  O   UNK N   1      17.965  19.761  10.755  0.00  0.00    -0.287 OA
HETATM   28  H   UNK N   1      18.584  20.458  10.487  0.00  0.00     0.244 HD
ENDBRANCH  25  27
ENDBRANCH  20  23
ENDBRANCH   1  20
TORSDOF 10
ENDMDL
MODEL 2
REMARK VINA RESULT:      -6.3      4.232      6.051
REMARK  10 active torsions:
REMARK  status: ('A' for Active; 'I' for Inactive)
REMARK    1  A    between atoms: C_18  and  O_1 
REMARK    2  A    between atoms: O_5  and  N_8 
REMARK    3  A    between atoms: C_10  and  N_6 
REMARK       I    between atoms: N_6  and  C_14 
REMARK       I    between atoms: N_7  and  C_19 
REMARK       I    between atoms: N_8  and  C_22 
REMARK    4  A    between atoms: C_9  and  C_10 
REMARK    5  A    between atoms: C_10  and  C_19 
REMARK    6  A    between atoms: C_11  and  C_12 
REMARK    7  A    between atoms: C_11  and  C_14 
REMARK    8  A    between atoms: C_11  and  C_18 
REMARK    9  A    between atoms: C_12  and  C_13 
REMARK   10  A    between atoms: C_18  and  C_22 
ROOT
HETATM    1  C   UNK N   1      20.580  17.591   3.428  0.00  0.00     0.116 C 
ENDROOT
BRANCH   1   2
HETATM    2  C   UNK N   1      20.616  16.669   2.211  0.00  0.00     0.021 C 
BRANCH   2   3
HETATM    3  C   UNK N   1      21.468  15.438   2.477  0.00  0.00    -0.022 C 
HETATM    4  C   UNK N   1      21.650  14.668   1.187  0.00  0.00     0.009 C 
HETATM    5  C   UNK N   1      22.833  15.847   3.001  0.00  0.00     0.009 C 
ENDBRANCH   2   3
ENDBRANCH   1   2
BRANCH   1   6
HETATM    6  C   UNK N   1      19.972  16.878   4.606  0.00  0.00     0.225 C 
HETATM    7  O   UNK N   1      18.837  16.440   4.506  0.00  0.00    -0.273 OA
HETATM    8  N   UNK N   1      20.690  16.712   5.753  0.00  0.00    -0.347 N 
HETATM    9  H   UNK N   1      21.603  17.078   5.768  0.00  0.00     0.163 HD
BRANCH   8  10
HETATM   10  C   UNK N   1      20.224  16.036   6.964  0.00  0.00     0.183 C 
BRANCH  10  11
HETATM   11  C   UNK N   1      21.162  14.887   7.434  0.00  0.00    -0.022 C 
HETATM   12  C   UNK N   1      22.610  15.100   7.035  0.00  0.00     0.017 C 
HETATM   13  C   UNK N   1      21.120  14.720   8.943  0.00  0.00     0.017 C 
HETATM   14  C   UNK N   1      20.685  13.579   6.832  0.00  0.00     0.017 C 
ENDBRANCH  10  11
BRANCH  10  15
HETATM   15  C   UNK N   1      19.727  16.996   8.033  0.00  0.00     0.240 C 
HETATM   16  O   UNK N   1      20.383  17.981   8.339  0.00  0.00    -0.271 OA
HETATM   17  N   UNK N   1      18.516  16.788   8.606  0.00  0.00    -0.364 N 
HETATM   18  C   UNK N   1      17.969  17.691   9.588  0.00  0.00     0.149 C 
HETATM   19  H   UNK N   1      17.993  15.996   8.342  0.00  0.00     0.161 HD
ENDBRANCH  10  15
ENDBRANCH   8  10
ENDBRANCH   1   6
BRANCH   1  20
HETATM   20  C   UNK N   1      19.873  18.915   3.090  0.00  0.00     0.225 C 
BRANCH  20  21
HETATM   21  O   UNK N   1      18.629  18.636   2.514  0.00  0.00    -0.385 OA
HETATM   22  H   UNK N   1      17.814  18.647   3.041  0.00  0.00     0.210 HD
ENDBRANCH  20  21
BRANCH  20  23
HETATM   23  C   UNK N   1      20.691  19.762   2.145  0.00  0.00     0.270 C 
HETATM   24  O   UNK N   1      21.759  20.228   2.517  0.00  0.00    -0.268 OA
HETATM   25  N   UNK N   1      20.248  20.018   0.893  0.00  0.00    -0.235 N 
HETATM   26  H   UNK N   1      19.382  19.652   0.600  0.00  0.00     0.197 HD
BRANCH  25  27
HETATM   27  O   UNK N   1      20.971  20.762   0.046  0.00  0.00    -0.287 OA
HETATM   28  H   UNK N   1      20.739  20.993  -0.868  0.00  0.00     0.244 HD
ENDBRANCH  25  27
ENDBRANCH  20  23
ENDBRANCH   1  20
TORSDOF 10
ENDMDL
MODEL 3
REMARK VINA RESULT:      -6.3     16.577     19.086
REMARK  10 active torsions:
REMARK  status: ('A' for Active; 'I' for Inactive)
REMARK    1  A    between atoms: C_18  and  O_1 
REMARK    2  A    between atoms: O_5  and  N_8 
REMARK    3  A    between atoms: C_10  and  N_6 
REMARK       I    between atoms: N_6  and  C_14 
REMARK       I    between atoms: N_7  and  C_19 
REMARK       I    between atoms: N_8  and  C_22 
REMARK    4  A    between atoms: C_9  and  C_10 
REMARK    5  A    between atoms: C_10  and  C_19 
REMARK    6  A    between atoms: C_11  and  C_12 
REMARK    7  A    between atoms: C_11  and  C_14 
REMARK    8  A    between atoms: C_11  and  C_18 
REMARK    9  A    between atoms: C_12  and  C_13 
REMARK   10  A    between atoms: C_18  and  C_22 
ROOT
HETATM    1  C   UNK N   1      29.858  23.624  -3.615  0.00  0.00     0.116 C 
ENDROOT
BRANCH   1   2
HETATM    2  C   UNK N   1      30.920  24.709  -3.449  0.00  0.00     0.021 C 
BRANCH   2   3
HETATM    3  C   UNK N   1      31.617  25.003  -4.769  0.00  0.00    -0.022 C 
HETATM    4  C   UNK N   1      32.042  26.456  -4.797  0.00  0.00     0.009 C 
HETATM    5  C   UNK N   1      32.850  24.129  -4.918  0.00  0.00     0.009 C 
ENDBRANCH   2   3
ENDBRANCH   1   2
BRANCH   1   6
HETATM    6  C   UNK N   1      28.482  24.235  -3.624  0.00  0.00     0.225 C 
HETATM    7  O   UNK N   1      27.649  23.819  -2.837  0.00  0.00    -0.273 OA
HETATM    8  N   UNK N   1      28.189  25.251  -4.486  0.00  0.00    -0.347 N 
HETATM    9  H   UNK N   1      28.908  25.549  -5.088  0.00  0.00     0.163 HD
BRANCH   8  10
HETATM   10  C   UNK N   1      26.901  25.935  -4.595  0.00  0.00     0.183 C 
BRANCH  10  11
HETATM   11  C   UNK N   1      27.009  27.483  -4.484  0.00  0.00    -0.022 C 
HETATM   12  C   UNK N   1      28.307  27.945  -3.849  0.00  0.00     0.017 C 
HETATM   13  C   UNK N   1      26.901  28.145  -5.847  0.00  0.00     0.017 C 
HETATM   14  C   UNK N   1      25.854  28.003  -3.648  0.00  0.00     0.017 C 
ENDBRANCH  10  11
BRANCH  10  15
HETATM   15  C   UNK N   1      26.022  25.388  -5.709  0.00  0.00     0.240 C 
HETATM   16  O   UNK N   1      24.804  25.463  -5.634  0.00  0.00    -0.271 OA
HETATM   17  N   UNK N   1      26.599  24.870  -6.820  0.00  0.00    -0.364 N 
HETATM   18  C   UNK N   1      25.818  24.383  -7.930  0.00  0.00     0.149 C 
HETATM   19  H   UNK N   1      27.581  24.825  -6.872  0.00  0.00     0.161 HD
ENDBRANCH  10  15
ENDBRANCH   8  10
ENDBRANCH   1   6
BRANCH   1  20
HETATM   20  C   UNK N   1      30.026  22.528  -2.548  0.00  0.00     0.225 C 
BRANCH  20  21
HETATM   21  O   UNK N   1      30.272  23.129  -1.309  0.00  0.00    -0.385 OA
HETATM   22  H   UNK N   1      29.573  23.211  -0.639  0.00  0.00     0.210 HD
ENDBRANCH  20  21
BRANCH  20  23
HETATM   23  C   UNK N   1      31.155  21.584  -2.887  0.00  0.00     0.270 C 
HETATM   24  O   UNK N   1      32.234  21.700  -2.323  0.00  0.00    -0.268 OA
HETATM   25  N   UNK N   1      30.986  20.618  -3.819  0.00  0.00    -0.235 N 
HETATM   26  H   UNK N   1      30.121  20.535  -4.280  0.00  0.00     0.197 HD
BRANCH  25  27
HETATM   27  O   UNK N   1      31.979  19.772  -4.120  0.00  0.00    -0.287 OA
HETATM   28  H   UNK N   1      32.530  19.277  -3.493  0.00  0.00     0.244 HD
ENDBRANCH  25  27
ENDBRANCH  20  23
ENDBRANCH   1  20
TORSDOF 10
ENDMDL
MODEL 4
REMARK VINA RESULT:      -6.1     10.051     12.628
REMARK  10 active torsions:
REMARK  status: ('A' for Active; 'I' for Inactive)
REMARK    1  A    between atoms: C_18  and  O_1 
REMARK    2  A    between atoms: O_5  and  N_8 
REMARK    3  A    between atoms: C_10  and  N_6 
REMARK       I    between atoms: N_6  and  C_14 
REMARK       I    between atoms: N_7  and  C_19 
REMARK       I    between atoms: N_8  and  C_22 
REMARK    4  A    between atoms: C_9  and  C_10 
REMARK    5  A    between atoms: C_10  and  C_19 
REMARK    6  A    between atoms: C_11  and  C_12 
REMARK    7  A    between atoms: C_11  and  C_14 
REMARK    8  A    between atoms: C_11  and  C_18 
REMARK    9  A    between atoms: C_12  and  C_13 
REMARK   10  A    between atoms: C_18  and  C_22 
ROOT
HETATM    1  C   UNK N   1      33.253  16.305   7.361  0.00  0.00     0.116 C 
ENDROOT
BRANCH   1   2
HETATM    2  C   UNK N   1      33.946  15.502   6.261  0.00  0.00     0.021 C 
BRANCH   2   3
HETATM    3  C   UNK N   1      35.178  14.787   6.794  0.00  0.00    -0.022 C 
HETATM    4  C   UNK N   1      34.777  13.892   7.947  0.00  0.00     0.009 C 
HETATM    5  C   UNK N   1      35.801  13.932   5.704  0.00  0.00     0.009 C 
ENDBRANCH   2   3
ENDBRANCH   1   2
BRANCH   1   6
HETATM    6  C   UNK N   1      31.761  16.129   7.276  0.00  0.00     0.225 C 
HETATM    7  O   UNK N   1      31.307  14.999   7.188  0.00  0.00    -0.273 OA
HETATM    8  N   UNK N   1      30.938  17.215   7.319  0.00  0.00    -0.347 N 
HETATM    9  H   UNK N   1      31.365  18.098   7.402  0.00  0.00     0.163 HD
BRANCH   8  10
HETATM   10  C   UNK N   1      29.477  17.185   7.252  0.00  0.00     0.183 C 
BRANCH  10  11
HETATM   11  C   UNK N   1      28.788  18.073   8.328  0.00  0.00    -0.022 C 
HETATM   12  C   UNK N   1      27.997  19.223   7.734  0.00  0.00     0.017 C 
HETATM   13  C   UNK N   1      27.841  17.260   9.194  0.00  0.00     0.017 C 
HETATM   14  C   UNK N   1      29.847  18.646   9.251  0.00  0.00     0.017 C 
ENDBRANCH  10  11
BRANCH  10  15
HETATM   15  C   UNK N   1      28.938  17.284   5.834  0.00  0.00     0.240 C 
HETATM   16  O   UNK N   1      29.526  17.946   4.990  0.00  0.00    -0.271 OA
HETATM   17  N   UNK N   1      27.833  16.581   5.490  0.00  0.00    -0.364 N 
HETATM   18  C   UNK N   1      27.304  16.595   4.148  0.00  0.00     0.149 C 
HETATM   19  H   UNK N   1      27.376  16.043   6.176  0.00  0.00     0.161 HD
ENDBRANCH  10  15
ENDBRANCH   8  10
ENDBRANCH   1   6
BRANCH   1  20
HETATM   20  C   UNK N   1      33.693  17.778   7.320  0.00  0.00     0.225 C 
BRANCH  20  21
HETATM   21  O   UNK N   1      34.316  18.037   6.094  0.00  0.00    -0.385 OA
HETATM   22  H   UNK N   1      35.255  17.837   5.952  0.00  0.00     0.210 HD
ENDBRANCH  20  21
BRANCH  20  23
HETATM   23  C   UNK N   1      34.637  18.113   8.450  0.00  0.00     0.270 C 
HETATM   24  O   UNK N   1      35.257  19.167   8.431  0.00  0.00    -0.268 OA
HETATM   25  N   UNK N   1      34.809  17.252   9.478  0.00  0.00    -0.235 N 
HETATM   26  H   UNK N   1      34.318  16.399   9.485  0.00  0.00     0.197 HD
BRANCH  25  27
HETATM   27  O   UNK N   1      35.639  17.545  10.489  0.00  0.00    -0.287 OA
HETATM   28  H   UNK N   1      35.670  17.114  11.357  0.00  0.00     0.244 HD
ENDBRANCH  25  27
ENDBRANCH  20  23
ENDBRANCH   1  20
TORSDOF 10
ENDMDL
MODEL 5
REMARK VINA RESULT:      -6.1      5.491      7.319
REMARK  10 active torsions:
REMARK  status: ('A' for Active; 'I' for Inactive)
REMARK    1  A    between atoms: C_18  and  O_1 
REMARK    2  A    between atoms: O_5  and  N_8 
REMARK    3  A    between atoms: C_10  and  N_6 
REMARK       I    between atoms: N_6  and  C_14 
REMARK       I    between atoms: N_7  and  C_19 
REMARK       I    between atoms: N_8  and  C_22 
REMARK    4  A    between atoms: C_9  and  C_10 
REMARK    5  A    between atoms: C_10  and  C_19 
REMARK    6  A    between atoms: C_11  and  C_12 
REMARK    7  A    between atoms: C_11  and  C_14 
REMARK    8  A    between atoms: C_11  and  C_18 
REMARK    9  A    between atoms: C_12  and  C_13 
REMARK   10  A    between atoms: C_18  and  C_22 
ROOT
HETATM    1  C   UNK N   1      20.890  18.143   3.094  0.00  0.00     0.116 C 
ENDROOT
BRANCH   1   2
HETATM    2  C   UNK N   1      19.931  16.969   3.284  0.00  0.00     0.021 C 
BRANCH   2   3
HETATM    3  C   UNK N   1      20.138  15.910   2.212  0.00  0.00    -0.022 C 
HETATM    4  C   UNK N   1      20.310  16.585   0.868  0.00  0.00     0.009 C 
HETATM    5  C   UNK N   1      21.382  15.094   2.514  0.00  0.00     0.009 C 
ENDBRANCH   2   3
ENDBRANCH   1   2
BRANCH   1   6
HETATM    6  C   UNK N   1      21.924  18.156   4.188  0.00  0.00     0.225 C 
HETATM    7  O   UNK N   1      21.577  18.449   5.320  0.00  0.00    -0.273 OA
HETATM    8  N   UNK N   1      23.218  17.824   3.913  0.00  0.00    -0.347 N 
HETATM    9  H   UNK N   1      23.432  17.586   2.983  0.00  0.00     0.163 HD
BRANCH   8  10
HETATM   10  C   UNK N   1      24.316  17.790   4.879  0.00  0.00     0.183 C 
BRANCH  10  11
HETATM   11  C   UNK N   1      24.829  16.354   5.185  0.00  0.00    -0.022 C 
HETATM   12  C   UNK N   1      26.220  16.334   5.790  0.00  0.00     0.017 C 
HETATM   13  C   UNK N   1      23.900  15.625   6.142  0.00  0.00     0.017 C 
HETATM   14  C   UNK N   1      24.854  15.550   3.898  0.00  0.00     0.017 C 
ENDBRANCH  10  11
BRANCH  10  15
HETATM   15  C   UNK N   1      25.371  18.856   4.627  0.00  0.00     0.240 C 
HETATM   16  O   UNK N   1      25.875  18.982   3.520  0.00  0.00    -0.271 OA
HETATM   17  N   UNK N   1      25.707  19.711   5.623  0.00  0.00    -0.364 N 
HETATM   18  C   UNK N   1      26.662  20.773   5.429  0.00  0.00     0.149 C 
HETATM   19  H   UNK N   1      25.285  19.605   6.506  0.00  0.00     0.161 HD
ENDBRANCH  10  15
ENDBRANCH   8  10
ENDBRANCH   1   6
BRANCH   1  20
HETATM   20  C   UNK N   1      20.116  19.467   2.976  0.00  0.00     0.225 C 
BRANCH  20  21
HETATM   21  O   UNK N   1      18.815  19.199   2.536  0.00  0.00    -0.385 OA
HETATM   22  H   UNK N   1      18.105  19.855   2.629  0.00  0.00     0.210 HD
ENDBRANCH  20  21
BRANCH  20  23
HETATM   23  C   UNK N   1      20.787  20.426   2.023  0.00  0.00     0.270 C 
HETATM   24  O   UNK N   1      21.577  21.256   2.452  0.00  0.00    -0.268 OA
HETATM   25  N   UNK N   1      20.514  20.383   0.699  0.00  0.00    -0.235 N 
HETATM   26  H   UNK N   1      19.869  19.723   0.358  0.00  0.00     0.197 HD
BRANCH  25  27
HETATM   27  O   UNK N   1      21.111  21.225  -0.154  0.00  0.00    -0.287 OA
HETATM   28  H   UNK N   1      22.019  21.163  -0.492  0.00  0.00     0.244 HD
ENDBRANCH  25  27
ENDBRANCH  20  23
ENDBRANCH   1  20
TORSDOF 10
ENDMDL
MODEL 6
REMARK VINA RESULT:      -6.0      9.715     12.312
REMARK  10 active torsions:
REMARK  status: ('A' for Active; 'I' for Inactive)
REMARK    1  A    between atoms: C_18  and  O_1 
REMARK    2  A    between atoms: O_5  and  N_8 
REMARK    3  A    between atoms: C_10  and  N_6 
REMARK       I    between atoms: N_6  and  C_14 
REMARK       I    between atoms: N_7  and  C_19 
REMARK       I    between atoms: N_8  and  C_22 
REMARK    4  A    between atoms: C_9  and  C_10 
REMARK    5  A    between atoms: C_10  and  C_19 
REMARK    6  A    between atoms: C_11  and  C_12 
REMARK    7  A    between atoms: C_11  and  C_14 
REMARK    8  A    between atoms: C_11  and  C_18 
REMARK    9  A    between atoms: C_12  and  C_13 
REMARK   10  A    between atoms: C_18  and  C_22 
ROOT
HETATM    1  C   UNK N   1      33.252  16.588   6.764  0.00  0.00     0.116 C 
ENDROOT
BRANCH   1   2
HETATM    2  C   UNK N   1      33.415  17.200   5.374  0.00  0.00     0.021 C 
BRANCH   2   3
HETATM    3  C   UNK N   1      32.787  16.316   4.306  0.00  0.00    -0.022 C 
HETATM    4  C   UNK N   1      32.357  17.175   3.137  0.00  0.00     0.009 C 
HETATM    5  C   UNK N   1      33.793  15.289   3.817  0.00  0.00     0.009 C 
ENDBRANCH   2   3
ENDBRANCH   1   2
BRANCH   1   6
HETATM    6  C   UNK N   1      31.808  16.248   7.021  0.00  0.00     0.225 C 
HETATM    7  O   UNK N   1      31.501  15.080   7.193  0.00  0.00    -0.273 OA
HETATM    8  N   UNK N   1      30.871  17.237   7.080  0.00  0.00    -0.347 N 
HETATM    9  H   UNK N   1      31.184  18.160   6.945  0.00  0.00     0.163 HD
BRANCH   8  10
HETATM   10  C   UNK N   1      29.442  17.046   7.327  0.00  0.00     0.183 C 
BRANCH  10  11
HETATM   11  C   UNK N   1      28.846  18.066   8.340  0.00  0.00    -0.022 C 
HETATM   12  C   UNK N   1      28.077  19.190   7.672  0.00  0.00     0.017 C 
HETATM   13  C   UNK N   1      27.907  17.387   9.323  0.00  0.00     0.017 C 
HETATM   14  C   UNK N   1      29.973  18.673   9.155  0.00  0.00     0.017 C 
ENDBRANCH  10  11
BRANCH  10  15
HETATM   15  C   UNK N   1      28.642  16.793   6.059  0.00  0.00     0.240 C 
HETATM   16  O   UNK N   1      27.591  16.168   6.102  0.00  0.00    -0.271 OA
HETATM   17  N   UNK N   1      29.067  17.318   4.886  0.00  0.00    -0.364 N 
HETATM   18  C   UNK N   1      28.324  17.155   3.661  0.00  0.00     0.149 C 
HETATM   19  H   UNK N   1      29.909  17.829   4.868  0.00  0.00     0.161 HD
ENDBRANCH  10  15
ENDBRANCH   8  10
ENDBRANCH   1   6
BRANCH   1  20
HETATM   20  C   UNK N   1      33.859  17.506   7.839  0.00  0.00     0.225 C 
BRANCH  20  21
HETATM   21  O   UNK N   1      34.802  18.350   7.242  0.00  0.00    -0.385 OA
HETATM   22  H   UNK N   1      35.513  18.760   7.759  0.00  0.00     0.210 HD
ENDBRANCH  20  21
BRANCH  20  23
HETATM   23  C   UNK N   1      34.514  16.716   8.947  0.00  0.00     0.270 C 
HETATM   24  O   UNK N   1      35.020  15.630   8.701  0.00  0.00    -0.268 OA
HETATM   25  N   UNK N   1      34.536  17.195  10.211  0.00  0.00    -0.235 N 
HETATM   26  H   UNK N   1      34.118  18.063  10.409  0.00  0.00     0.197 HD
BRANCH  25  27
HETATM   27  O   UNK N   1      35.122  16.505  11.198  0.00  0.00    -0.287 OA
HETATM   28  H   UNK N   1      34.833  16.455  12.123  0.00  0.00     0.244 HD
ENDBRANCH  25  27
ENDBRANCH  20  23
ENDBRANCH   1  20
TORSDOF 10
ENDMDL
MODEL 7
REMARK VINA RESULT:      -5.9      8.416      9.979
REMARK  10 active torsions:
REMARK  status: ('A' for Active; 'I' for Inactive)
REMARK    1  A    between atoms: C_18  and  O_1 
REMARK    2  A    between atoms: O_5  and  N_8 
REMARK    3  A    between atoms: C_10  and  N_6 
REMARK       I    between atoms: N_6  and  C_14 
REMARK       I    between atoms: N_7  and  C_19 
REMARK       I    between atoms: N_8  and  C_22 
REMARK    4  A    between atoms: C_9  and  C_10 
REMARK    5  A    between atoms: C_10  and  C_19 
REMARK    6  A    between atoms: C_11  and  C_12 
REMARK    7  A    between atoms: C_11  and  C_14 
REMARK    8  A    between atoms: C_11  and  C_18 
REMARK    9  A    between atoms: C_12  and  C_13 
REMARK   10  A    between atoms: C_18  and  C_22 
ROOT
HETATM    1  C   UNK N   1      28.526  18.405   6.894  0.00  0.00     0.116 C 
ENDROOT
BRANCH   1   2
HETATM    2  C   UNK N   1      27.439  18.769   5.883  0.00  0.00     0.021 C 
BRANCH   2   3
HETATM    3  C   UNK N   1      27.822  20.005   5.084  0.00  0.00    -0.022 C 
HETATM    4  C   UNK N   1      27.112  19.976   3.748  0.00  0.00     0.009 C 
HETATM    5  C   UNK N   1      27.410  21.261   5.831  0.00  0.00     0.009 C 
ENDBRANCH   2   3
ENDBRANCH   1   2
BRANCH   1   6
HETATM    6  C   UNK N   1      29.319  17.222   6.406  0.00  0.00     0.225 C 
HETATM    7  O   UNK N   1      28.720  16.255   5.963  0.00  0.00    -0.273 OA
HETATM    8  N   UNK N   1      30.682  17.248   6.442  0.00  0.00    -0.347 N 
HETATM    9  H   UNK N   1      31.106  18.061   6.799  0.00  0.00     0.163 HD
BRANCH   8  10
HETATM   10  C   UNK N   1      31.570  16.174   5.996  0.00  0.00     0.183 C 
BRANCH  10  11
HETATM   11  C   UNK N   1      32.775  16.677   5.149  0.00  0.00    -0.022 C 
HETATM   12  C   UNK N   1      33.810  17.421   5.971  0.00  0.00     0.017 C 
HETATM   13  C   UNK N   1      33.480  15.527   4.452  0.00  0.00     0.017 C 
HETATM   14  C   UNK N   1      32.265  17.606   4.063  0.00  0.00     0.017 C 
ENDBRANCH  10  11
BRANCH  10  15
HETATM   15  C   UNK N   1      31.873  15.156   7.083  0.00  0.00     0.240 C 
HETATM   16  O   UNK N   1      31.861  13.958   6.834  0.00  0.00    -0.271 OA
HETATM   17  N   UNK N   1      32.222  15.584   8.320  0.00  0.00    -0.364 N 
HETATM   18  C   UNK N   1      32.571  14.667   9.377  0.00  0.00     0.149 C 
HETATM   19  H   UNK N   1      32.239  16.551   8.504  0.00  0.00     0.161 HD
ENDBRANCH  10  15
ENDBRANCH   8  10
ENDBRANCH   1   6
BRANCH   1  20
HETATM   20  C   UNK N   1      27.921  18.194   8.292  0.00  0.00     0.225 C 
BRANCH  20  21
HETATM   21  O   UNK N   1      27.235  19.351   8.674  0.00  0.00    -0.385 OA
HETATM   22  H   UNK N   1      27.528  20.231   8.388  0.00  0.00     0.210 HD
ENDBRANCH  20  21
BRANCH  20  23
HETATM   23  C   UNK N   1      28.981  17.870   9.318  0.00  0.00     0.270 C 
HETATM   24  O   UNK N   1      29.977  18.574   9.405  0.00  0.00    -0.268 OA
HETATM   25  N   UNK N   1      28.841  16.801  10.135  0.00  0.00    -0.235 N 
HETATM   26  H   UNK N   1      28.045  16.229  10.055  0.00  0.00     0.197 HD
BRANCH  25  27
HETATM   27  O   UNK N   1      29.773  16.511  11.053  0.00  0.00    -0.287 OA
HETATM   28  H   UNK N   1      29.968  17.013  11.860  0.00  0.00     0.244 HD
ENDBRANCH  25  27
ENDBRANCH  20  23
ENDBRANCH   1  20
TORSDOF 10
ENDMDL
MODEL 8
REMARK VINA RESULT:      -5.9     11.390     14.172
REMARK  10 active torsions:
REMARK  status: ('A' for Active; 'I' for Inactive)
REMARK    1  A    between atoms: C_18  and  O_1 
REMARK    2  A    between atoms: O_5  and  N_8 
REMARK    3  A    between atoms: C_10  and  N_6 
REMARK       I    between atoms: N_6  and  C_14 
REMARK       I    between atoms: N_7  and  C_19 
REMARK       I    between atoms: N_8  and  C_22 
REMARK    4  A    between atoms: C_9  and  C_10 
REMARK    5  A    between atoms: C_10  and  C_19 
REMARK    6  A    between atoms: C_11  and  C_12 
REMARK    7  A    between atoms: C_11  and  C_14 
REMARK    8  A    between atoms: C_11  and  C_18 
REMARK    9  A    between atoms: C_12  and  C_13 
REMARK   10  A    between atoms: C_18  and  C_22 
ROOT
HETATM    1  C   UNK N   1      34.916  15.269  10.087  0.00  0.00     0.116 C 
ENDROOT
BRANCH   1   2
HETATM    2  C   UNK N   1      35.846  14.551   9.111  0.00  0.00     0.021 C 
BRANCH   2   3
HETATM    3  C   UNK N   1      35.267  13.212   8.681  0.00  0.00    -0.022 C 
HETATM    4  C   UNK N   1      35.695  12.916   7.260  0.00  0.00     0.009 C 
HETATM    5  C   UNK N   1      35.775  12.105   9.587  0.00  0.00     0.009 C 
ENDBRANCH   2   3
ENDBRANCH   1   2
BRANCH   1   6
HETATM    6  C   UNK N   1      34.201  16.398   9.393  0.00  0.00     0.225 C 
HETATM    7  O   UNK N   1      34.663  17.524   9.475  0.00  0.00    -0.273 OA
HETATM    8  N   UNK N   1      33.071  16.153   8.671  0.00  0.00    -0.347 N 
HETATM    9  H   UNK N   1      32.755  15.222   8.633  0.00  0.00     0.163 HD
BRANCH   8  10
HETATM   10  C   UNK N   1      32.286  17.153   7.946  0.00  0.00     0.183 C 
BRANCH  10  11
HETATM   11  C   UNK N   1      32.005  16.766   6.465  0.00  0.00    -0.022 C 
HETATM   12  C   UNK N   1      32.072  15.272   6.216  0.00  0.00     0.017 C 
HETATM   13  C   UNK N   1      30.634  17.246   6.018  0.00  0.00     0.017 C 
HETATM   14  C   UNK N   1      33.024  17.449   5.572  0.00  0.00     0.017 C 
ENDBRANCH  10  11
BRANCH  10  15
HETATM   15  C   UNK N   1      31.112  17.692   8.748  0.00  0.00     0.240 C 
HETATM   16  O   UNK N   1      30.886  18.893   8.789  0.00  0.00    -0.271 OA
HETATM   17  N   UNK N   1      30.276  16.826   9.370  0.00  0.00    -0.364 N 
HETATM   18  C   UNK N   1      29.117  17.275  10.102  0.00  0.00     0.149 C 
HETATM   19  H   UNK N   1      30.463  15.861   9.320  0.00  0.00     0.161 HD
ENDBRANCH  10  15
ENDBRANCH   8  10
ENDBRANCH   1   6
BRANCH   1  20
HETATM   20  C   UNK N   1      35.683  15.718  11.342  0.00  0.00     0.225 C 
BRANCH  20  21
HETATM   21  O   UNK N   1      36.981  16.091  10.977  0.00  0.00    -0.385 OA
HETATM   22  H   UNK N   1      37.758  15.741  11.442  0.00  0.00     0.210 HD
ENDBRANCH  20  21
BRANCH  20  23
HETATM   23  C   UNK N   1      35.742  14.626  12.383  0.00  0.00     0.270 C 
HETATM   24  O   UNK N   1      34.750  13.947  12.608  0.00  0.00    -0.268 OA
HETATM   25  N   UNK N   1      36.881  14.400  13.076  0.00  0.00    -0.235 N 
HETATM   26  H   UNK N   1      37.674  14.956  12.902  0.00  0.00     0.197 HD
BRANCH  25  27
HETATM   27  O   UNK N   1      36.945  13.428  13.996  0.00  0.00    -0.287 OA
HETATM   28  H   UNK N   1      36.940  12.472  13.832  0.00  0.00     0.244 HD
ENDBRANCH  25  27
ENDBRANCH  20  23
ENDBRANCH   1  20
TORSDOF 10
ENDMDL
MODEL 9
REMARK VINA RESULT:      -5.9     13.906     15.716
REMARK  10 active torsions:
REMARK  status: ('A' for Active; 'I' for Inactive)
REMARK    1  A    between atoms: C_18  and  O_1 
REMARK    2  A    between atoms: O_5  and  N_8 
REMARK    3  A    between atoms: C_10  and  N_6 
REMARK       I    between atoms: N_6  and  C_14 
REMARK       I    between atoms: N_7  and  C_19 
REMARK       I    between atoms: N_8  and  C_22 
REMARK    4  A    between atoms: C_9  and  C_10 
REMARK    5  A    between atoms: C_10  and  C_19 
REMARK    6  A    between atoms: C_11  and  C_12 
REMARK    7  A    between atoms: C_11  and  C_14 
REMARK    8  A    between atoms: C_11  and  C_18 
REMARK    9  A    between atoms: C_12  and  C_13 
REMARK   10  A    between atoms: C_18  and  C_22 
ROOT
HETATM    1  C   UNK N   1      35.658  13.870  11.535  0.00  0.00     0.116 C 
ENDROOT
BRANCH   1   2
HETATM    2  C   UNK N   1      34.907  12.816  10.722  0.00  0.00     0.021 C 
BRANCH   2   3
HETATM    3  C   UNK N   1      35.564  12.593   9.368  0.00  0.00    -0.022 C 
HETATM    4  C   UNK N   1      34.817  13.383   8.315  0.00  0.00     0.009 C 
HETATM    5  C   UNK N   1      37.008  13.063   9.402  0.00  0.00     0.009 C 
ENDBRANCH   2   3
ENDBRANCH   1   2
BRANCH   1   6
HETATM    6  C   UNK N   1      36.039  13.318  12.882  0.00  0.00     0.225 C 
HETATM    7  O   UNK N   1      36.570  14.061  13.692  0.00  0.00    -0.273 OA
HETATM    8  N   UNK N   1      35.774  12.017  13.191  0.00  0.00    -0.347 N 
HETATM    9  H   UNK N   1      35.334  11.473  12.499  0.00  0.00     0.163 HD
BRANCH   8  10
HETATM   10  C   UNK N   1      36.085  11.358  14.459  0.00  0.00     0.183 C 
BRANCH  10  11
HETATM   11  C   UNK N   1      34.849  11.187  15.389  0.00  0.00    -0.022 C 
HETATM   12  C   UNK N   1      33.595  10.775  14.642  0.00  0.00     0.017 C 
HETATM   13  C   UNK N   1      35.106  10.147  16.466  0.00  0.00     0.017 C 
HETATM   14  C   UNK N   1      34.576  12.500  16.099  0.00  0.00     0.017 C 
ENDBRANCH  10  11
BRANCH  10  15
HETATM   15  C   UNK N   1      36.997  10.152  14.302  0.00  0.00     0.240 C 
HETATM   16  O   UNK N   1      36.633   9.177  13.659  0.00  0.00    -0.271 OA
HETATM   17  N   UNK N   1      38.245  10.186  14.826  0.00  0.00    -0.364 N 
HETATM   18  C   UNK N   1      39.172   9.093  14.666  0.00  0.00     0.149 C 
HETATM   19  H   UNK N   1      38.529  10.981  15.332  0.00  0.00     0.161 HD
ENDBRANCH  10  15
ENDBRANCH   8  10
ENDBRANCH   1   6
BRANCH   1  20
HETATM   20  C   UNK N   1      34.845  15.173  11.621  0.00  0.00     0.225 C 
BRANCH  20  21
HETATM   21  O   UNK N   1      33.529  14.919  11.221  0.00  0.00    -0.385 OA
HETATM   22  H   UNK N   1      33.326  14.264  10.534  0.00  0.00     0.210 HD
ENDBRANCH  20  21
BRANCH  20  23
HETATM   23  C   UNK N   1      35.437  16.262  10.759  0.00  0.00     0.270 C 
HETATM   24  O   UNK N   1      36.651  16.391  10.693  0.00  0.00    -0.268 OA
HETATM   25  N   UNK N   1      34.634  17.102  10.067  0.00  0.00    -0.235 N 
HETATM   26  H   UNK N   1      33.657  17.004  10.132  0.00  0.00     0.197 HD
BRANCH  25  27
HETATM   27  O   UNK N   1      35.151  18.066   9.294  0.00  0.00    -0.287 OA
HETATM   28  H   UNK N   1      34.862  18.311   8.401  0.00  0.00     0.244 HD
ENDBRANCH  25  27
ENDBRANCH  20  23
ENDBRANCH   1  20
TORSDOF 10
ENDMDL
