MODEL 1
REMARK VINA RESULT:      -5.5      0.000      0.000
REMARK  5 active torsions:
REMARK  status: ('A' for Active; 'I' for Inactive)
REMARK    1  A    between atoms: O_1  and  C_12 
REMARK    2  A    between atoms: O_1  and  C_17 
REMARK    3  A    between atoms: O_3  and  C_18 
REMARK    4  A    between atoms: N_4  and  C_12 
REMARK       I    between atoms: N_10  and  C_16 
REMARK    5  A    between atoms: C_17  and  C_18 
ROOT
HETATM    1  O   UNK N   1      34.969  14.118  12.920  0.00  0.00    -0.265 OA
HETATM    2  N   UNK N   1      33.971  15.178   8.706  0.00  0.00    -0.305 N 
HETATM    3  N   UNK N   1      36.297  14.811   9.220  0.00  0.00    -0.174 N 
HETATM    4  N   UNK N   1      33.163  14.799  10.768  0.00  0.00    -0.345 N 
ATOM      5  HN  UNK N   1      32.525  14.689  11.556  1.00  0.00     0.167 HD
HETATM    6  N   UNK N   1      36.716  14.252  11.495  0.00  0.00    -0.154 N 
ATOM      7  HN  UNK N   1      37.380  14.014  12.232  1.00  0.00     0.187 HD
HETATM    8  N   UNK N   1      38.551  14.405   9.942  0.00  0.00    -0.234 N 
HETATM    9  C   UNK N   1      34.981  14.884   9.525  0.00  0.00     0.158 A 
HETATM   10  C   UNK N   1      34.502  14.656  10.762  0.00  0.00     0.147 A 
HETATM   11  C   UNK N   1      32.855  15.123   9.479  0.00  0.00     0.187 A 
HETATM   12  C   UNK N   1      35.372  14.330  11.790  0.00  0.00     0.290 A 
HETATM   13  C   UNK N   1      37.174  14.491  10.221  0.00  0.00     0.680 A 
HETATM   14  H   UNK N   1      36.616  14.984   8.305  0.00  0.00     0.186 HD
HETATM   15  H   UNK N   1      38.881  14.576   9.030  0.00  0.00     0.174 HD
HETATM   16  H   UNK N   1      39.185  14.175  10.659  0.00  0.00     0.174 HD
ENDROOT
BRANCH   2  17
HETATM   17  C   UNK N   1      34.084  15.486   7.288  0.00  0.00     0.301 C 
BRANCH  17  18
HETATM   18  O   UNK N   1      34.827  16.649   7.087  0.00  0.00    -0.369 OA
BRANCH  18  19
HETATM   19  C   UNK N   1      33.859  17.631   6.886  0.00  0.00     0.196 C 
BRANCH  19  20
HETATM   20  C   UNK N   1      33.809  18.546   8.089  0.00  0.00     0.190 C 
BRANCH  20  21
HETATM   21  O   UNK N   1      35.074  19.089   8.305  0.00  0.00    -0.399 OA
HETATM   22  H   UNK N   1      35.257  20.007   8.050  0.00  0.00     0.209 HD
ENDBRANCH  20  21
ENDBRANCH  19  20
ENDBRANCH  18  19
ENDBRANCH  17  18
ENDBRANCH   2  17
TORSDOF 5
ENDMDL
MODEL 2
REMARK VINA RESULT:      -5.3      3.145      5.975
REMARK  5 active torsions:
REMARK  status: ('A' for Active; 'I' for Inactive)
REMARK    1  A    between atoms: O_1  and  C_12 
REMARK    2  A    between atoms: O_1  and  C_17 
REMARK    3  A    between atoms: O_3  and  C_18 
REMARK    4  A    between atoms: N_4  and  C_12 
REMARK       I    between atoms: N_10  and  C_16 
REMARK    5  A    between atoms: C_17  and  C_18 
ROOT
HETATM    1  O   UNK N   1      29.682  16.827   5.638  0.00  0.00    -0.265 OA
HETATM    2  N   UNK N   1      33.612  17.547   7.616  0.00  0.00    -0.305 N 
HETATM    3  N   UNK N   1      31.660  17.545   9.030  0.00  0.00    -0.174 N 
HETATM    4  N   UNK N   1      32.555  17.144   5.675  0.00  0.00    -0.345 N 
ATOM      5  HN  UNK N   1      32.370  16.978   4.685  1.00  0.00     0.167 HD
HETATM    6  N   UNK N   1      29.618  17.152   7.872  0.00  0.00    -0.154 N 
ATOM      7  HN  UNK N   1      28.604  17.045   7.894  1.00  0.00     0.187 HD
HETATM    8  N   UNK N   1      29.596  17.503  10.255  0.00  0.00    -0.234 N 
HETATM    9  C   UNK N   1      32.303  17.439   7.845  0.00  0.00     0.158 A 
HETATM   10  C   UNK N   1      31.665  17.198   6.684  0.00  0.00     0.147 A 
HETATM   11  C   UNK N   1      33.759  17.364   6.277  0.00  0.00     0.187 A 
HETATM   12  C   UNK N   1      30.288  17.047   6.673  0.00  0.00     0.290 A 
HETATM   13  C   UNK N   1      30.300  17.399   9.041  0.00  0.00     0.680 A 
HETATM   14  H   UNK N   1      32.156  17.722   9.862  0.00  0.00     0.186 HD
HETATM   15  H   UNK N   1      30.082  17.680  11.094  0.00  0.00     0.174 HD
HETATM   16  H   UNK N   1      28.616  17.399  10.268  0.00  0.00     0.174 HD
ENDROOT
BRANCH   2  17
HETATM   17  C   UNK N   1      34.635  17.807   8.618  0.00  0.00     0.301 C 
BRANCH  17  18
HETATM   18  O   UNK N   1      34.322  17.182   9.825  0.00  0.00    -0.369 OA
BRANCH  18  19
HETATM   19  C   UNK N   1      35.035  15.986   9.774  0.00  0.00     0.196 C 
BRANCH  19  20
HETATM   20  C   UNK N   1      34.406  14.982  10.713  0.00  0.00     0.190 C 
BRANCH  20  21
HETATM   21  O   UNK N   1      33.041  15.243  10.816  0.00  0.00    -0.399 OA
HETATM   22  H   UNK N   1      32.397  14.572  10.539  0.00  0.00     0.209 HD
ENDBRANCH  20  21
ENDBRANCH  19  20
ENDBRANCH  18  19
ENDBRANCH  17  18
ENDBRANCH   2  17
TORSDOF 5
ENDMDL
MODEL 3
REMARK VINA RESULT:      -5.3      3.541      4.912
REMARK  5 active torsions:
REMARK  status: ('A' for Active; 'I' for Inactive)
REMARK    1  A    between atoms: O_1  and  C_12 
REMARK    2  A    between atoms: O_1  and  C_17 
REMARK    3  A    between atoms: O_3  and  C_18 
REMARK    4  A    between atoms: N_4  and  C_12 
REMARK       I    between atoms: N_10  and  C_16 
REMARK    5  A    between atoms: C_17  and  C_18 
ROOT
HETATM    1  O   UNK N   1      35.512  15.461   6.278  0.00  0.00    -0.265 OA
HETATM    2  N   UNK N   1      31.463  17.055   7.243  0.00  0.00    -0.305 N 
HETATM    3  N   UNK N   1      33.057  16.951   9.049  0.00  0.00    -0.174 N 
HETATM    4  N   UNK N   1      32.798  16.221   5.640  0.00  0.00    -0.345 N 
ATOM      5  HN  UNK N   1      33.144  15.889   4.740  1.00  0.00     0.167 HD
HETATM    6  N   UNK N   1      35.183  16.085   8.423  0.00  0.00    -0.154 N 
ATOM      7  HN  UNK N   1      36.136  15.827   8.681  1.00  0.00     0.187 HD
HETATM    8  N   UNK N   1      34.789  16.764  10.701  0.00  0.00    -0.234 N 
HETATM    9  C   UNK N   1      32.657  16.778   7.768  0.00  0.00     0.158 A 
HETATM   10  C   UNK N   1      33.461  16.279   6.811  0.00  0.00     0.147 A 
HETATM   11  C   UNK N   1      31.558  16.709   5.933  0.00  0.00     0.187 A 
HETATM   12  C   UNK N   1      34.761  15.916   7.122  0.00  0.00     0.290 A 
HETATM   13  C   UNK N   1      34.337  16.599   9.378  0.00  0.00     0.680 A 
HETATM   14  H   UNK N   1      32.444  17.319   9.726  0.00  0.00     0.186 HD
HETATM   15  H   UNK N   1      34.185  17.131  11.386  0.00  0.00     0.174 HD
HETATM   16  H   UNK N   1      35.710  16.512  10.941  0.00  0.00     0.174 HD
ENDROOT
BRANCH   2  17
HETATM   17  C   UNK N   1      30.323  17.610   7.960  0.00  0.00     0.301 C 
BRANCH  17  18
HETATM   18  O   UNK N   1      30.743  18.438   9.000  0.00  0.00    -0.369 OA
BRANCH  18  19
HETATM   19  C   UNK N   1      29.565  18.737   9.682  0.00  0.00     0.196 C 
BRANCH  19  20
HETATM   20  C   UNK N   1      28.386  18.584   8.748  0.00  0.00     0.190 C 
BRANCH  20  21
HETATM   21  O   UNK N   1      27.295  18.094   9.462  0.00  0.00    -0.399 OA
HETATM   22  H   UNK N   1      26.755  18.697   9.998  0.00  0.00     0.209 HD
ENDBRANCH  20  21
ENDBRANCH  19  20
ENDBRANCH  18  19
ENDBRANCH  17  18
ENDBRANCH   2  17
TORSDOF 5
ENDMDL
MODEL 4
REMARK VINA RESULT:      -5.2      3.271      3.954
REMARK  5 active torsions:
REMARK  status: ('A' for Active; 'I' for Inactive)
REMARK    1  A    between atoms: O_1  and  C_12 
REMARK    2  A    between atoms: O_1  and  C_17 
REMARK    3  A    between atoms: O_3  and  C_18 
REMARK    4  A    between atoms: N_4  and  C_12 
REMARK       I    between atoms: N_10  and  C_16 
REMARK    5  A    between atoms: C_17  and  C_18 
ROOT
HETATM    1  O   UNK N   1      36.471  16.450  10.547  0.00  0.00    -0.265 OA
HETATM    2  N   UNK N   1      32.834  17.262   8.101  0.00  0.00    -0.305 N 
HETATM    3  N   UNK N   1      33.082  15.033   8.985  0.00  0.00    -0.174 N 
HETATM    4  N   UNK N   1      34.728  18.117   8.954  0.00  0.00    -0.345 N 
ATOM      5  HN  UNK N   1      35.482  18.762   9.193  1.00  0.00     0.167 HD
HETATM    6  N   UNK N   1      35.057  14.711  10.274  0.00  0.00    -0.154 N 
ATOM      7  HN  UNK N   1      35.650  14.096  10.832  1.00  0.00     0.187 HD
HETATM    8  N   UNK N   1      33.521  12.882   9.958  0.00  0.00    -0.234 N 
HETATM    9  C   UNK N   1      33.468  16.315   8.794  0.00  0.00     0.158 A 
HETATM   10  C   UNK N   1      34.605  16.823   9.307  0.00  0.00     0.147 A 
HETATM   11  C   UNK N   1      33.616  18.368   8.205  0.00  0.00     0.187 A 
HETATM   12  C   UNK N   1      35.436  16.020  10.070  0.00  0.00     0.290 A 
HETATM   13  C   UNK N   1      33.889  14.223   9.736  0.00  0.00     0.680 A 
HETATM   14  H   UNK N   1      32.245  14.692   8.596  0.00  0.00     0.186 HD
HETATM   15  H   UNK N   1      32.685  12.530   9.573  0.00  0.00     0.174 HD
HETATM   16  H   UNK N   1      34.099  12.295  10.497  0.00  0.00     0.174 HD
ENDROOT
BRANCH   2  17
HETATM   17  C   UNK N   1      31.569  17.102   7.397  0.00  0.00     0.301 C 
BRANCH  17  18
HETATM   18  O   UNK N   1      30.541  16.783   8.283  0.00  0.00    -0.369 OA
BRANCH  18  19
HETATM   19  C   UNK N   1      29.626  17.820   8.117  0.00  0.00     0.196 C 
BRANCH  19  20
HETATM   20  C   UNK N   1      29.036  18.194   9.457  0.00  0.00     0.190 C 
BRANCH  20  21
HETATM   21  O   UNK N   1      27.646  18.152   9.375  0.00  0.00    -0.399 OA
HETATM   22  H   UNK N   1      27.118  17.982  10.172  0.00  0.00     0.209 HD
ENDBRANCH  20  21
ENDBRANCH  19  20
ENDBRANCH  18  19
ENDBRANCH  17  18
ENDBRANCH   2  17
TORSDOF 5
ENDMDL
MODEL 5
REMARK VINA RESULT:      -5.2     15.258     16.702
REMARK  5 active torsions:
REMARK  status: ('A' for Active; 'I' for Inactive)
REMARK    1  A    between atoms: O_1  and  C_12 
REMARK    2  A    between atoms: O_1  and  C_17 
REMARK    3  A    between atoms: O_3  and  C_18 
REMARK    4  A    between atoms: N_4  and  C_12 
REMARK       I    between atoms: N_10  and  C_16 
REMARK    5  A    between atoms: C_17  and  C_18 
ROOT
HETATM    1  O   UNK N   1      20.261  17.331  -0.222  0.00  0.00    -0.265 OA
HETATM    2  N   UNK N   1      19.820  16.317   4.097  0.00  0.00    -0.305 N 
HETATM    3  N   UNK N   1      20.231  18.629   3.553  0.00  0.00    -0.174 N 
HETATM    4  N   UNK N   1      19.825  15.527   1.994  0.00  0.00    -0.345 N 
ATOM      5  HN  UNK N   1      19.774  14.898   1.192  1.00  0.00     0.167 HD
HETATM    6  N   UNK N   1      20.450  19.057   1.222  0.00  0.00    -0.154 N 
ATOM      7  HN  UNK N   1      20.607  19.721   0.463  1.00  0.00     0.187 HD
HETATM    8  N   UNK N   1      20.645  20.870   2.797  0.00  0.00    -0.234 N 
HETATM    9  C   UNK N   1      20.038  17.325   3.251  0.00  0.00     0.158 A 
HETATM   10  C   UNK N   1      20.042  16.856   1.989  0.00  0.00     0.147 A 
HETATM   11  C   UNK N   1      19.690  15.213   3.315  0.00  0.00     0.187 A 
HETATM   12  C   UNK N   1      20.251  17.725   0.931  0.00  0.00     0.290 A 
HETATM   13  C   UNK N   1      20.440  19.505   2.523  0.00  0.00     0.680 A 
HETATM   14  H   UNK N   1      20.223  18.940   4.487  0.00  0.00     0.186 HD
HETATM   15  H   UNK N   1      20.638  21.192   3.728  0.00  0.00     0.174 HD
HETATM   16  H   UNK N   1      20.795  21.504   2.058  0.00  0.00     0.174 HD
ENDROOT
BRANCH   2  17
HETATM   17  C   UNK N   1      19.744  16.421   5.547  0.00  0.00     0.301 C 
BRANCH  17  18
HETATM   18  O   UNK N   1      20.845  17.108   6.057  0.00  0.00    -0.369 OA
BRANCH  18  19
HETATM   19  C   UNK N   1      20.915  16.686   7.383  0.00  0.00     0.196 C 
BRANCH  19  20
HETATM   20  C   UNK N   1      20.021  17.554   8.238  0.00  0.00     0.190 C 
BRANCH  20  21
HETATM   21  O   UNK N   1      20.425  18.882   8.124  0.00  0.00    -0.399 OA
HETATM   22  H   UNK N   1      19.765  19.593   8.132  0.00  0.00     0.209 HD
ENDBRANCH  20  21
ENDBRANCH  19  20
ENDBRANCH  18  19
ENDBRANCH  17  18
ENDBRANCH   2  17
TORSDOF 5
ENDMDL
MODEL 6
REMARK VINA RESULT:      -5.2     12.186     14.153
REMARK  5 active torsions:
REMARK  status: ('A' for Active; 'I' for Inactive)
REMARK    1  A    between atoms: O_1  and  C_12 
REMARK    2  A    between atoms: O_1  and  C_17 
REMARK    3  A    between atoms: O_3  and  C_18 
REMARK    4  A    between atoms: N_4  and  C_12 
REMARK       I    between atoms: N_10  and  C_16 
REMARK    5  A    between atoms: C_17  and  C_18 
ROOT
HETATM    1  O   UNK N   1      24.647  20.944   2.232  0.00  0.00    -0.265 OA
HETATM    2  N   UNK N   1      21.669  18.573   4.551  0.00  0.00    -0.305 N 
HETATM    3  N   UNK N   1      23.986  18.327   5.172  0.00  0.00    -0.174 N 
HETATM    4  N   UNK N   1      21.979  20.048   2.885  0.00  0.00    -0.345 N 
ATOM      5  HN  UNK N   1      21.805  20.692   2.113  1.00  0.00     0.167 HD
HETATM    6  N   UNK N   1      25.487  19.637   3.870  0.00  0.00    -0.154 N 
ATOM      7  HN  UNK N   1      26.442  19.933   3.666  1.00  0.00     0.187 HD
HETATM    8  N   UNK N   1      26.341  18.228   5.628  0.00  0.00    -0.234 N 
HETATM    9  C   UNK N   1      22.971  18.835   4.435  0.00  0.00     0.158 A 
HETATM   10  C   UNK N   1      23.161  19.719   3.437  0.00  0.00     0.147 A 
HETATM   11  C   UNK N   1      21.065  19.323   3.593  0.00  0.00     0.187 A 
HETATM   12  C   UNK N   1      24.443  20.146   3.129  0.00  0.00     0.290 A 
HETATM   13  C   UNK N   1      25.259  18.735   4.883  0.00  0.00     0.680 A 
HETATM   14  H   UNK N   1      23.813  17.682   5.895  0.00  0.00     0.186 HD
HETATM   15  H   UNK N   1      26.180  17.582   6.354  0.00  0.00     0.174 HD
HETATM   16  H   UNK N   1      27.259  18.519   5.424  0.00  0.00     0.174 HD
ENDROOT
BRANCH   2  17
HETATM   17  C   UNK N   1      21.064  17.665   5.515  0.00  0.00     0.301 C 
BRANCH  17  18
HETATM   18  O   UNK N   1      21.268  18.114   6.820  0.00  0.00    -0.369 OA
BRANCH  18  19
HETATM   19  C   UNK N   1      20.615  17.165   7.603  0.00  0.00     0.196 C 
BRANCH  19  20
HETATM   20  C   UNK N   1      19.654  17.858   8.542  0.00  0.00     0.190 C 
BRANCH  20  21
HETATM   21  O   UNK N   1      20.092  19.161   8.768  0.00  0.00    -0.399 OA
HETATM   22  H   UNK N   1      20.494  19.396   9.619  0.00  0.00     0.209 HD
ENDBRANCH  20  21
ENDBRANCH  19  20
ENDBRANCH  18  19
ENDBRANCH  17  18
ENDBRANCH   2  17
TORSDOF 5
ENDMDL
MODEL 7
REMARK VINA RESULT:      -5.2      2.333      3.375
REMARK  5 active torsions:
REMARK  status: ('A' for Active; 'I' for Inactive)
REMARK    1  A    between atoms: O_1  and  C_12 
REMARK    2  A    between atoms: O_1  and  C_17 
REMARK    3  A    between atoms: O_3  and  C_18 
REMARK    4  A    between atoms: N_4  and  C_12 
REMARK       I    between atoms: N_10  and  C_16 
REMARK    5  A    between atoms: C_17  and  C_18 
ROOT
HETATM    1  O   UNK N   1      37.483  11.184  12.542  0.00  0.00    -0.265 OA
HETATM    2  N   UNK N   1      35.803  15.026  11.026  0.00  0.00    -0.305 N 
HETATM    3  N   UNK N   1      36.334  14.915  13.375  0.00  0.00    -0.174 N 
HETATM    4  N   UNK N   1      36.434  12.936  10.496  0.00  0.00    -0.345 N 
ATOM      5  HN  UNK N   1      36.626  12.083   9.970  1.00  0.00     0.167 HD
HETATM    6  N   UNK N   1      37.223  12.821  14.075  0.00  0.00    -0.154 N 
ATOM      7  HN  UNK N   1      37.589  12.229  14.822  1.00  0.00     0.187 HD
HETATM    8  N   UNK N   1      36.929  14.595  15.679  0.00  0.00    -0.234 N 
HETATM    9  C   UNK N   1      36.250  14.411  12.123  0.00  0.00     0.158 A 
HETATM   10  C   UNK N   1      36.629  13.158  11.809  0.00  0.00     0.147 A 
HETATM   11  C   UNK N   1      35.920  14.110  10.029  0.00  0.00     0.187 A 
HETATM   12  C   UNK N   1      37.131  12.323  12.794  0.00  0.00     0.290 A 
HETATM   13  C   UNK N   1      36.827  14.107  14.363  0.00  0.00     0.680 A 
HETATM   14  H   UNK N   1      36.048  15.836  13.572  0.00  0.00     0.186 HD
HETATM   15  H   UNK N   1      36.646  15.515  15.887  0.00  0.00     0.174 HD
HETATM   16  H   UNK N   1      37.284  14.016  16.393  0.00  0.00     0.174 HD
ENDROOT
BRANCH   2  17
HETATM   17  C   UNK N   1      35.304  16.392  10.957  0.00  0.00     0.301 C 
BRANCH  17  18
HETATM   18  O   UNK N   1      35.579  16.961   9.714  0.00  0.00    -0.369 OA
BRANCH  18  19
HETATM   19  C   UNK N   1      34.317  17.205   9.175  0.00  0.00     0.196 C 
BRANCH  19  20
HETATM   20  C   UNK N   1      34.394  18.371   8.215  0.00  0.00     0.190 C 
BRANCH  20  21
HETATM   21  O   UNK N   1      35.404  19.238   8.626  0.00  0.00    -0.399 OA
HETATM   22  H   UNK N   1      35.317  19.723   9.461  0.00  0.00     0.209 HD
ENDBRANCH  20  21
ENDBRANCH  19  20
ENDBRANCH  18  19
ENDBRANCH  17  18
ENDBRANCH   2  17
TORSDOF 5
ENDMDL
MODEL 8
REMARK VINA RESULT:      -5.1     13.707     15.904
REMARK  5 active torsions:
REMARK  status: ('A' for Active; 'I' for Inactive)
REMARK    1  A    between atoms: O_1  and  C_12 
REMARK    2  A    between atoms: O_1  and  C_17 
REMARK    3  A    between atoms: O_3  and  C_18 
REMARK    4  A    between atoms: N_4  and  C_12 
REMARK       I    between atoms: N_10  and  C_16 
REMARK    5  A    between atoms: C_17  and  C_18 
ROOT
HETATM    1  O   UNK N   1      22.319  21.375   2.781  0.00  0.00    -0.265 OA
HETATM    2  N   UNK N   1      22.549  17.162   4.221  0.00  0.00    -0.305 N 
HETATM    3  N   UNK N   1      20.456  17.878   3.262  0.00  0.00    -0.174 N 
HETATM    4  N   UNK N   1      23.650  19.105   3.977  0.00  0.00    -0.345 N 
ATOM      5  HN  UNK N   1      24.379  19.818   4.001  1.00  0.00     0.167 HD
HETATM    6  N   UNK N   1      20.444  20.141   2.528  0.00  0.00    -0.154 N 
ATOM      7  HN  UNK N   1      19.945  20.923   2.102  1.00  0.00     0.187 HD
HETATM    8  N   UNK N   1      18.466  18.790   2.276  0.00  0.00    -0.234 N 
HETATM    9  C   UNK N   1      21.739  18.056   3.651  0.00  0.00     0.158 A 
HETATM   10  C   UNK N   1      22.395  19.222   3.503  0.00  0.00     0.147 A 
HETATM   11  C   UNK N   1      23.723  17.817   4.418  0.00  0.00     0.187 A 
HETATM   12  C   UNK N   1      21.752  20.307   2.929  0.00  0.00     0.290 A 
HETATM   13  C   UNK N   1      19.803  18.936   2.693  0.00  0.00     0.680 A 
HETATM   14  H   UNK N   1      20.005  17.011   3.385  0.00  0.00     0.186 HD
HETATM   15  H   UNK N   1      18.005  17.927   2.393  0.00  0.00     0.174 HD
HETATM   16  H   UNK N   1      17.992  19.549   1.865  0.00  0.00     0.174 HD
ENDROOT
BRANCH   2  17
HETATM   17  C   UNK N   1      22.206  15.785   4.546  0.00  0.00     0.301 C 
BRANCH  17  18
HETATM   18  O   UNK N   1      21.636  15.699   5.816  0.00  0.00    -0.369 OA
BRANCH  18  19
HETATM   19  C   UNK N   1      20.439  15.020   5.596  0.00  0.00     0.196 C 
BRANCH  19  20
HETATM   20  C   UNK N   1      19.275  15.925   5.932  0.00  0.00     0.190 C 
BRANCH  20  21
HETATM   21  O   UNK N   1      18.554  16.195   4.772  0.00  0.00    -0.399 OA
HETATM   22  H   UNK N   1      17.955  16.958   4.739  0.00  0.00     0.209 HD
ENDBRANCH  20  21
ENDBRANCH  19  20
ENDBRANCH  18  19
ENDBRANCH  17  18
ENDBRANCH   2  17
TORSDOF 5
ENDMDL
MODEL 9
REMARK VINA RESULT:      -5.1      2.650      6.279
REMARK  5 active torsions:
REMARK  status: ('A' for Active; 'I' for Inactive)
REMARK    1  A    between atoms: O_1  and  C_12 
REMARK    2  A    between atoms: O_1  and  C_17 
REMARK    3  A    between atoms: O_3  and  C_18 
REMARK    4  A    between atoms: N_4  and  C_12 
REMARK       I    between atoms: N_10  and  C_16 
REMARK    5  A    between atoms: C_17  and  C_18 
ROOT
HETATM    1  O   UNK N   1      35.745  17.497  10.562  0.00  0.00    -0.265 OA
HETATM    2  N   UNK N   1      35.291  13.568  12.619  0.00  0.00    -0.305 N 
HETATM    3  N   UNK N   1      33.786  14.027  10.792  0.00  0.00    -0.174 N 
HETATM    4  N   UNK N   1      36.430  15.502  12.538  0.00  0.00    -0.345 N 
ATOM      5  HN  UNK N   1      37.099  16.245  12.743  1.00  0.00     0.167 HD
HETATM    6  N   UNK N   1      34.117  16.149   9.767  0.00  0.00    -0.154 N 
ATOM      7  HN  UNK N   1      33.849  16.832   9.057  1.00  0.00     0.187 HD
HETATM    8  N   UNK N   1      32.390  14.681   8.951  0.00  0.00    -0.234 N 
HETATM    9  C   UNK N   1      34.801  14.324  11.635  0.00  0.00     0.158 A 
HETATM   10  C   UNK N   1      35.481  15.485  11.584  0.00  0.00     0.147 A 
HETATM   11  C   UNK N   1      36.294  14.301  13.170  0.00  0.00     0.187 A 
HETATM   12  C   UNK N   1      35.148  16.437  10.634  0.00  0.00     0.290 A 
HETATM   13  C   UNK N   1      33.442  14.954   9.847  0.00  0.00     0.680 A 
HETATM   14  H   UNK N   1      33.309  13.168  10.856  0.00  0.00     0.186 HD
HETATM   15  H   UNK N   1      31.906  13.825   9.006  0.00  0.00     0.174 HD
HETATM   16  H   UNK N   1      32.139  15.345   8.269  0.00  0.00     0.174 HD
ENDROOT
BRANCH   2  17
HETATM   17  C   UNK N   1      34.820  12.241  12.990  0.00  0.00     0.301 C 
BRANCH  17  18
HETATM   18  O   UNK N   1      34.165  12.270  14.220  0.00  0.00    -0.369 OA
BRANCH  18  19
HETATM   19  C   UNK N   1      33.787  10.944  14.427  0.00  0.00     0.196 C 
BRANCH  19  20
HETATM   20  C   UNK N   1      34.525  10.389  15.623  0.00  0.00     0.190 C 
BRANCH  20  21
HETATM   21  O   UNK N   1      34.929  11.441  16.443  0.00  0.00    -0.399 OA
HETATM   22  H   UNK N   1      34.268  11.953  16.936  0.00  0.00     0.209 HD
ENDBRANCH  20  21
ENDBRANCH  19  20
ENDBRANCH  18  19
ENDBRANCH  17  18
ENDBRANCH   2  17
TORSDOF 5
ENDMDL
