REMARK WARNING: 32 MAX_TORS EXCEEDED!!!
REMARK  41 active torsions:
REMARK  status: ('A' for Active; 'I' for Inactive)
REMARK    1  A    between atoms: Gd_1  and  Gd_1 
REMARK    2  A    between atoms: C_27  and  O_2 
REMARK    3  A    between atoms: C_28  and  O_3 
REMARK    4  A    between atoms: C_29  and  O_4 
REMARK    5  A    between atoms: C_30  and  O_5 
REMARK    6  A    between atoms: C_31  and  O_6 
REMARK    7  A    between atoms: C_32  and  O_7 
REMARK    8  A    between atoms: C_33  and  O_8 
REMARK    9  A    between atoms: C_34  and  O_9 
REMARK   10  A    between atoms: O_10  and  C_41 
REMARK   11  A    between atoms: O_11  and  C_42 
REMARK   12  A    between atoms: O_14  and  C_51 
REMARK   13  A    between atoms: O_15  and  C_52 
REMARK   14  A    between atoms: N_22  and  C_35 
REMARK   15  A    between atoms: N_22  and  C_36 
REMARK   16  A    between atoms: N_22  and  C_43 
REMARK   17  A    between atoms: N_23  and  C_39 
REMARK   18  A    between atoms: N_23  and  C_44 
REMARK   19  A    between atoms: N_23  and  C_46 
REMARK   20  A    between atoms: N_24  and  C_40 
REMARK   21  A    between atoms: N_24  and  C_45 
REMARK   22  A    between atoms: N_24  and  C_47 
REMARK   23  A    between atoms: N_25  and  C_37 
REMARK   24  A    between atoms: N_26  and  C_38 
REMARK   25  A    between atoms: C_27  and  C_29 
REMARK   26  A    between atoms: C_27  and  C_31 
REMARK   27  A    between atoms: C_28  and  C_30 
REMARK   28  A    between atoms: C_28  and  C_32 
REMARK   29  A    between atoms: C_29  and  C_33 
REMARK   30  A    between atoms: C_30  and  C_34 
REMARK   31  A    between atoms: C_31  and  C_37 
REMARK   32  A    between atoms: C_32  and  C_38 
REMARK   33  A    between atoms: C_33  and  C_41 
REMARK   34  A    between atoms: C_34  and  C_42 
REMARK   35  A    between atoms: C_35  and  C_39 
REMARK   36  A    between atoms: C_36  and  C_40 
REMARK   37  A    between atoms: C_43  and  C_48 
REMARK   38  A    between atoms: C_44  and  C_51 
REMARK   39  A    between atoms: C_45  and  C_52 
REMARK   40  A    between atoms: C_46  and  C_53 
REMARK   41  A    between atoms: C_47  and  C_54 
ROOT
HETATM    1 Gd   UNK N   1       8.550   4.822   1.445  0.00  0.00     0.000 Gd
ENDROOT
TORSDOF 41
