REMARK  10 active torsions:
REMARK  status: ('A' for Active; 'I' for Inactive)
REMARK    1  A    between atoms: O_2  and  C_17 
REMARK    2  A    between atoms: O_4  and  C_22 
REMARK    3  A    between atoms: O_4  and  C_25 
REMARK       I    between atoms: N_6  and  C_16 
REMARK    4  A    between atoms: C_18  and  N_7 
REMARK    5  A    between atoms: C_20  and  N_7 
REMARK    6  A    between atoms: C_11  and  C_17 
REMARK    7  A    between atoms: C_16  and  C_18 
REMARK    8  A    between atoms: C_20  and  C_21 
REMARK    9  A    between atoms: C_20  and  C_22 
REMARK   10  A    between atoms: C_21  and  C_23 
ROOT
HETATM    1  O   UNK N   1       5.670  -1.173   1.214  0.00  0.00    -0.271 OA
HETATM    2  N   UNK N   1       4.369  -2.626   0.092  0.00  0.00    -0.331 N 
HETATM    3  C   UNK N   1       3.111  -4.534   0.019  0.00  0.00     0.011 C 
HETATM    4  C   UNK N   1       3.130  -3.108  -0.489  0.00  0.00     0.092 C 
HETATM    5  C   UNK N   1       4.555  -4.966  -0.214  0.00  0.00     0.043 C 
HETATM    6  C   UNK N   1       5.336  -3.710   0.212  0.00  0.00     0.186 C 
HETATM    7  C   UNK N   1       2.036  -5.348  -0.694  0.00  0.00     0.007 C 
HETATM    8  C   UNK N   1       1.809  -2.378  -0.187  0.00  0.00     0.026 C 
HETATM    9  C   UNK N   1       0.674  -4.620  -0.706  0.00  0.00     0.001 C 
HETATM   10  C   UNK N   1       0.639  -3.326   0.124  0.00  0.00     0.002 C 
HETATM   11  C   UNK N   1       4.584  -1.412   0.712  0.00  0.00     0.243 C 
ENDROOT
BRANCH  11  12
HETATM   12  C   UNK N   1       3.469  -0.400   0.891  0.00  0.00     0.166 C 
HETATM   13  C   UNK N   1       2.715  -0.748   2.163  0.00  0.00     0.042 C 
BRANCH  12  14
HETATM   14  N   UNK N   1       3.938   0.979   1.012  0.00  0.00    -0.397 N 
HETATM   15  H   UNK N   1       4.097   1.466   1.894  0.00  0.00     0.154 HD
BRANCH  14  16
HETATM   16  C   UNK N   1       4.147   1.559  -0.312  0.00  0.00     0.177 C 
BRANCH  16  17
HETATM   17  C   UNK N   1       2.888   1.605  -1.205  0.00  0.00     0.035 C 
BRANCH  17  18
HETATM   18  C   UNK N   1       1.608   2.017  -0.481  0.00  0.00    -0.002 C 
HETATM   19  C   UNK N   1       0.727   0.815  -0.207  0.00  0.00     0.005 C 
ENDBRANCH  17  18
ENDBRANCH  16  17
BRANCH  16  20
HETATM   20  C   UNK N   1       4.965   2.832  -0.230  0.00  0.00     0.281 C 
HETATM   21  O   UNK N   1       6.152   2.759  -0.500  0.00  0.00    -0.263 OA
BRANCH  20  22
HETATM   22  O   UNK N   1       4.468   4.034   0.172  0.00  0.00    -0.320 OA
BRANCH  22  23
HETATM   23  C   UNK N   1       3.132   4.329   0.297  0.00  0.00     0.174 C 
HETATM   24  C   UNK N   1       2.795   4.666   1.733  0.00  0.00     0.034 C 
ENDBRANCH  22  23
ENDBRANCH  20  22
ENDBRANCH  16  20
ENDBRANCH  14  16
ENDBRANCH  12  14
ENDBRANCH  11  12
BRANCH   6  25
HETATM   25  C   UNK N   1       6.593  -3.544  -0.594  0.00  0.00     0.163 C 
HETATM   26  O   UNK N   1       6.764  -2.561  -1.297  0.00  0.00    -0.648 OA
BRANCH  25  27
HETATM   27  O   UNK N   1       7.550  -4.490  -0.527  0.00  0.00    -0.775 OA
HETATM   28  H   UNK N   1       7.313  -5.396  -0.480  0.00  0.00     0.167 HD
ENDBRANCH  25  27
ENDBRANCH   6  25
TORSDOF 10
