MODEL 1
REMARK VINA RESULT:      -6.7      0.000      0.000
REMARK  10 active torsions:
REMARK  status: ('A' for Active; 'I' for Inactive)
REMARK    1  A    between atoms: O_2  and  C_17 
REMARK    2  A    between atoms: O_4  and  C_22 
REMARK    3  A    between atoms: O_4  and  C_25 
REMARK       I    between atoms: N_6  and  C_16 
REMARK    4  A    between atoms: C_18  and  N_7 
REMARK    5  A    between atoms: C_20  and  N_7 
REMARK    6  A    between atoms: C_11  and  C_17 
REMARK    7  A    between atoms: C_16  and  C_18 
REMARK    8  A    between atoms: C_20  and  C_21 
REMARK    9  A    between atoms: C_20  and  C_22 
REMARK   10  A    between atoms: C_21  and  C_23 
ROOT
HETATM    1  O   UNK N   1      33.744  14.680  11.664  0.00  0.00    -0.271 OA
HETATM    2  N   UNK N   1      35.884  14.151  11.218  0.00  0.00    -0.331 N 
HETATM    3  C   UNK N   1      37.472  12.642  10.560  0.00  0.00     0.011 C 
HETATM    4  C   UNK N   1      37.087  14.098  10.408  0.00  0.00     0.092 C 
HETATM    5  C   UNK N   1      37.267  12.421  12.055  0.00  0.00     0.043 C 
HETATM    6  C   UNK N   1      35.962  13.195  12.316  0.00  0.00     0.186 C 
HETATM    7  C   UNK N   1      38.879  12.395  10.025  0.00  0.00     0.007 C 
HETATM    8  C   UNK N   1      37.032  14.521   8.929  0.00  0.00     0.026 C 
HETATM    9  C   UNK N   1      39.074  12.999   8.617  0.00  0.00     0.001 C 
HETATM   10  C   UNK N   1      37.793  13.572   7.989  0.00  0.00     0.002 C 
HETATM   11  C   UNK N   1      34.696  14.780  10.908  0.00  0.00     0.243 C 
ENDROOT
BRANCH  11  12
HETATM   12  C   UNK N   1      34.497  15.503   9.590  0.00  0.00     0.166 C 
HETATM   13  C   UNK N   1      33.567  14.667   8.727  0.00  0.00     0.042 C 
BRANCH  12  14
HETATM   14  N   UNK N   1      33.903  16.831   9.730  0.00  0.00    -0.397 N 
HETATM   15  H   UNK N   1      33.921  17.391  10.583  0.00  0.00     0.154 HD
BRANCH  14  16
HETATM   16  C   UNK N   1      33.281  17.241   8.474  0.00  0.00     0.177 C 
BRANCH  16  17
HETATM   17  C   UNK N   1      31.831  17.754   8.607  0.00  0.00     0.035 C 
BRANCH  17  18
HETATM   18  C   UNK N   1      30.791  16.930   7.851  0.00  0.00    -0.002 C 
HETATM   19  C   UNK N   1      29.606  17.784   7.449  0.00  0.00     0.005 C 
ENDBRANCH  17  18
ENDBRANCH  16  17
BRANCH  16  20
HETATM   20  C   UNK N   1      34.225  18.089   7.646  0.00  0.00     0.281 C 
HETATM   21  O   UNK N   1      34.891  18.928   8.230  0.00  0.00    -0.263 OA
BRANCH  20  22
HETATM   22  O   UNK N   1      34.338  18.005   6.292  0.00  0.00    -0.320 OA
BRANCH  22  23
HETATM   23  C   UNK N   1      33.807  16.999   5.521  0.00  0.00     0.174 C 
HETATM   24  C   UNK N   1      32.804  17.558   4.536  0.00  0.00     0.034 C 
ENDBRANCH  22  23
ENDBRANCH  20  22
ENDBRANCH  16  20
ENDBRANCH  14  16
ENDBRANCH  12  14
ENDBRANCH  11  12
BRANCH   6  25
HETATM   25  C   UNK N   1      35.944  13.795  13.693  0.00  0.00     0.163 C 
HETATM   26  O   UNK N   1      35.099  13.466  14.511  0.00  0.00    -0.648 OA
BRANCH  25  27
HETATM   27  O   UNK N   1      36.883  14.699  14.033  0.00  0.00    -0.775 OA
HETATM   28  H   UNK N   1      37.765  14.596  13.731  0.00  0.00     0.167 HD
ENDBRANCH  25  27
ENDBRANCH   6  25
TORSDOF 10
ENDMDL
MODEL 2
REMARK VINA RESULT:      -6.3      5.929      8.302
REMARK  10 active torsions:
REMARK  status: ('A' for Active; 'I' for Inactive)
REMARK    1  A    between atoms: O_2  and  C_17 
REMARK    2  A    between atoms: O_4  and  C_22 
REMARK    3  A    between atoms: O_4  and  C_25 
REMARK       I    between atoms: N_6  and  C_16 
REMARK    4  A    between atoms: C_18  and  N_7 
REMARK    5  A    between atoms: C_20  and  N_7 
REMARK    6  A    between atoms: C_11  and  C_17 
REMARK    7  A    between atoms: C_16  and  C_18 
REMARK    8  A    between atoms: C_20  and  C_21 
REMARK    9  A    between atoms: C_20  and  C_22 
REMARK   10  A    between atoms: C_21  and  C_23 
ROOT
HETATM    1  O   UNK N   1      27.415  16.337   7.108  0.00  0.00    -0.271 OA
HETATM    2  N   UNK N   1      29.488  17.207   7.019  0.00  0.00    -0.331 N 
HETATM    3  C   UNK N   1      31.748  17.014   7.312  0.00  0.00     0.011 C 
HETATM    4  C   UNK N   1      30.722  17.607   6.369  0.00  0.00     0.092 C 
HETATM    5  C   UNK N   1      31.171  17.389   8.674  0.00  0.00     0.043 C 
HETATM    6  C   UNK N   1      29.668  17.136   8.464  0.00  0.00     0.186 C 
HETATM    7  C   UNK N   1      33.143  17.544   6.997  0.00  0.00     0.007 C 
HETATM    8  C   UNK N   1      30.986  17.196   4.910  0.00  0.00     0.026 C 
HETATM    9  C   UNK N   1      33.473  17.440   5.492  0.00  0.00     0.001 C 
HETATM   10  C   UNK N   1      32.417  16.692   4.661  0.00  0.00     0.002 C 
HETATM   11  C   UNK N   1      28.357  16.691   6.419  0.00  0.00     0.243 C 
ENDROOT
BRANCH  11  12
HETATM   12  C   UNK N   1      28.290  16.444   4.925  0.00  0.00     0.166 C 
HETATM   13  C   UNK N   1      27.535  15.146   4.694  0.00  0.00     0.042 C 
BRANCH  12  14
HETATM   14  N   UNK N   1      27.604  17.499   4.182  0.00  0.00    -0.397 N 
HETATM   15  H   UNK N   1      27.565  17.567   3.165  0.00  0.00     0.154 HD
BRANCH  14  16
HETATM   16  C   UNK N   1      26.980  18.443   5.107  0.00  0.00     0.177 C 
BRANCH  16  17
HETATM   17  C   UNK N   1      27.670  19.821   5.188  0.00  0.00     0.035 C 
BRANCH  17  18
HETATM   18  C   UNK N   1      27.635  20.471   6.570  0.00  0.00    -0.002 C 
HETATM   19  C   UNK N   1      26.634  21.607   6.611  0.00  0.00     0.005 C 
ENDBRANCH  17  18
ENDBRANCH  16  17
BRANCH  16  20
HETATM   20  C   UNK N   1      25.473  18.449   4.949  0.00  0.00     0.281 C 
HETATM   21  O   UNK N   1      24.890  17.383   5.054  0.00  0.00    -0.263 OA
BRANCH  20  22
HETATM   22  O   UNK N   1      24.741  19.558   4.651  0.00  0.00    -0.320 OA
BRANCH  22  23
HETATM   23  C   UNK N   1      24.206  19.837   3.417  0.00  0.00     0.174 C 
HETATM   24  C   UNK N   1      25.227  20.527   2.539  0.00  0.00     0.034 C 
ENDBRANCH  22  23
ENDBRANCH  20  22
ENDBRANCH  16  20
ENDBRANCH  14  16
ENDBRANCH  12  14
ENDBRANCH  11  12
BRANCH   6  25
HETATM   25  C   UNK N   1      28.832  18.093   9.265  0.00  0.00     0.163 C 
HETATM   26  O   UNK N   1      29.346  19.009   9.887  0.00  0.00    -0.648 OA
BRANCH  25  27
HETATM   27  O   UNK N   1      27.493  17.944   9.284  0.00  0.00    -0.775 OA
HETATM   28  H   UNK N   1      26.945  18.649   9.570  0.00  0.00     0.167 HD
ENDBRANCH  25  27
ENDBRANCH   6  25
TORSDOF 10
ENDMDL
MODEL 3
REMARK VINA RESULT:      -6.2      6.030      8.300
REMARK  10 active torsions:
REMARK  status: ('A' for Active; 'I' for Inactive)
REMARK    1  A    between atoms: O_2  and  C_17 
REMARK    2  A    between atoms: O_4  and  C_22 
REMARK    3  A    between atoms: O_4  and  C_25 
REMARK       I    between atoms: N_6  and  C_16 
REMARK    4  A    between atoms: C_18  and  N_7 
REMARK    5  A    between atoms: C_20  and  N_7 
REMARK    6  A    between atoms: C_11  and  C_17 
REMARK    7  A    between atoms: C_16  and  C_18 
REMARK    8  A    between atoms: C_20  and  C_21 
REMARK    9  A    between atoms: C_20  and  C_22 
REMARK   10  A    between atoms: C_21  and  C_23 
ROOT
HETATM    1  O   UNK N   1      27.193  16.329   7.561  0.00  0.00    -0.271 OA
HETATM    2  N   UNK N   1      29.230  17.188   7.138  0.00  0.00    -0.331 N 
HETATM    3  C   UNK N   1      31.506  16.986   7.069  0.00  0.00     0.011 C 
HETATM    4  C   UNK N   1      30.346  17.579   6.298  0.00  0.00     0.092 C 
HETATM    5  C   UNK N   1      31.155  17.370   8.503  0.00  0.00     0.043 C 
HETATM    6  C   UNK N   1      29.637  17.124   8.536  0.00  0.00     0.186 C 
HETATM    7  C   UNK N   1      32.835  17.507   6.532  0.00  0.00     0.007 C 
HETATM    8  C   UNK N   1      30.372  17.160   4.817  0.00  0.00     0.026 C 
HETATM    9  C   UNK N   1      32.921  17.394   4.995  0.00  0.00     0.001 C 
HETATM   10  C   UNK N   1      31.743  16.647   4.347  0.00  0.00     0.002 C 
HETATM   11  C   UNK N   1      28.015  16.676   6.729  0.00  0.00     0.243 C 
ENDROOT
BRANCH  11  12
HETATM   12  C   UNK N   1      27.710  16.421   5.265  0.00  0.00     0.166 C 
HETATM   13  C   UNK N   1      27.615  14.920   5.057  0.00  0.00     0.042 C 
BRANCH  12  14
HETATM   14  N   UNK N   1      26.455  17.017   4.812  0.00  0.00    -0.397 N 
HETATM   15  H   UNK N   1      25.527  16.637   5.002  0.00  0.00     0.154 HD
BRANCH  14  16
HETATM   16  C   UNK N   1      26.720  18.234   4.050  0.00  0.00     0.177 C 
BRANCH  16  17
HETATM   17  C   UNK N   1      25.603  18.636   3.062  0.00  0.00     0.035 C 
BRANCH  17  18
HETATM   18  C   UNK N   1      25.434  20.141   2.869  0.00  0.00    -0.002 C 
HETATM   19  C   UNK N   1      23.987  20.553   3.052  0.00  0.00     0.005 C 
ENDBRANCH  17  18
ENDBRANCH  16  17
BRANCH  16  20
HETATM   20  C   UNK N   1      27.260  19.333   4.943  0.00  0.00     0.281 C 
HETATM   21  O   UNK N   1      28.271  19.911   4.579  0.00  0.00    -0.263 OA
BRANCH  20  22
HETATM   22  O   UNK N   1      26.717  19.678   6.142  0.00  0.00    -0.320 OA
BRANCH  22  23
HETATM   23  C   UNK N   1      27.185  20.682   6.956  0.00  0.00     0.174 C 
HETATM   24  C   UNK N   1      26.353  21.934   6.786  0.00  0.00     0.034 C 
ENDBRANCH  22  23
ENDBRANCH  20  22
ENDBRANCH  16  20
ENDBRANCH  14  16
ENDBRANCH  12  14
ENDBRANCH  11  12
BRANCH   6  25
HETATM   25  C   UNK N   1      28.943  18.089   9.455  0.00  0.00     0.163 C 
HETATM   26  O   UNK N   1      29.579  18.820  10.196  0.00  0.00    -0.648 OA
BRANCH  25  27
HETATM   27  O   UNK N   1      27.597  18.156   9.447  0.00  0.00    -0.775 OA
HETATM   28  H   UNK N   1      27.127  18.087   8.638  0.00  0.00     0.167 HD
ENDBRANCH  25  27
ENDBRANCH   6  25
TORSDOF 10
ENDMDL
MODEL 4
REMARK VINA RESULT:      -6.2     16.184     19.836
REMARK  10 active torsions:
REMARK  status: ('A' for Active; 'I' for Inactive)
REMARK    1  A    between atoms: O_2  and  C_17 
REMARK    2  A    between atoms: O_4  and  C_22 
REMARK    3  A    between atoms: O_4  and  C_25 
REMARK       I    between atoms: N_6  and  C_16 
REMARK    4  A    between atoms: C_18  and  N_7 
REMARK    5  A    between atoms: C_20  and  N_7 
REMARK    6  A    between atoms: C_11  and  C_17 
REMARK    7  A    between atoms: C_16  and  C_18 
REMARK    8  A    between atoms: C_20  and  C_21 
REMARK    9  A    between atoms: C_20  and  C_22 
REMARK   10  A    between atoms: C_21  and  C_23 
ROOT
HETATM    1  O   UNK N   1      26.917  25.064  -7.912  0.00  0.00    -0.271 OA
HETATM    2  N   UNK N   1      27.471  22.920  -7.518  0.00  0.00    -0.331 N 
HETATM    3  C   UNK N   1      28.409  20.945  -8.190  0.00  0.00     0.011 C 
HETATM    4  C   UNK N   1      28.287  21.848  -6.980  0.00  0.00     0.092 C 
HETATM    5  C   UNK N   1      26.978  20.939  -8.717  0.00  0.00     0.043 C 
HETATM    6  C   UNK N   1      26.568  22.413  -8.544  0.00  0.00     0.186 C 
HETATM    7  C   UNK N   1      28.993  19.591  -7.798  0.00  0.00     0.007 C 
HETATM    8  C   UNK N   1      29.663  22.167  -6.368  0.00  0.00     0.026 C 
HETATM    9  C   UNK N   1      30.267  19.740  -6.939  0.00  0.00     0.001 C 
HETATM   10  C   UNK N   1      30.768  21.186  -6.792  0.00  0.00     0.002 C 
HETATM   11  C   UNK N   1      27.650  24.276  -7.338  0.00  0.00     0.243 C 
ENDROOT
BRANCH  11  12
HETATM   12  C   UNK N   1      28.811  24.827  -6.533  0.00  0.00     0.166 C 
HETATM   13  C   UNK N   1      29.641  25.714  -7.446  0.00  0.00     0.042 C 
BRANCH  12  14
HETATM   14  N   UNK N   1      28.401  25.629  -5.382  0.00  0.00    -0.397 N 
HETATM   15  H   UNK N   1      28.092  26.600  -5.427  0.00  0.00     0.154 HD
BRANCH  14  16
HETATM   16  C   UNK N   1      28.499  24.840  -4.156  0.00  0.00     0.177 C 
BRANCH  16  17
HETATM   17  C   UNK N   1      29.788  25.070  -3.339  0.00  0.00     0.035 C 
BRANCH  17  18
HETATM   18  C   UNK N   1      30.772  23.902  -3.358  0.00  0.00    -0.002 C 
HETATM   19  C   UNK N   1      30.347  22.818  -2.389  0.00  0.00     0.005 C 
ENDBRANCH  17  18
ENDBRANCH  16  17
BRANCH  16  20
HETATM   20  C   UNK N   1      27.195  24.864  -3.384  0.00  0.00     0.281 C 
HETATM   21  O   UNK N   1      26.996  23.965  -2.584  0.00  0.00    -0.263 OA
BRANCH  20  22
HETATM   22  O   UNK N   1      26.217  25.794  -3.565  0.00  0.00    -0.320 OA
BRANCH  22  23
HETATM   23  C   UNK N   1      26.216  27.049  -3.007  0.00  0.00     0.174 C 
HETATM   24  C   UNK N   1      25.624  28.057  -3.968  0.00  0.00     0.034 C 
ENDBRANCH  22  23
ENDBRANCH  20  22
ENDBRANCH  16  20
ENDBRANCH  14  16
ENDBRANCH  12  14
ENDBRANCH  11  12
BRANCH   6  25
HETATM   25  C   UNK N   1      25.104  22.544  -8.234  0.00  0.00     0.163 C 
HETATM   26  O   UNK N   1      24.536  21.731  -7.522  0.00  0.00    -0.648 OA
BRANCH  25  27
HETATM   27  O   UNK N   1      24.413  23.584  -8.741  0.00  0.00    -0.775 OA
HETATM   28  H   UNK N   1      23.494  23.500  -8.908  0.00  0.00     0.167 HD
ENDBRANCH  25  27
ENDBRANCH   6  25
TORSDOF 10
ENDMDL
MODEL 5
REMARK VINA RESULT:      -6.1     13.178     15.357
REMARK  10 active torsions:
REMARK  status: ('A' for Active; 'I' for Inactive)
REMARK    1  A    between atoms: O_2  and  C_17 
REMARK    2  A    between atoms: O_4  and  C_22 
REMARK    3  A    between atoms: O_4  and  C_25 
REMARK       I    between atoms: N_6  and  C_16 
REMARK    4  A    between atoms: C_18  and  N_7 
REMARK    5  A    between atoms: C_20  and  N_7 
REMARK    6  A    between atoms: C_11  and  C_17 
REMARK    7  A    between atoms: C_16  and  C_18 
REMARK    8  A    between atoms: C_20  and  C_21 
REMARK    9  A    between atoms: C_20  and  C_22 
REMARK   10  A    between atoms: C_21  and  C_23 
ROOT
HETATM    1  O   UNK N   1      18.141  16.116   5.942  0.00  0.00    -0.271 OA
HETATM    2  N   UNK N   1      20.106  15.584   6.900  0.00  0.00    -0.331 N 
HETATM    3  C   UNK N   1      21.382  14.206   8.205  0.00  0.00     0.011 C 
HETATM    4  C   UNK N   1      21.447  15.031   6.937  0.00  0.00     0.092 C 
HETATM    5  C   UNK N   1      20.671  15.159   9.160  0.00  0.00     0.043 C 
HETATM    6  C   UNK N   1      19.592  15.774   8.251  0.00  0.00     0.186 C 
HETATM    7  C   UNK N   1      22.774  13.742   8.620  0.00  0.00     0.007 C 
HETATM    8  C   UNK N   1      21.966  14.205   5.746  0.00  0.00     0.026 C 
HETATM    9  C   UNK N   1      23.547  13.107   7.443  0.00  0.00     0.001 C 
HETATM   10  C   UNK N   1      22.716  12.929   6.162  0.00  0.00     0.002 C 
HETATM   11  C   UNK N   1      19.274  15.686   5.804  0.00  0.00     0.243 C 
ENDROOT
BRANCH  11  12
HETATM   12  C   UNK N   1      19.688  15.170   4.439  0.00  0.00     0.166 C 
HETATM   13  C   UNK N   1      18.915  13.891   4.164  0.00  0.00     0.042 C 
BRANCH  12  14
HETATM   14  N   UNK N   1      19.413  16.103   3.348  0.00  0.00    -0.397 N 
HETATM   15  H   UNK N   1      18.721  15.954   2.613  0.00  0.00     0.154 HD
BRANCH  14  16
HETATM   16  C   UNK N   1      20.270  17.279   3.462  0.00  0.00     0.177 C 
BRANCH  16  17
HETATM   17  C   UNK N   1      21.785  16.980   3.453  0.00  0.00     0.035 C 
BRANCH  17  18
HETATM   18  C   UNK N   1      22.578  17.670   4.561  0.00  0.00    -0.002 C 
HETATM   19  C   UNK N   1      23.897  18.202   4.036  0.00  0.00     0.005 C 
ENDBRANCH  17  18
ENDBRANCH  16  17
BRANCH  16  20
HETATM   20  C   UNK N   1      19.796  18.394   2.551  0.00  0.00     0.281 C 
HETATM   21  O   UNK N   1      18.671  18.829   2.731  0.00  0.00    -0.263 OA
BRANCH  20  22
HETATM   22  O   UNK N   1      20.526  18.901   1.520  0.00  0.00    -0.320 OA
BRANCH  22  23
HETATM   23  C   UNK N   1      20.873  20.223   1.379  0.00  0.00     0.174 C 
HETATM   24  C   UNK N   1      21.529  20.737   2.642  0.00  0.00     0.034 C 
ENDBRANCH  22  23
ENDBRANCH  20  22
ENDBRANCH  16  20
ENDBRANCH  14  16
ENDBRANCH  12  14
ENDBRANCH  11  12
BRANCH   6  25
HETATM   25  C   UNK N   1      19.296  17.197   8.633  0.00  0.00     0.163 C 
HETATM   26  O   UNK N   1      20.198  17.993   8.838  0.00  0.00    -0.648 OA
BRANCH  25  27
HETATM   27  O   UNK N   1      18.015  17.600   8.737  0.00  0.00    -0.775 OA
HETATM   28  H   UNK N   1      17.400  17.090   9.229  0.00  0.00     0.167 HD
ENDBRANCH  25  27
ENDBRANCH   6  25
TORSDOF 10
ENDMDL
MODEL 6
REMARK VINA RESULT:      -6.0      6.069      8.411
REMARK  10 active torsions:
REMARK  status: ('A' for Active; 'I' for Inactive)
REMARK    1  A    between atoms: O_2  and  C_17 
REMARK    2  A    between atoms: O_4  and  C_22 
REMARK    3  A    between atoms: O_4  and  C_25 
REMARK       I    between atoms: N_6  and  C_16 
REMARK    4  A    between atoms: C_18  and  N_7 
REMARK    5  A    between atoms: C_20  and  N_7 
REMARK    6  A    between atoms: C_11  and  C_17 
REMARK    7  A    between atoms: C_16  and  C_18 
REMARK    8  A    between atoms: C_20  and  C_21 
REMARK    9  A    between atoms: C_20  and  C_22 
REMARK   10  A    between atoms: C_21  and  C_23 
ROOT
HETATM    1  O   UNK N   1      27.188  16.311   7.790  0.00  0.00    -0.271 OA
HETATM    2  N   UNK N   1      29.191  17.157   7.213  0.00  0.00    -0.331 N 
HETATM    3  C   UNK N   1      31.466  16.980   7.070  0.00  0.00     0.011 C 
HETATM    4  C   UNK N   1      30.267  17.488   6.298  0.00  0.00     0.092 C 
HETATM    5  C   UNK N   1      31.165  17.484   8.478  0.00  0.00     0.043 C 
HETATM    6  C   UNK N   1      29.653  17.220   8.594  0.00  0.00     0.186 C 
HETATM    7  C   UNK N   1      32.764  17.471   6.437  0.00  0.00     0.007 C 
HETATM    8  C   UNK N   1      30.243  16.941   4.859  0.00  0.00     0.026 C 
HETATM    9  C   UNK N   1      32.792  17.224   4.913  0.00  0.00     0.001 C 
HETATM   10  C   UNK N   1      31.603  16.408   4.380  0.00  0.00     0.002 C 
HETATM   11  C   UNK N   1      27.971  16.594   6.899  0.00  0.00     0.243 C 
ENDROOT
BRANCH  11  12
HETATM   12  C   UNK N   1      27.613  16.209   5.476  0.00  0.00     0.166 C 
HETATM   13  C   UNK N   1      27.575  14.693   5.393  0.00  0.00     0.042 C 
BRANCH  12  14
HETATM   14  N   UNK N   1      26.314  16.714   5.037  0.00  0.00    -0.397 N 
HETATM   15  H   UNK N   1      25.461  16.694   5.596  0.00  0.00     0.154 HD
BRANCH  14  16
HETATM   16  C   UNK N   1      26.414  17.254   3.684  0.00  0.00     0.177 C 
BRANCH  16  17
HETATM   17  C   UNK N   1      25.741  16.393   2.592  0.00  0.00     0.035 C 
BRANCH  17  18
HETATM   18  C   UNK N   1      26.658  15.364   1.937  0.00  0.00    -0.002 C 
HETATM   19  C   UNK N   1      26.078  13.968   2.049  0.00  0.00     0.005 C 
ENDBRANCH  17  18
ENDBRANCH  16  17
BRANCH  16  20
HETATM   20  C   UNK N   1      26.106  18.738   3.661  0.00  0.00     0.281 C 
HETATM   21  O   UNK N   1      24.935  19.071   3.593  0.00  0.00    -0.263 OA
BRANCH  20  22
HETATM   22  O   UNK N   1      27.055  19.714   3.661  0.00  0.00    -0.320 OA
BRANCH  22  23
HETATM   23  C   UNK N   1      27.972  19.917   4.664  0.00  0.00     0.174 C 
HETATM   24  C   UNK N   1      27.271  20.162   5.982  0.00  0.00     0.034 C 
ENDBRANCH  22  23
ENDBRANCH  20  22
ENDBRANCH  16  20
ENDBRANCH  14  16
ENDBRANCH  12  14
ENDBRANCH  11  12
BRANCH   6  25
HETATM   25  C   UNK N   1      28.979  18.253   9.452  0.00  0.00     0.163 C 
HETATM   26  O   UNK N   1      29.622  18.947  10.223  0.00  0.00    -0.648 OA
BRANCH  25  27
HETATM   27  O   UNK N   1      27.646  18.423   9.357  0.00  0.00    -0.775 OA
HETATM   28  H   UNK N   1      27.282  19.287   9.332  0.00  0.00     0.167 HD
ENDBRANCH  25  27
ENDBRANCH   6  25
TORSDOF 10
ENDMDL
MODEL 7
REMARK VINA RESULT:      -6.0      2.904      7.561
REMARK  10 active torsions:
REMARK  status: ('A' for Active; 'I' for Inactive)
REMARK    1  A    between atoms: O_2  and  C_17 
REMARK    2  A    between atoms: O_4  and  C_22 
REMARK    3  A    between atoms: O_4  and  C_25 
REMARK       I    between atoms: N_6  and  C_16 
REMARK    4  A    between atoms: C_18  and  N_7 
REMARK    5  A    between atoms: C_20  and  N_7 
REMARK    6  A    between atoms: C_11  and  C_17 
REMARK    7  A    between atoms: C_16  and  C_18 
REMARK    8  A    between atoms: C_20  and  C_21 
REMARK    9  A    between atoms: C_20  and  C_22 
REMARK   10  A    between atoms: C_21  and  C_23 
ROOT
HETATM    1  O   UNK N   1      30.707  18.376   9.199  0.00  0.00    -0.271 OA
HETATM    2  N   UNK N   1      30.289  17.395   7.218  0.00  0.00    -0.331 N 
HETATM    3  C   UNK N   1      29.936  17.523   4.962  0.00  0.00     0.011 C 
HETATM    4  C   UNK N   1      30.632  16.675   6.006  0.00  0.00     0.092 C 
HETATM    5  C   UNK N   1      28.584  17.778   5.621  0.00  0.00     0.043 C 
HETATM    6  C   UNK N   1      28.986  18.034   7.084  0.00  0.00     0.186 C 
HETATM    7  C   UNK N   1      29.910  16.808   3.615  0.00  0.00     0.007 C 
HETATM    8  C   UNK N   1      32.110  16.435   5.652  0.00  0.00     0.026 C 
HETATM    9  C   UNK N   1      31.302  16.266   3.222  0.00  0.00     0.001 C 
HETATM   10  C   UNK N   1      32.437  16.687   4.171  0.00  0.00     0.002 C 
HETATM   11  C   UNK N   1      31.125  17.703   8.272  0.00  0.00     0.243 C 
ENDROOT
BRANCH  11  12
HETATM   12  C   UNK N   1      32.593  17.325   8.261  0.00  0.00     0.166 C 
HETATM   13  C   UNK N   1      33.410  18.602   8.161  0.00  0.00     0.042 C 
BRANCH  12  14
HETATM   14  N   UNK N   1      33.027  16.609   9.459  0.00  0.00    -0.397 N 
HETATM   15  H   UNK N   1      32.529  16.607  10.349  0.00  0.00     0.154 HD
BRANCH  14  16
HETATM   16  C   UNK N   1      34.275  15.897   9.198  0.00  0.00     0.177 C 
BRANCH  16  17
HETATM   17  C   UNK N   1      34.758  15.953   7.732  0.00  0.00     0.035 C 
BRANCH  17  18
HETATM   18  C   UNK N   1      34.982  14.589   7.083  0.00  0.00    -0.002 C 
HETATM   19  C   UNK N   1      35.677  14.732   5.744  0.00  0.00     0.005 C 
ENDBRANCH  17  18
ENDBRANCH  16  17
BRANCH  16  20
HETATM   20  C   UNK N   1      35.310  16.197  10.263  0.00  0.00     0.281 C 
HETATM   21  O   UNK N   1      35.670  17.355  10.391  0.00  0.00    -0.263 OA
BRANCH  20  22
HETATM   22  O   UNK N   1      35.895  15.250  11.047  0.00  0.00    -0.320 OA
BRANCH  22  23
HETATM   23  C   UNK N   1      36.414  14.063  10.590  0.00  0.00     0.174 C 
HETATM   24  C   UNK N   1      37.620  14.314   9.712  0.00  0.00     0.034 C 
ENDBRANCH  22  23
ENDBRANCH  20  22
ENDBRANCH  16  20
ENDBRANCH  14  16
ENDBRANCH  12  14
ENDBRANCH  11  12
BRANCH   6  25
HETATM   25  C   UNK N   1      27.930  17.551   8.037  0.00  0.00     0.163 C 
HETATM   26  O   UNK N   1      27.324  16.512   7.830  0.00  0.00    -0.648 OA
BRANCH  25  27
HETATM   27  O   UNK N   1      27.660  18.270   9.144  0.00  0.00    -0.775 OA
HETATM   28  H   UNK N   1      27.342  17.844   9.916  0.00  0.00     0.167 HD
ENDBRANCH  25  27
ENDBRANCH   6  25
TORSDOF 10
ENDMDL
MODEL 8
REMARK VINA RESULT:      -6.0     14.987     18.207
REMARK  10 active torsions:
REMARK  status: ('A' for Active; 'I' for Inactive)
REMARK    1  A    between atoms: O_2  and  C_17 
REMARK    2  A    between atoms: O_4  and  C_22 
REMARK    3  A    between atoms: O_4  and  C_25 
REMARK       I    between atoms: N_6  and  C_16 
REMARK    4  A    between atoms: C_18  and  N_7 
REMARK    5  A    between atoms: C_20  and  N_7 
REMARK    6  A    between atoms: C_11  and  C_17 
REMARK    7  A    between atoms: C_16  and  C_18 
REMARK    8  A    between atoms: C_20  and  C_21 
REMARK    9  A    between atoms: C_20  and  C_22 
REMARK   10  A    between atoms: C_21  and  C_23 
ROOT
HETATM    1  O   UNK N   1      30.090  23.474  -2.344  0.00  0.00    -0.271 OA
HETATM    2  N   UNK N   1      30.334  22.518  -4.367  0.00  0.00    -0.331 N 
HETATM    3  C   UNK N   1      29.862  20.848  -5.855  0.00  0.00     0.011 C 
HETATM    4  C   UNK N   1      30.069  22.346  -5.783  0.00  0.00     0.092 C 
HETATM    5  C   UNK N   1      31.005  20.334  -4.985  0.00  0.00     0.043 C 
HETATM    6  C   UNK N   1      30.996  21.340  -3.820  0.00  0.00     0.186 C 
HETATM    7  C   UNK N   1      29.847  20.373  -7.304  0.00  0.00     0.007 C 
HETATM    8  C   UNK N   1      28.909  23.113  -6.443  0.00  0.00     0.026 C 
HETATM    9  C   UNK N   1      28.903  21.225  -8.180  0.00  0.00     0.001 C 
HETATM   10  C   UNK N   1      28.067  22.253  -7.399  0.00  0.00     0.002 C 
HETATM   11  C   UNK N   1      29.827  23.496  -3.535  0.00  0.00     0.243 C 
ENDROOT
BRANCH  11  12
HETATM   12  C   UNK N   1      28.853  24.544  -4.038  0.00  0.00     0.166 C 
HETATM   13  C   UNK N   1      27.541  24.364  -3.294  0.00  0.00     0.042 C 
BRANCH  12  14
HETATM   14  N   UNK N   1      29.303  25.918  -3.827  0.00  0.00    -0.397 N 
HETATM   15  H   UNK N   1      30.155  26.184  -3.333  0.00  0.00     0.154 HD
BRANCH  14  16
HETATM   16  C   UNK N   1      28.357  26.857  -4.425  0.00  0.00     0.177 C 
BRANCH  16  17
HETATM   17  C   UNK N   1      28.143  28.160  -3.625  0.00  0.00     0.035 C 
BRANCH  17  18
HETATM   18  C   UNK N   1      26.747  28.765  -3.754  0.00  0.00    -0.002 C 
HETATM   19  C   UNK N   1      25.677  27.706  -3.582  0.00  0.00     0.005 C 
ENDBRANCH  17  18
ENDBRANCH  16  17
BRANCH  16  20
HETATM   20  C   UNK N   1      28.603  27.009  -5.913  0.00  0.00     0.281 C 
HETATM   21  O   UNK N   1      29.515  27.739  -6.262  0.00  0.00    -0.263 OA
BRANCH  20  22
HETATM   22  O   UNK N   1      27.841  26.423  -6.877  0.00  0.00    -0.320 OA
BRANCH  22  23
HETATM   23  C   UNK N   1      26.497  26.645  -7.057  0.00  0.00     0.174 C 
HETATM   24  C   UNK N   1      25.695  25.447  -6.597  0.00  0.00     0.034 C 
ENDBRANCH  22  23
ENDBRANCH  20  22
ENDBRANCH  16  20
ENDBRANCH  14  16
ENDBRANCH  12  14
ENDBRANCH  11  12
BRANCH   6  25
HETATM   25  C   UNK N   1      32.379  21.571  -3.282  0.00  0.00     0.163 C 
HETATM   26  O   UNK N   1      33.289  21.925  -4.015  0.00  0.00    -0.648 OA
BRANCH  25  27
HETATM   27  O   UNK N   1      32.614  21.396  -1.967  0.00  0.00    -0.775 OA
HETATM   28  H   UNK N   1      33.052  22.063  -1.474  0.00  0.00     0.167 HD
ENDBRANCH  25  27
ENDBRANCH   6  25
TORSDOF 10
ENDMDL
MODEL 9
REMARK VINA RESULT:      -5.9      2.306      6.966
REMARK  10 active torsions:
REMARK  status: ('A' for Active; 'I' for Inactive)
REMARK    1  A    between atoms: O_2  and  C_17 
REMARK    2  A    between atoms: O_4  and  C_22 
REMARK    3  A    between atoms: O_4  and  C_25 
REMARK       I    between atoms: N_6  and  C_16 
REMARK    4  A    between atoms: C_18  and  N_7 
REMARK    5  A    between atoms: C_20  and  N_7 
REMARK    6  A    between atoms: C_11  and  C_17 
REMARK    7  A    between atoms: C_16  and  C_18 
REMARK    8  A    between atoms: C_20  and  C_21 
REMARK    9  A    between atoms: C_20  and  C_22 
REMARK   10  A    between atoms: C_21  and  C_23 
ROOT
HETATM    1  O   UNK N   1      36.950  15.903  10.544  0.00  0.00    -0.271 OA
HETATM    2  N   UNK N   1      35.323  14.798   9.451  0.00  0.00    -0.331 N 
HETATM    3  C   UNK N   1      34.520  13.779   7.568  0.00  0.00     0.011 C 
HETATM    4  C   UNK N   1      34.546  13.632   9.074  0.00  0.00     0.092 C 
HETATM    5  C   UNK N   1      34.226  15.267   7.406  0.00  0.00     0.043 C 
HETATM    6  C   UNK N   1      35.105  15.887   8.507  0.00  0.00     0.186 C 
HETATM    7  C   UNK N   1      33.512  12.817   6.948  0.00  0.00     0.007 C 
HETATM    8  C   UNK N   1      35.016  12.230   9.502  0.00  0.00     0.026 C 
HETATM    9  C   UNK N   1      33.685  11.378   7.480  0.00  0.00     0.001 C 
HETATM   10  C   UNK N   1      34.913  11.179   8.384  0.00  0.00     0.002 C 
HETATM   11  C   UNK N   1      36.340  14.859  10.382  0.00  0.00     0.243 C 
ENDROOT
BRANCH  11  12
HETATM   12  C   UNK N   1      36.804  13.629  11.137  0.00  0.00     0.166 C 
HETATM   13  C   UNK N   1      38.147  13.204  10.568  0.00  0.00     0.042 C 
BRANCH  12  14
HETATM   14  N   UNK N   1      36.974  13.847  12.572  0.00  0.00    -0.397 N 
HETATM   15  H   UNK N   1      37.718  14.404  12.993  0.00  0.00     0.154 HD
BRANCH  14  16
HETATM   16  C   UNK N   1      35.926  13.154  13.316  0.00  0.00     0.177 C 
BRANCH  16  17
HETATM   17  C   UNK N   1      35.830  11.637  13.039  0.00  0.00     0.035 C 
BRANCH  17  18
HETATM   18  C   UNK N   1      34.408  11.111  12.860  0.00  0.00    -0.002 C 
HETATM   19  C   UNK N   1      33.899  10.474  14.137  0.00  0.00     0.005 C 
ENDBRANCH  17  18
ENDBRANCH  16  17
BRANCH  16  20
HETATM   20  C   UNK N   1      35.914  13.578  14.771  0.00  0.00     0.281 C 
HETATM   21  O   UNK N   1      34.845  13.557  15.357  0.00  0.00    -0.263 OA
BRANCH  20  22
HETATM   22  O   UNK N   1      37.010  14.024  15.445  0.00  0.00    -0.320 OA
BRANCH  22  23
HETATM   23  C   UNK N   1      37.291  15.345  15.700  0.00  0.00     0.174 C 
HETATM   24  C   UNK N   1      37.053  15.666  17.159  0.00  0.00     0.034 C 
ENDBRANCH  22  23
ENDBRANCH  20  22
ENDBRANCH  16  20
ENDBRANCH  14  16
ENDBRANCH  12  14
ENDBRANCH  11  12
BRANCH   6  25
HETATM   25  C   UNK N   1      34.476  17.123   9.083  0.00  0.00     0.163 C 
HETATM   26  O   UNK N   1      35.100  18.169   9.162  0.00  0.00    -0.648 OA
BRANCH  25  27
HETATM   27  O   UNK N   1      33.197  17.077   9.506  0.00  0.00    -0.775 OA
HETATM   28  H   UNK N   1      32.991  17.269  10.401  0.00  0.00     0.167 HD
ENDBRANCH  25  27
ENDBRANCH   6  25
TORSDOF 10
ENDMDL
