MODEL 1
REMARK VINA RESULT:      -5.0      0.000      0.000
REMARK  5 active torsions:
REMARK  status: ('A' for Active; 'I' for Inactive)
REMARK    1  A    between atoms: N_5  and  C_8 
REMARK    2  A    between atoms: N_5  and  C_9 
REMARK    3  A    between atoms: N_5  and  C_10 
REMARK    4  A    between atoms: C_8  and  C_11 
REMARK    5  A    between atoms: C_9  and  C_12 
ROOT
HETATM    1  O   UNK N   1      35.686  17.623  10.301  0.00  0.00    -0.266 OA
HETATM    2  O   UNK N   1      34.987  13.855  12.534  0.00  0.00    -0.247 OA
HETATM    3  N   UNK N   1      35.353  15.758  11.421  0.00  0.00    -0.274 N 
HETATM    4  N   UNK N   1      33.741  14.202  10.711  0.00  0.00    -0.316 N 
HETATM    5  C   UNK N   1      34.050  16.236   9.420  0.00  0.00     0.115 A 
HETATM    6  C   UNK N   1      35.062  16.595  10.374  0.00  0.00     0.277 A 
HETATM    7  C   UNK N   1      33.422  14.999   9.662  0.00  0.00     0.128 A 
HETATM    8  C   UNK N   1      34.704  14.575  11.593  0.00  0.00     0.327 A 
HETATM    9  H   UNK N   1      36.049  16.021  12.065  0.00  0.00     0.173 HD
HETATM   10  H   UNK N   1      33.272  13.346  10.835  0.00  0.00     0.170 HD
ENDROOT
BRANCH   5  11
HETATM   11  N   UNK N   1      33.624  17.029   8.243  0.00  0.00    -0.373 N 
BRANCH  11  12
HETATM   12  C   UNK N   1      32.562  18.035   8.141  0.00  0.00     0.138 C 
BRANCH  12  13
HETATM   13  C   UNK N   1      31.119  17.846   8.517  0.00  0.00     0.134 C 
HETATM   14 Cl   UNK N   1      30.242  17.257   7.087  0.00  0.00    -0.129 Cl
ENDBRANCH  12  13
ENDBRANCH  11  12
BRANCH  11  15
HETATM   15  C   UNK N   1      34.256  16.902   6.925  0.00  0.00     0.138 C 
BRANCH  15  16
HETATM   16  C   UNK N   1      33.539  16.297   5.733  0.00  0.00     0.134 C 
HETATM   17 Cl   UNK N   1      33.069  17.624   4.647  0.00  0.00    -0.129 Cl
ENDBRANCH  15  16
ENDBRANCH  11  15
ENDBRANCH   5  11
TORSDOF 5
ENDMDL
MODEL 2
REMARK VINA RESULT:      -4.9      2.141      3.148
REMARK  5 active torsions:
REMARK  status: ('A' for Active; 'I' for Inactive)
REMARK    1  A    between atoms: N_5  and  C_8 
REMARK    2  A    between atoms: N_5  and  C_9 
REMARK    3  A    between atoms: N_5  and  C_10 
REMARK    4  A    between atoms: C_8  and  C_11 
REMARK    5  A    between atoms: C_9  and  C_12 
ROOT
HETATM    1  O   UNK N   1      32.052  15.066   9.249  0.00  0.00    -0.266 OA
HETATM    2  O   UNK N   1      35.746  17.305  10.257  0.00  0.00    -0.247 OA
HETATM    3  N   UNK N   1      33.889  16.164   9.762  0.00  0.00    -0.274 N 
HETATM    4  N   UNK N   1      34.432  18.174   8.673  0.00  0.00    -0.316 N 
HETATM    5  C   UNK N   1      32.386  17.023   8.049  0.00  0.00     0.115 A 
HETATM    6  C   UNK N   1      32.737  16.033   9.030  0.00  0.00     0.277 A 
HETATM    7  C   UNK N   1      33.303  18.084   7.927  0.00  0.00     0.128 A 
HETATM    8  C   UNK N   1      34.730  17.218   9.590  0.00  0.00     0.327 A 
HETATM    9  H   UNK N   1      34.113  15.476  10.429  0.00  0.00     0.173 HD
HETATM   10  H   UNK N   1      35.040  18.938   8.548  0.00  0.00     0.170 HD
ENDROOT
BRANCH   5  11
HETATM   11  N   UNK N   1      31.182  17.022   7.185  0.00  0.00    -0.373 N 
BRANCH  11  12
HETATM   12  C   UNK N   1      29.846  17.560   7.459  0.00  0.00     0.138 C 
BRANCH  12  13
HETATM   13  C   UNK N   1      29.098  17.459   8.760  0.00  0.00     0.134 C 
HETATM   14 Cl   UNK N   1      29.724  18.707   9.862  0.00  0.00    -0.129 Cl
ENDBRANCH  12  13
ENDBRANCH  11  12
BRANCH  11  15
HETATM   15  C   UNK N   1      31.168  16.439   5.838  0.00  0.00     0.138 C 
BRANCH  15  16
HETATM   16  C   UNK N   1      31.209  17.289   4.583  0.00  0.00     0.134 C 
HETATM   17 Cl   UNK N   1      32.908  17.707   4.263  0.00  0.00    -0.129 Cl
ENDBRANCH  15  16
ENDBRANCH  11  15
ENDBRANCH   5  11
TORSDOF 5
ENDMDL
MODEL 3
REMARK VINA RESULT:      -4.9      2.108      4.027
REMARK  5 active torsions:
REMARK  status: ('A' for Active; 'I' for Inactive)
REMARK    1  A    between atoms: N_5  and  C_8 
REMARK    2  A    between atoms: N_5  and  C_9 
REMARK    3  A    between atoms: N_5  and  C_10 
REMARK    4  A    between atoms: C_8  and  C_11 
REMARK    5  A    between atoms: C_9  and  C_12 
ROOT
HETATM    1  O   UNK N   1      32.057  15.063   9.218  0.00  0.00    -0.266 OA
HETATM    2  O   UNK N   1      35.740  17.284  10.302  0.00  0.00    -0.247 OA
HETATM    3  N   UNK N   1      33.888  16.152   9.769  0.00  0.00    -0.274 N 
HETATM    4  N   UNK N   1      34.481  18.142   8.668  0.00  0.00    -0.316 N 
HETATM    5  C   UNK N   1      32.444  16.999   8.001  0.00  0.00     0.115 A 
HETATM    6  C   UNK N   1      32.757  16.021   9.005  0.00  0.00     0.277 A 
HETATM    7  C   UNK N   1      33.373  18.051   7.891  0.00  0.00     0.128 A 
HETATM    8  C   UNK N   1      34.743  17.197   9.607  0.00  0.00     0.327 A 
HETATM    9  H   UNK N   1      34.086  15.472  10.453  0.00  0.00     0.173 HD
HETATM   10  H   UNK N   1      35.099  18.898   8.550  0.00  0.00     0.170 HD
ENDROOT
BRANCH   5  11
HETATM   11  N   UNK N   1      31.266  16.996   7.101  0.00  0.00    -0.373 N 
BRANCH  11  12
HETATM   12  C   UNK N   1      31.157  16.510   5.722  0.00  0.00     0.138 C 
BRANCH  12  13
HETATM   13  C   UNK N   1      31.275  17.342   4.475  0.00  0.00     0.134 C 
HETATM   14 Cl   UNK N   1      32.994  17.718   4.215  0.00  0.00    -0.129 Cl
ENDBRANCH  12  13
ENDBRANCH  11  12
BRANCH  11  15
HETATM   15  C   UNK N   1      29.954  17.518   7.502  0.00  0.00     0.138 C 
BRANCH  15  16
HETATM   16  C   UNK N   1      29.731  18.229   8.823  0.00  0.00     0.134 C 
HETATM   17 Cl   UNK N   1      28.057  17.917   9.335  0.00  0.00    -0.129 Cl
ENDBRANCH  15  16
ENDBRANCH  11  15
ENDBRANCH   5  11
TORSDOF 5
ENDMDL
MODEL 4
REMARK VINA RESULT:      -4.8      0.949      2.465
REMARK  5 active torsions:
REMARK  status: ('A' for Active; 'I' for Inactive)
REMARK    1  A    between atoms: N_5  and  C_8 
REMARK    2  A    between atoms: N_5  and  C_9 
REMARK    3  A    between atoms: N_5  and  C_10 
REMARK    4  A    between atoms: C_8  and  C_11 
REMARK    5  A    between atoms: C_9  and  C_12 
ROOT
HETATM    1  O   UNK N   1      35.474  17.804   9.823  0.00  0.00    -0.266 OA
HETATM    2  O   UNK N   1      35.590  14.332  12.581  0.00  0.00    -0.247 OA
HETATM    3  N   UNK N   1      35.546  16.089  11.200  0.00  0.00    -0.274 N 
HETATM    4  N   UNK N   1      34.019  14.315  10.992  0.00  0.00    -0.316 N 
HETATM    5  C   UNK N   1      33.874  16.171   9.432  0.00  0.00     0.115 A 
HETATM    6  C   UNK N   1      34.989  16.745  10.133  0.00  0.00     0.277 A 
HETATM    7  C   UNK N   1      33.438  14.929   9.933  0.00  0.00     0.128 A 
HETATM    8  C   UNK N   1      35.072  14.889  11.629  0.00  0.00     0.327 A 
HETATM    9  H   UNK N   1      36.310  16.498  11.668  0.00  0.00     0.173 HD
HETATM   10  H   UNK N   1      33.675  13.447  11.302  0.00  0.00     0.170 HD
ENDROOT
BRANCH   5  11
HETATM   11  N   UNK N   1      33.167  16.755   8.268  0.00  0.00    -0.373 N 
BRANCH  11  12
HETATM   12  C   UNK N   1      33.269  16.396   6.850  0.00  0.00     0.138 C 
BRANCH  12  13
HETATM   13  C   UNK N   1      33.727  17.297   5.736  0.00  0.00     0.134 C 
HETATM   14 Cl   UNK N   1      32.358  17.563   4.633  0.00  0.00    -0.129 Cl
ENDBRANCH  12  13
ENDBRANCH  11  12
BRANCH  11  15
HETATM   15  C   UNK N   1      32.198  17.851   8.390  0.00  0.00     0.138 C 
BRANCH  15  16
HETATM   16  C   UNK N   1      30.700  17.618   8.365  0.00  0.00     0.134 C 
HETATM   17 Cl   UNK N   1      29.956  18.727   9.541  0.00  0.00    -0.129 Cl
ENDBRANCH  15  16
ENDBRANCH  11  15
ENDBRANCH   5  11
TORSDOF 5
ENDMDL
MODEL 5
REMARK VINA RESULT:      -4.7     10.981     11.933
REMARK  5 active torsions:
REMARK  status: ('A' for Active; 'I' for Inactive)
REMARK    1  A    between atoms: N_5  and  C_8 
REMARK    2  A    between atoms: N_5  and  C_9 
REMARK    3  A    between atoms: N_5  and  C_10 
REMARK    4  A    between atoms: C_8  and  C_11 
REMARK    5  A    between atoms: C_9  and  C_12 
ROOT
HETATM    1  O   UNK N   1      24.670  13.034   9.563  0.00  0.00    -0.266 OA
HETATM    2  O   UNK N   1      23.556  11.687  13.639  0.00  0.00    -0.247 OA
HETATM    3  N   UNK N   1      24.135  12.366  11.591  0.00  0.00    -0.274 N 
HETATM    4  N   UNK N   1      21.899  11.917  12.158  0.00  0.00    -0.316 N 
HETATM    5  C   UNK N   1      22.407  12.650   9.898  0.00  0.00     0.115 A 
HETATM    6  C   UNK N   1      23.783  12.702  10.308  0.00  0.00     0.277 A 
HETATM    7  C   UNK N   1      21.507  12.240  10.901  0.00  0.00     0.128 A 
HETATM    8  C   UNK N   1      23.210  11.978  12.508  0.00  0.00     0.327 A 
HETATM    9  H   UNK N   1      25.083  12.407  11.853  0.00  0.00     0.173 HD
HETATM   10  H   UNK N   1      21.229  11.637  12.821  0.00  0.00     0.170 HD
ENDROOT
BRANCH   5  11
HETATM   11  N   UNK N   1      21.872  12.980   8.556  0.00  0.00    -0.373 N 
BRANCH  11  12
HETATM   12  C   UNK N   1      21.325  14.249   8.066  0.00  0.00     0.138 C 
BRANCH  12  13
HETATM   13  C   UNK N   1      20.601  15.281   8.886  0.00  0.00     0.134 C 
HETATM   14 Cl   UNK N   1      19.765  16.390   7.775  0.00  0.00    -0.129 Cl
ENDBRANCH  12  13
ENDBRANCH  11  12
BRANCH  11  15
HETATM   15  C   UNK N   1      21.815  12.008   7.459  0.00  0.00     0.138 C 
BRANCH  15  16
HETATM   16  C   UNK N   1      23.060  11.506   6.751  0.00  0.00     0.134 C 
HETATM   17 Cl   UNK N   1      23.691  10.122   7.672  0.00  0.00    -0.129 Cl
ENDBRANCH  15  16
ENDBRANCH  11  15
ENDBRANCH   5  11
TORSDOF 5
ENDMDL
MODEL 6
REMARK VINA RESULT:      -4.7      2.278      4.130
REMARK  5 active torsions:
REMARK  status: ('A' for Active; 'I' for Inactive)
REMARK    1  A    between atoms: N_5  and  C_8 
REMARK    2  A    between atoms: N_5  and  C_9 
REMARK    3  A    between atoms: N_5  and  C_10 
REMARK    4  A    between atoms: C_8  and  C_11 
REMARK    5  A    between atoms: C_9  and  C_12 
ROOT
HETATM    1  O   UNK N   1      34.059  17.957   5.782  0.00  0.00    -0.266 OA
HETATM    2  O   UNK N   1      35.252  17.457  10.024  0.00  0.00    -0.247 OA
HETATM    3  N   UNK N   1      34.667  17.717   7.883  0.00  0.00    -0.274 N 
HETATM    4  N   UNK N   1      33.263  16.635   9.425  0.00  0.00    -0.316 N 
HETATM    5  C   UNK N   1      32.519  16.859   7.124  0.00  0.00     0.115 A 
HETATM    6  C   UNK N   1      33.762  17.533   6.870  0.00  0.00     0.277 A 
HETATM    7  C   UNK N   1      32.339  16.431   8.454  0.00  0.00     0.128 A 
HETATM    8  C   UNK N   1      34.427  17.277   9.147  0.00  0.00     0.327 A 
HETATM    9  H   UNK N   1      35.514  18.181   7.690  0.00  0.00     0.173 HD
HETATM   10  H   UNK N   1      33.088  16.316  10.340  0.00  0.00     0.170 HD
ENDROOT
BRANCH   5  11
HETATM   11  N   UNK N   1      31.445  16.584   6.140  0.00  0.00    -0.373 N 
BRANCH  11  12
HETATM   12  C   UNK N   1      31.411  15.591   5.062  0.00  0.00     0.138 C 
BRANCH  12  13
HETATM   13  C   UNK N   1      32.342  15.527   3.883  0.00  0.00     0.134 C 
HETATM   14 Cl   UNK N   1      32.243  17.072   3.008  0.00  0.00    -0.129 Cl
ENDBRANCH  12  13
ENDBRANCH  11  12
BRANCH  11  15
HETATM   15  C   UNK N   1      30.179  17.327   6.112  0.00  0.00     0.138 C 
BRANCH  15  16
HETATM   16  C   UNK N   1      28.916  16.804   6.768  0.00  0.00     0.134 C 
HETATM   17 Cl   UNK N   1      28.724  17.640   8.327  0.00  0.00    -0.129 Cl
ENDBRANCH  15  16
ENDBRANCH  11  15
ENDBRANCH   5  11
TORSDOF 5
ENDMDL
MODEL 7
REMARK VINA RESULT:      -4.7     14.928     16.801
REMARK  5 active torsions:
REMARK  status: ('A' for Active; 'I' for Inactive)
REMARK    1  A    between atoms: N_5  and  C_8 
REMARK    2  A    between atoms: N_5  and  C_9 
REMARK    3  A    between atoms: N_5  and  C_10 
REMARK    4  A    between atoms: C_8  and  C_11 
REMARK    5  A    between atoms: C_9  and  C_12 
ROOT
HETATM    1  O   UNK N   1      26.509  23.774  -2.865  0.00  0.00    -0.266 OA
HETATM    2  O   UNK N   1      30.669  22.850  -1.632  0.00  0.00    -0.247 OA
HETATM    3  N   UNK N   1      28.566  23.304  -2.240  0.00  0.00    -0.274 N 
HETATM    4  N   UNK N   1      30.407  24.262  -3.344  0.00  0.00    -0.316 N 
HETATM    5  C   UNK N   1      28.167  24.831  -4.094  0.00  0.00     0.115 A 
HETATM    6  C   UNK N   1      27.684  23.961  -3.058  0.00  0.00     0.277 A 
HETATM    7  C   UNK N   1      29.570  24.931  -4.175  0.00  0.00     0.128 A 
HETATM    8  C   UNK N   1      29.911  23.448  -2.376  0.00  0.00     0.327 A 
HETATM    9  H   UNK N   1      28.216  22.712  -1.536  0.00  0.00     0.173 HD
HETATM   10  H   UNK N   1      31.380  24.367  -3.443  0.00  0.00     0.170 HD
ENDROOT
BRANCH   5  11
HETATM   11  N   UNK N   1      27.345  25.606  -5.053  0.00  0.00    -0.373 N 
BRANCH  11  12
HETATM   12  C   UNK N   1      26.536  26.806  -4.818  0.00  0.00     0.138 C 
BRANCH  12  13
HETATM   13  C   UNK N   1      26.086  27.327  -3.480  0.00  0.00     0.134 C 
HETATM   14 Cl   UNK N   1      26.176  29.102  -3.514  0.00  0.00    -0.129 Cl
ENDBRANCH  12  13
ENDBRANCH  11  12
BRANCH  11  15
HETATM   15  C   UNK N   1      27.223  25.248  -6.471  0.00  0.00     0.138 C 
BRANCH  15  16
HETATM   16  C   UNK N   1      27.180  23.808  -6.945  0.00  0.00     0.134 C 
HETATM   17 Cl   UNK N   1      25.742  23.041  -6.233  0.00  0.00    -0.129 Cl
ENDBRANCH  15  16
ENDBRANCH  11  15
ENDBRANCH   5  11
TORSDOF 5
ENDMDL
MODEL 8
REMARK VINA RESULT:      -4.7     15.049     16.983
REMARK  5 active torsions:
REMARK  status: ('A' for Active; 'I' for Inactive)
REMARK    1  A    between atoms: N_5  and  C_8 
REMARK    2  A    between atoms: N_5  and  C_9 
REMARK    3  A    between atoms: N_5  and  C_10 
REMARK    4  A    between atoms: C_8  and  C_11 
REMARK    5  A    between atoms: C_9  and  C_12 
ROOT
HETATM    1  O   UNK N   1      26.772  23.797  -2.759  0.00  0.00    -0.266 OA
HETATM    2  O   UNK N   1      30.929  22.695  -1.674  0.00  0.00    -0.247 OA
HETATM    3  N   UNK N   1      28.828  23.240  -2.207  0.00  0.00    -0.274 N 
HETATM    4  N   UNK N   1      30.664  24.072  -3.415  0.00  0.00    -0.316 N 
HETATM    5  C   UNK N   1      28.426  24.734  -4.087  0.00  0.00     0.115 A 
HETATM    6  C   UNK N   1      27.945  23.919  -3.007  0.00  0.00     0.277 A 
HETATM    7  C   UNK N   1      29.827  24.760  -4.229  0.00  0.00     0.128 A 
HETATM    8  C   UNK N   1      30.172  23.311  -2.403  0.00  0.00     0.327 A 
HETATM    9  H   UNK N   1      28.480  22.686  -1.471  0.00  0.00     0.173 HD
HETATM   10  H   UNK N   1      31.637  24.124  -3.557  0.00  0.00     0.170 HD
ENDROOT
BRANCH   5  11
HETATM   11  N   UNK N   1      27.603  25.524  -5.033  0.00  0.00    -0.373 N 
BRANCH  11  12
HETATM   12  C   UNK N   1      27.439  25.355  -6.480  0.00  0.00     0.138 C 
BRANCH  12  13
HETATM   13  C   UNK N   1      26.458  24.443  -7.164  0.00  0.00     0.134 C 
HETATM   14 Cl   UNK N   1      25.747  23.369  -5.937  0.00  0.00    -0.129 Cl
ENDBRANCH  12  13
ENDBRANCH  11  12
BRANCH  11  15
HETATM   15  C   UNK N   1      26.780  26.664  -4.615  0.00  0.00     0.138 C 
BRANCH  15  16
HETATM   16  C   UNK N   1      26.163  27.630  -5.608  0.00  0.00     0.134 C 
HETATM   17 Cl   UNK N   1      24.429  27.254  -5.729  0.00  0.00    -0.129 Cl
ENDBRANCH  15  16
ENDBRANCH  11  15
ENDBRANCH   5  11
TORSDOF 5
ENDMDL
MODEL 9
REMARK VINA RESULT:      -4.5      2.529      3.480
REMARK  5 active torsions:
REMARK  status: ('A' for Active; 'I' for Inactive)
REMARK    1  A    between atoms: N_5  and  C_8 
REMARK    2  A    between atoms: N_5  and  C_9 
REMARK    3  A    between atoms: N_5  and  C_10 
REMARK    4  A    between atoms: C_8  and  C_11 
REMARK    5  A    between atoms: C_9  and  C_12 
ROOT
HETATM    1  O   UNK N   1      34.042  17.943   5.986  0.00  0.00    -0.266 OA
HETATM    2  O   UNK N   1      35.466  17.528  10.166  0.00  0.00    -0.247 OA
HETATM    3  N   UNK N   1      34.764  17.748   8.056  0.00  0.00    -0.274 N 
HETATM    4  N   UNK N   1      33.561  16.489   9.634  0.00  0.00    -0.316 N 
HETATM    5  C   UNK N   1      32.698  16.656   7.369  0.00  0.00     0.115 A 
HETATM    6  C   UNK N   1      33.843  17.473   7.077  0.00  0.00     0.277 A 
HETATM    7  C   UNK N   1      32.627  16.192   8.697  0.00  0.00     0.128 A 
HETATM    8  C   UNK N   1      34.630  17.265   9.320  0.00  0.00     0.327 A 
HETATM    9  H   UNK N   1      35.542  18.310   7.837  0.00  0.00     0.173 HD
HETATM   10  H   UNK N   1      33.463  16.138  10.548  0.00  0.00     0.170 HD
ENDROOT
BRANCH   5  11
HETATM   11  N   UNK N   1      31.622  16.272   6.424  0.00  0.00    -0.373 N 
BRANCH  11  12
HETATM   12  C   UNK N   1      30.728  17.131   5.643  0.00  0.00     0.138 C 
BRANCH  12  13
HETATM   13  C   UNK N   1      29.358  17.597   6.055  0.00  0.00     0.134 C 
HETATM   14 Cl   UNK N   1      29.204  17.388   7.814  0.00  0.00    -0.129 Cl
ENDBRANCH  12  13
ENDBRANCH  11  12
BRANCH  11  15
HETATM   15  C   UNK N   1      31.285  14.876   6.124  0.00  0.00     0.138 C 
BRANCH  15  16
HETATM   16  C   UNK N   1      30.778  14.435   4.764  0.00  0.00     0.134 C 
HETATM   17 Cl   UNK N   1      29.067  13.982   4.941  0.00  0.00    -0.129 Cl
ENDBRANCH  15  16
ENDBRANCH  11  15
ENDBRANCH   5  11
TORSDOF 5
ENDMDL
