REMARK  5 active torsions:
REMARK  status: ('A' for Active; 'I' for Inactive)
REMARK    1  A    between atoms: N_5  and  C_8 
REMARK    2  A    between atoms: N_5  and  C_9 
REMARK    3  A    between atoms: N_5  and  C_10 
REMARK    4  A    between atoms: C_8  and  C_11 
REMARK    5  A    between atoms: C_9  and  C_12 
ROOT
HETATM    1  O   UNK N   1       3.594  -2.302  -0.000  0.00  0.00    -0.266 OA
HETATM    2  O   UNK N   1       8.027  -2.153   0.000  0.00  0.00    -0.247 OA
HETATM    3  N   UNK N   1       5.794  -2.247  -0.000  0.00  0.00    -0.274 N 
HETATM    4  N   UNK N   1       6.945  -0.198   0.000  0.00  0.00    -0.316 N 
HETATM    5  C   UNK N   1       4.516  -0.174  -0.000  0.00  0.00     0.115 A 
HETATM    6  C   UNK N   1       4.580  -1.609  -0.000  0.00  0.00     0.277 A 
HETATM    7  C   UNK N   1       5.767   0.473   0.000  0.00  0.00     0.128 A 
HETATM    8  C   UNK N   1       6.965  -1.556   0.000  0.00  0.00     0.327 A 
HETATM    9  H   UNK N   1       5.818  -3.231  -0.000  0.00  0.00     0.173 HD
HETATM   10  H   UNK N   1       7.792   0.303   0.000  0.00  0.00     0.170 HD
ENDROOT
BRANCH   5  11
HETATM   11  N   UNK N   1       3.288   0.656  -0.000  0.00  0.00    -0.373 N 
BRANCH  11  12
HETATM   12  C   UNK N   1       1.885   0.231  -0.000  0.00  0.00     0.138 C 
BRANCH  12  13
HETATM   13  C   UNK N   1       1.386  -1.188   0.000  0.00  0.00     0.134 C 
HETATM   14 Cl   UNK N   1      -0.392  -1.154   0.000  0.00  0.00    -0.129 Cl
ENDBRANCH  12  13
ENDBRANCH  11  12
BRANCH  11  15
HETATM   15  C   UNK N   1       3.317   2.123  -0.000  0.00  0.00     0.138 C 
BRANCH  15  16
HETATM   16  C   UNK N   1       4.613   2.911   0.000  0.00  0.00     0.134 C 
HETATM   17 Cl   UNK N   1       4.200   4.641   0.000  0.00  0.00    -0.129 Cl
ENDBRANCH  15  16
ENDBRANCH  11  15
ENDBRANCH   5  11
TORSDOF 5
