REMARK  6 active torsions:
REMARK  status: ('A' for Active; 'I' for Inactive)
REMARK    1  A    between atoms: N_1  and  C_5 
REMARK    2  A    between atoms: N_1  and  C_7 
REMARK    3  A    between atoms: N_1  and  C_8 
REMARK    4  A    between atoms: N_2  and  C_6 
REMARK    5  A    between atoms: C_5  and  C_6 
REMARK    6  A    between atoms: C_7  and  C_9 
ROOT
HETATM    1  N   UNK N   1       4.622   0.614   0.004  0.00  0.00    -0.361 N 
ENDROOT
BRANCH   1   2
HETATM    2  C   UNK N   1       4.823  -0.697  -0.575  0.00  0.00     0.155 C 
BRANCH   2   3
HETATM    3  C   UNK N   1       5.149  -1.718   0.498  0.00  0.00     0.291 C 
BRANCH   3   4
HETATM    4  N   UNK N   1       5.386  -3.005  -0.128  0.00  0.00     0.081 N 
HETATM    5  C   UNK N   1       6.700  -3.453   0.294  0.00  0.00     0.309 C 
HETATM    6  C   UNK N   1       4.418  -3.934   0.424  0.00  0.00     0.309 C 
ENDBRANCH   3   4
ENDBRANCH   2   3
ENDBRANCH   1   2
BRANCH   1   7
HETATM    7  C   UNK N   1       3.469   0.888   0.855  0.00  0.00     0.162 C 
BRANCH   7   8
HETATM    8  C   UNK N   1       2.171   0.324   0.352  0.00  0.00    -0.040 A 
HETATM    9  C   UNK N   1       1.952  -1.061   0.356  0.00  0.00     0.009 A 
HETATM   10  C   UNK N   1       0.719  -1.582  -0.044  0.00  0.00     0.001 A 
HETATM   11  C   UNK N   1      -0.308  -0.720  -0.434  0.00  0.00     0.000 A 
HETATM   12  C   UNK N   1      -0.101   0.663  -0.427  0.00  0.00     0.001 A 
HETATM   13  C   UNK N   1       1.136   1.185  -0.028  0.00  0.00     0.009 A 
ENDBRANCH   7   8
ENDBRANCH   1   7
BRANCH   1  14
HETATM   14  C   UNK N   1       5.668   1.579  -0.103  0.00  0.00     0.103 A 
HETATM   15  N   UNK N   1       6.860   1.228  -0.674  0.00  0.00    -0.352 N 
HETATM   16  C   UNK N   1       7.902   2.098  -0.753  0.00  0.00     0.089 A 
ATOM     17  HN  UNK N   1       6.970   0.287  -1.052  1.00  0.00     0.166 HD
HETATM   18  C   UNK N   1       7.774   3.393  -0.252  0.00  0.00     0.017 A 
HETATM   19  C   UNK N   1       6.567   3.783   0.329  0.00  0.00     0.005 A 
HETATM   20  C   UNK N   1       5.511   2.874   0.413  0.00  0.00     0.048 A 
ENDBRANCH   1  14
TORSDOF 6
