MODEL 1
REMARK VINA RESULT:      -5.7      0.000      0.000
REMARK  6 active torsions:
REMARK  status: ('A' for Active; 'I' for Inactive)
REMARK    1  A    between atoms: N_1  and  C_5 
REMARK    2  A    between atoms: N_1  and  C_7 
REMARK    3  A    between atoms: N_1  and  C_8 
REMARK    4  A    between atoms: N_2  and  C_6 
REMARK    5  A    between atoms: C_5  and  C_6 
REMARK    6  A    between atoms: C_7  and  C_9 
ROOT
HETATM    1  N   UNK N   1      33.377  16.787   7.958  0.00  0.00    -0.361 N 
ENDROOT
BRANCH   1   2
HETATM    2  C   UNK N   1      31.971  16.581   8.229  0.00  0.00     0.155 C 
BRANCH   2   3
HETATM    3  C   UNK N   1      31.286  17.893   8.562  0.00  0.00     0.291 C 
BRANCH   3   4
HETATM    4  N   UNK N   1      29.950  17.888   7.995  0.00  0.00     0.081 N 
HETATM    5  C   UNK N   1      29.915  16.844   6.987  0.00  0.00     0.309 C 
HETATM    6  C   UNK N   1      29.038  17.494   9.052  0.00  0.00     0.309 C 
ENDBRANCH   3   4
ENDBRANCH   2   3
ENDBRANCH   1   2
BRANCH   1   7
HETATM    7  C   UNK N   1      33.809  17.633   6.850  0.00  0.00     0.162 C 
BRANCH   7   8
HETATM    8  C   UNK N   1      33.593  17.040   5.487  0.00  0.00    -0.040 A 
HETATM    9  C   UNK N   1      34.120  15.780   5.172  0.00  0.00     0.009 A 
HETATM   10  C   UNK N   1      33.859  15.196   3.929  0.00  0.00     0.001 A 
HETATM   11  C   UNK N   1      33.055  15.862   3.002  0.00  0.00     0.000 A 
HETATM   12  C   UNK N   1      32.514  17.113   3.316  0.00  0.00     0.001 A 
HETATM   13  C   UNK N   1      32.778  17.699   4.560  0.00  0.00     0.009 A 
ENDBRANCH   7   8
ENDBRANCH   1   7
BRANCH   1  14
HETATM   14  C   UNK N   1      34.335  16.316   8.905  0.00  0.00     0.103 A 
HETATM   15  N   UNK N   1      34.533  17.004  10.070  0.00  0.00    -0.352 N 
HETATM   16  C   UNK N   1      35.469  16.622  10.979  0.00  0.00     0.089 A 
ATOM     17  HN  UNK N   1      33.961  17.827  10.263  1.00  0.00     0.166 HD
HETATM   18  C   UNK N   1      36.257  15.496  10.744  0.00  0.00     0.017 A 
HETATM   19  C   UNK N   1      36.073  14.769   9.567  0.00  0.00     0.005 A 
HETATM   20  C   UNK N   1      35.116  15.181   8.639  0.00  0.00     0.048 A 
ENDBRANCH   1  14
TORSDOF 6
ENDMDL
MODEL 2
REMARK VINA RESULT:      -5.6      0.946      4.374
REMARK  6 active torsions:
REMARK  status: ('A' for Active; 'I' for Inactive)
REMARK    1  A    between atoms: N_1  and  C_5 
REMARK    2  A    between atoms: N_1  and  C_7 
REMARK    3  A    between atoms: N_1  and  C_8 
REMARK    4  A    between atoms: N_2  and  C_6 
REMARK    5  A    between atoms: C_5  and  C_6 
REMARK    6  A    between atoms: C_7  and  C_9 
ROOT
HETATM    1  N   UNK N   1      32.566  16.944   7.835  0.00  0.00    -0.361 N 
ENDROOT
BRANCH   1   2
HETATM    2  C   UNK N   1      32.945  15.668   8.403  0.00  0.00     0.155 C 
BRANCH   2   3
HETATM    3  C   UNK N   1      34.372  15.707   8.916  0.00  0.00     0.291 C 
BRANCH   3   4
HETATM    4  N   UNK N   1      34.354  15.753  10.366  0.00  0.00     0.081 N 
HETATM    5  C   UNK N   1      34.598  14.404  10.841  0.00  0.00     0.309 C 
HETATM    6  C   UNK N   1      35.482  16.565  10.782  0.00  0.00     0.309 C 
ENDBRANCH   3   4
ENDBRANCH   2   3
ENDBRANCH   1   2
BRANCH   1   7
HETATM    7  C   UNK N   1      33.424  17.617   6.866  0.00  0.00     0.162 C 
BRANCH   7   8
HETATM    8  C   UNK N   1      33.367  17.049   5.477  0.00  0.00    -0.040 A 
HETATM    9  C   UNK N   1      34.010  15.839   5.180  0.00  0.00     0.009 A 
HETATM   10  C   UNK N   1      33.897  15.273   3.907  0.00  0.00     0.001 A 
HETATM   11  C   UNK N   1      33.127  15.906   2.929  0.00  0.00     0.000 A 
HETATM   12  C   UNK N   1      32.472  17.106   3.223  0.00  0.00     0.001 A 
HETATM   13  C   UNK N   1      32.587  17.674   4.498  0.00  0.00     0.009 A 
ENDBRANCH   7   8
ENDBRANCH   1   7
BRANCH   1  14
HETATM   14  C   UNK N   1      31.250  17.440   8.080  0.00  0.00     0.103 A 
HETATM   15  N   UNK N   1      31.001  18.177   9.205  0.00  0.00    -0.352 N 
HETATM   16  C   UNK N   1      29.755  18.629   9.506  0.00  0.00     0.089 A 
ATOM     17  HN  UNK N   1      31.773  18.395   9.835  1.00  0.00     0.166 HD
HETATM   18  C   UNK N   1      28.684  18.352   8.656  0.00  0.00     0.017 A 
HETATM   19  C   UNK N   1      28.909  17.609   7.496  0.00  0.00     0.005 A 
HETATM   20  C   UNK N   1      30.193  17.143   7.208  0.00  0.00     0.048 A 
ENDBRANCH   1  14
TORSDOF 6
ENDMDL
MODEL 3
REMARK VINA RESULT:      -5.5     13.427     17.134
REMARK  6 active torsions:
REMARK  status: ('A' for Active; 'I' for Inactive)
REMARK    1  A    between atoms: N_1  and  C_5 
REMARK    2  A    between atoms: N_1  and  C_7 
REMARK    3  A    between atoms: N_1  and  C_8 
REMARK    4  A    between atoms: N_2  and  C_6 
REMARK    5  A    between atoms: C_5  and  C_6 
REMARK    6  A    between atoms: C_7  and  C_9 
ROOT
HETATM    1  N   UNK N   1      27.206  23.576  -5.680  0.00  0.00    -0.361 N 
ENDROOT
BRANCH   1   2
HETATM    2  C   UNK N   1      28.492  24.200  -5.901  0.00  0.00     0.155 C 
BRANCH   2   3
HETATM    3  C   UNK N   1      29.436  23.918  -4.747  0.00  0.00     0.291 C 
BRANCH   3   4
HETATM    4  N   UNK N   1      29.740  22.500  -4.719  0.00  0.00     0.081 N 
HETATM    5  C   UNK N   1      30.798  22.268  -5.685  0.00  0.00     0.309 C 
HETATM    6  C   UNK N   1      30.285  22.205  -3.407  0.00  0.00     0.309 C 
ENDBRANCH   3   4
ENDBRANCH   2   3
ENDBRANCH   1   2
BRANCH   1   7
HETATM    7  C   UNK N   1      26.373  23.958  -4.544  0.00  0.00     0.162 C 
BRANCH   7   8
HETATM    8  C   UNK N   1      25.988  25.409  -4.509  0.00  0.00    -0.040 A 
HETATM    9  C   UNK N   1      26.452  26.240  -3.479  0.00  0.00     0.009 A 
HETATM   10  C   UNK N   1      26.154  27.605  -3.485  0.00  0.00     0.001 A 
HETATM   11  C   UNK N   1      25.405  28.150  -4.530  0.00  0.00     0.000 A 
HETATM   12  C   UNK N   1      24.951  27.330  -5.568  0.00  0.00     0.001 A 
HETATM   13  C   UNK N   1      25.248  25.961  -5.561  0.00  0.00     0.009 A 
ENDBRANCH   7   8
ENDBRANCH   1   7
BRANCH   1  14
HETATM   14  C   UNK N   1      26.672  22.727  -6.695  0.00  0.00     0.103 A 
HETATM   15  N   UNK N   1      25.321  22.525  -6.771  0.00  0.00    -0.352 N 
HETATM   16  C   UNK N   1      24.771  21.687  -7.689  0.00  0.00     0.089 A 
ATOM     17  HN  UNK N   1      24.710  23.019  -6.121  1.00  0.00     0.166 HD
HETATM   18  C   UNK N   1      25.585  21.008  -8.596  0.00  0.00     0.017 A 
HETATM   19  C   UNK N   1      26.966  21.200  -8.548  0.00  0.00     0.005 A 
HETATM   20  C   UNK N   1      27.516  22.055  -7.592  0.00  0.00     0.048 A 
ENDBRANCH   1  14
TORSDOF 6
ENDMDL
MODEL 4
REMARK VINA RESULT:      -5.4      2.405      5.792
REMARK  6 active torsions:
REMARK  status: ('A' for Active; 'I' for Inactive)
REMARK    1  A    between atoms: N_1  and  C_5 
REMARK    2  A    between atoms: N_1  and  C_7 
REMARK    3  A    between atoms: N_1  and  C_8 
REMARK    4  A    between atoms: N_2  and  C_6 
REMARK    5  A    between atoms: C_5  and  C_6 
REMARK    6  A    between atoms: C_7  and  C_9 
ROOT
HETATM    1  N   UNK N   1      30.694  16.902   6.546  0.00  0.00    -0.361 N 
ENDROOT
BRANCH   1   2
HETATM    2  C   UNK N   1      31.432  17.429   7.674  0.00  0.00     0.155 C 
BRANCH   2   3
HETATM    3  C   UNK N   1      32.271  16.346   8.324  0.00  0.00     0.291 C 
BRANCH   3   4
HETATM    4  N   UNK N   1      33.644  16.803   8.421  0.00  0.00     0.081 N 
HETATM    5  C   UNK N   1      34.414  16.065   7.437  0.00  0.00     0.309 C 
HETATM    6  C   UNK N   1      33.660  18.197   8.019  0.00  0.00     0.309 C 
ENDBRANCH   3   4
ENDBRANCH   2   3
ENDBRANCH   1   2
BRANCH   1   7
HETATM    7  C   UNK N   1      29.235  16.917   6.533  0.00  0.00     0.162 C 
BRANCH   7   8
HETATM    8  C   UNK N   1      28.625  18.245   6.185  0.00  0.00    -0.040 A 
HETATM    9  C   UNK N   1      28.491  18.634   4.845  0.00  0.00     0.009 A 
HETATM   10  C   UNK N   1      27.860  19.837   4.518  0.00  0.00     0.001 A 
HETATM   11  C   UNK N   1      27.343  20.649   5.529  0.00  0.00     0.000 A 
HETATM   12  C   UNK N   1      27.461  20.261   6.868  0.00  0.00     0.001 A 
HETATM   13  C   UNK N   1      28.096  19.056   7.195  0.00  0.00     0.009 A 
ENDBRANCH   7   8
ENDBRANCH   1   7
BRANCH   1  14
HETATM   14  C   UNK N   1      31.408  16.551   5.362  0.00  0.00     0.103 A 
HETATM   15  N   UNK N   1      31.485  15.240   4.978  0.00  0.00    -0.352 N 
HETATM   16  C   UNK N   1      32.195  14.852   3.886  0.00  0.00     0.089 A 
ATOM     17  HN  UNK N   1      30.993  14.534   5.526  1.00  0.00     0.166 HD
HETATM   18  C   UNK N   1      32.868  15.799   3.114  0.00  0.00     0.017 A 
HETATM   19  C   UNK N   1      32.802  17.145   3.475  0.00  0.00     0.005 A 
HETATM   20  C   UNK N   1      32.078  17.525   4.607  0.00  0.00     0.048 A 
ENDBRANCH   1  14
TORSDOF 6
ENDMDL
MODEL 5
REMARK VINA RESULT:      -5.3     14.437     17.967
REMARK  6 active torsions:
REMARK  status: ('A' for Active; 'I' for Inactive)
REMARK    1  A    between atoms: N_1  and  C_5 
REMARK    2  A    between atoms: N_1  and  C_7 
REMARK    3  A    between atoms: N_1  and  C_8 
REMARK    4  A    between atoms: N_2  and  C_6 
REMARK    5  A    between atoms: C_5  and  C_6 
REMARK    6  A    between atoms: C_7  and  C_9 
ROOT
HETATM    1  N   UNK N   1      25.741  25.488  -5.210  0.00  0.00    -0.361 N 
ENDROOT
BRANCH   1   2
HETATM    2  C   UNK N   1      26.570  25.162  -4.070  0.00  0.00     0.155 C 
BRANCH   2   3
HETATM    3  C   UNK N   1      28.027  25.050  -4.475  0.00  0.00     0.291 C 
BRANCH   3   4
HETATM    4  N   UNK N   1      28.517  23.731  -4.123  0.00  0.00     0.081 N 
HETATM    5  C   UNK N   1      29.042  23.130  -5.335  0.00  0.00     0.309 C 
HETATM    6  C   UNK N   1      29.635  23.917  -3.217  0.00  0.00     0.309 C 
ENDBRANCH   3   4
ENDBRANCH   2   3
ENDBRANCH   1   2
BRANCH   1   7
HETATM    7  C   UNK N   1      25.141  26.811  -5.346  0.00  0.00     0.162 C 
BRANCH   7   8
HETATM    8  C   UNK N   1      26.106  27.953  -5.209  0.00  0.00    -0.040 A 
HETATM    9  C   UNK N   1      27.064  28.194  -6.203  0.00  0.00     0.009 A 
HETATM   10  C   UNK N   1      27.915  29.299  -6.111  0.00  0.00     0.001 A 
HETATM   11  C   UNK N   1      27.800  30.179  -5.033  0.00  0.00     0.000 A 
HETATM   12  C   UNK N   1      26.836  29.952  -4.045  0.00  0.00     0.001 A 
HETATM   13  C   UNK N   1      25.985  28.843  -4.136  0.00  0.00     0.009 A 
ENDBRANCH   7   8
ENDBRANCH   1   7
BRANCH   1  14
HETATM   14  C   UNK N   1      25.679  24.567  -6.299  0.00  0.00     0.103 A 
HETATM   15  N   UNK N   1      25.487  23.236  -6.053  0.00  0.00    -0.352 N 
HETATM   16  C   UNK N   1      25.471  22.315  -7.054  0.00  0.00     0.089 A 
ATOM     17  HN  UNK N   1      25.351  22.925  -5.091  1.00  0.00     0.166 HD
HETATM   18  C   UNK N   1      25.646  22.716  -8.378  0.00  0.00     0.017 A 
HETATM   19  C   UNK N   1      25.836  24.069  -8.661  0.00  0.00     0.005 A 
HETATM   20  C   UNK N   1      25.861  25.000  -7.621  0.00  0.00     0.048 A 
ENDBRANCH   1  14
TORSDOF 6
ENDMDL
MODEL 6
REMARK VINA RESULT:      -5.3      5.297      9.690
REMARK  6 active torsions:
REMARK  status: ('A' for Active; 'I' for Inactive)
REMARK    1  A    between atoms: N_1  and  C_5 
REMARK    2  A    between atoms: N_1  and  C_7 
REMARK    3  A    between atoms: N_1  and  C_8 
REMARK    4  A    between atoms: N_2  and  C_6 
REMARK    5  A    between atoms: C_5  and  C_6 
REMARK    6  A    between atoms: C_7  and  C_9 
ROOT
HETATM    1  N   UNK N   1      35.495  13.012  13.300  0.00  0.00    -0.361 N 
ENDROOT
BRANCH   1   2
HETATM    2  C   UNK N   1      34.656  11.834  13.335  0.00  0.00     0.155 C 
BRANCH   2   3
HETATM    3  C   UNK N   1      35.463  10.586  13.036  0.00  0.00     0.291 C 
BRANCH   3   4
HETATM    4  N   UNK N   1      34.902   9.470  13.774  0.00  0.00     0.081 N 
HETATM    5  C   UNK N   1      35.606   8.275  13.347  0.00  0.00     0.309 C 
HETATM    6  C   UNK N   1      35.221   9.679  15.174  0.00  0.00     0.309 C 
ENDBRANCH   3   4
ENDBRANCH   2   3
ENDBRANCH   1   2
BRANCH   1   7
HETATM    7  C   UNK N   1      36.707  13.093  14.108  0.00  0.00     0.162 C 
BRANCH   7   8
HETATM    8  C   UNK N   1      36.527  13.759  15.442  0.00  0.00    -0.040 A 
HETATM    9  C   UNK N   1      37.206  14.951  15.735  0.00  0.00     0.009 A 
HETATM   10  C   UNK N   1      36.984  15.610  16.947  0.00  0.00     0.001 A 
HETATM   11  C   UNK N   1      36.070  15.090  17.866  0.00  0.00     0.000 A 
HETATM   12  C   UNK N   1      35.380  13.909  17.574  0.00  0.00     0.001 A 
HETATM   13  C   UNK N   1      35.603  13.248  16.360  0.00  0.00     0.009 A 
ENDBRANCH   7   8
ENDBRANCH   1   7
BRANCH   1  14
HETATM   14  C   UNK N   1      35.233  14.012  12.316  0.00  0.00     0.103 A 
HETATM   15  N   UNK N   1      34.263  13.802  11.376  0.00  0.00    -0.352 N 
HETATM   16  C   UNK N   1      34.012  14.703  10.389  0.00  0.00     0.089 A 
ATOM     17  HN  UNK N   1      33.712  12.945  11.416  1.00  0.00     0.166 HD
HETATM   18  C   UNK N   1      34.745  15.887  10.318  0.00  0.00     0.017 A 
HETATM   19  C   UNK N   1      35.736  16.134  11.268  0.00  0.00     0.005 A 
HETATM   20  C   UNK N   1      35.990  15.193  12.267  0.00  0.00     0.048 A 
ENDBRANCH   1  14
TORSDOF 6
ENDMDL
MODEL 7
REMARK VINA RESULT:      -5.3      3.254      5.678
REMARK  6 active torsions:
REMARK  status: ('A' for Active; 'I' for Inactive)
REMARK    1  A    between atoms: N_1  and  C_5 
REMARK    2  A    between atoms: N_1  and  C_7 
REMARK    3  A    between atoms: N_1  and  C_8 
REMARK    4  A    between atoms: N_2  and  C_6 
REMARK    5  A    between atoms: C_5  and  C_6 
REMARK    6  A    between atoms: C_7  and  C_9 
ROOT
HETATM    1  N   UNK N   1      29.934  16.708   5.979  0.00  0.00    -0.361 N 
ENDROOT
BRANCH   1   2
HETATM    2  C   UNK N   1      29.908  15.665   4.976  0.00  0.00     0.155 C 
BRANCH   2   3
HETATM    3  C   UNK N   1      28.566  14.959   4.965  0.00  0.00     0.291 C 
BRANCH   3   4
HETATM    4  N   UNK N   1      28.102  14.845   3.595  0.00  0.00     0.081 N 
HETATM    5  C   UNK N   1      26.789  15.459   3.534  0.00  0.00     0.309 C 
HETATM    6  C   UNK N   1      28.989  15.647   2.774  0.00  0.00     0.309 C 
ENDBRANCH   3   4
ENDBRANCH   2   3
ENDBRANCH   1   2
BRANCH   1   7
HETATM    7  C   UNK N   1      28.703  17.167   6.614  0.00  0.00     0.162 C 
BRANCH   7   8
HETATM    8  C   UNK N   1      28.223  18.512   6.149  0.00  0.00    -0.040 A 
HETATM    9  C   UNK N   1      28.032  18.763   4.783  0.00  0.00     0.009 A 
HETATM   10  C   UNK N   1      27.517  19.989   4.355  0.00  0.00     0.001 A 
HETATM   11  C   UNK N   1      27.173  20.965   5.292  0.00  0.00     0.000 A 
HETATM   12  C   UNK N   1      27.347  20.717   6.657  0.00  0.00     0.001 A 
HETATM   13  C   UNK N   1      27.866  19.488   7.086  0.00  0.00     0.009 A 
ENDBRANCH   7   8
ENDBRANCH   1   7
BRANCH   1  14
HETATM   14  C   UNK N   1      31.196  17.142   6.485  0.00  0.00     0.103 A 
HETATM   15  N   UNK N   1      32.289  17.154   5.664  0.00  0.00    -0.352 N 
HETATM   16  C   UNK N   1      33.521  17.512   6.113  0.00  0.00     0.089 A 
ATOM     17  HN  UNK N   1      32.177  16.887   4.686  1.00  0.00     0.166 HD
HETATM   18  C   UNK N   1      33.700  17.890   7.444  0.00  0.00     0.017 A 
HETATM   19  C   UNK N   1      32.602  17.896   8.304  0.00  0.00     0.005 A 
HETATM   20  C   UNK N   1      31.346  17.514   7.829  0.00  0.00     0.048 A 
ENDBRANCH   1  14
TORSDOF 6
ENDMDL
MODEL 8
REMARK VINA RESULT:      -5.2     13.312     16.617
REMARK  6 active torsions:
REMARK  status: ('A' for Active; 'I' for Inactive)
REMARK    1  A    between atoms: N_1  and  C_5 
REMARK    2  A    between atoms: N_1  and  C_7 
REMARK    3  A    between atoms: N_1  and  C_8 
REMARK    4  A    between atoms: N_2  and  C_6 
REMARK    5  A    between atoms: C_5  and  C_6 
REMARK    6  A    between atoms: C_7  and  C_9 
ROOT
HETATM    1  N   UNK N   1      26.943  24.246  -5.632  0.00  0.00    -0.361 N 
ENDROOT
BRANCH   1   2
HETATM    2  C   UNK N   1      26.047  23.180  -6.024  0.00  0.00     0.155 C 
BRANCH   2   3
HETATM    3  C   UNK N   1      26.370  22.687  -7.421  0.00  0.00     0.291 C 
BRANCH   3   4
HETATM    4  N   UNK N   1      25.172  22.125  -8.016  0.00  0.00     0.081 N 
HETATM    5  C   UNK N   1      25.597  21.224  -9.070  0.00  0.00     0.309 C 
HETATM    6  C   UNK N   1      24.526  21.320  -6.996  0.00  0.00     0.309 C 
ENDBRANCH   3   4
ENDBRANCH   2   3
ENDBRANCH   1   2
BRANCH   1   7
HETATM    7  C   UNK N   1      28.367  24.181  -5.946  0.00  0.00     0.162 C 
BRANCH   7   8
HETATM    8  C   UNK N   1      29.147  23.200  -5.118  0.00  0.00    -0.040 A 
HETATM    9  C   UNK N   1      29.285  23.393  -3.736  0.00  0.00     0.009 A 
HETATM   10  C   UNK N   1      29.948  22.444  -2.954  0.00  0.00     0.001 A 
HETATM   11  C   UNK N   1      30.463  21.290  -3.547  0.00  0.00     0.000 A 
HETATM   12  C   UNK N   1      30.317  21.085  -4.923  0.00  0.00     0.001 A 
HETATM   13  C   UNK N   1      29.653  22.037  -5.707  0.00  0.00     0.009 A 
ENDBRANCH   7   8
ENDBRANCH   1   7
BRANCH   1  14
HETATM   14  C   UNK N   1      26.388  25.454  -5.113  0.00  0.00     0.103 A 
HETATM   15  N   UNK N   1      25.545  26.202  -5.887  0.00  0.00    -0.352 N 
HETATM   16  C   UNK N   1      25.031  27.384  -5.454  0.00  0.00     0.089 A 
ATOM     17  HN  UNK N   1      25.295  25.863  -6.816  1.00  0.00     0.166 HD
HETATM   18  C   UNK N   1      25.350  27.864  -4.184  0.00  0.00     0.017 A 
HETATM   19  C   UNK N   1      26.201  27.119  -3.368  0.00  0.00     0.005 A 
HETATM   20  C   UNK N   1      26.730  25.913  -3.832  0.00  0.00     0.048 A 
ENDBRANCH   1  14
TORSDOF 6
ENDMDL
MODEL 9
REMARK VINA RESULT:      -5.2     13.881     16.733
REMARK  6 active torsions:
REMARK  status: ('A' for Active; 'I' for Inactive)
REMARK    1  A    between atoms: N_1  and  C_5 
REMARK    2  A    between atoms: N_1  and  C_7 
REMARK    3  A    between atoms: N_1  and  C_8 
REMARK    4  A    between atoms: N_2  and  C_6 
REMARK    5  A    between atoms: C_5  and  C_6 
REMARK    6  A    between atoms: C_7  and  C_9 
ROOT
HETATM    1  N   UNK N   1      27.436  23.589  -5.514  0.00  0.00    -0.361 N 
ENDROOT
BRANCH   1   2
HETATM    2  C   UNK N   1      27.163  22.946  -6.782  0.00  0.00     0.155 C 
BRANCH   2   3
HETATM    3  C   UNK N   1      25.730  22.451  -6.839  0.00  0.00     0.291 C 
BRANCH   3   4
HETATM    4  N   UNK N   1      25.226  22.613  -8.190  0.00  0.00     0.081 N 
HETATM    5  C   UNK N   1      25.552  23.963  -8.612  0.00  0.00     0.309 C 
HETATM    6  C   UNK N   1      25.977  21.706  -9.038  0.00  0.00     0.309 C 
ENDBRANCH   3   4
ENDBRANCH   2   3
ENDBRANCH   1   2
BRANCH   1   7
HETATM    7  C   UNK N   1      26.350  23.966  -4.616  0.00  0.00     0.162 C 
BRANCH   7   8
HETATM    8  C   UNK N   1      26.068  25.440  -4.557  0.00  0.00    -0.040 A 
HETATM    9  C   UNK N   1      25.304  26.055  -5.559  0.00  0.00     0.009 A 
HETATM   10  C   UNK N   1      24.981  27.412  -5.468  0.00  0.00     0.001 A 
HETATM   11  C   UNK N   1      25.406  28.156  -4.366  0.00  0.00     0.000 A 
HETATM   12  C   UNK N   1      26.157  27.546  -3.357  0.00  0.00     0.001 A 
HETATM   13  C   UNK N   1      26.483  26.187  -3.449  0.00  0.00     0.009 A 
ENDBRANCH   7   8
ENDBRANCH   1   7
BRANCH   1  14
HETATM   14  C   UNK N   1      28.788  23.670  -5.063  0.00  0.00     0.103 A 
HETATM   15  N   UNK N   1      29.797  23.843  -5.970  0.00  0.00    -0.352 N 
HETATM   16  C   UNK N   1      31.103  23.876  -5.592  0.00  0.00     0.089 A 
ATOM     17  HN  UNK N   1      29.563  23.952  -6.956  1.00  0.00     0.166 HD
HETATM   18  C   UNK N   1      31.448  23.739  -4.248  0.00  0.00     0.017 A 
HETATM   19  C   UNK N   1      30.440  23.568  -3.299  0.00  0.00     0.005 A 
HETATM   20  C   UNK N   1      29.105  23.525  -3.705  0.00  0.00     0.048 A 
ENDBRANCH   1  14
TORSDOF 6
ENDMDL
