MODEL 1
REMARK VINA RESULT:      -4.9      0.000      0.000
REMARK  3 active torsions:
REMARK  status: ('A' for Active; 'I' for Inactive)
REMARK    1  A    between atoms: O_5  and  C_6 
REMARK    2  A    between atoms: O_5  and  C_12 
REMARK    3  A    between atoms: C_12  and  C_13 
ROOT
HETATM    1 Cl   UNK N   1      29.331  15.851   5.757  0.00  0.00    -0.081 Cl
HETATM    2 Cl   UNK N   1      26.791  21.594   6.399  0.00  0.00    -0.082 Cl
HETATM    3 Cl   UNK N   1      27.089  20.247   3.473  0.00  0.00    -0.082 Cl
HETATM    4  C   UNK N   1      28.489  18.042   7.205  0.00  0.00     0.093 A 
HETATM    5  C   UNK N   1      28.625  17.449   5.938  0.00  0.00     0.069 A 
HETATM    6  C   UNK N   1      27.923  19.317   7.315  0.00  0.00     0.064 A 
HETATM    7  C   UNK N   1      27.491  20.002   6.186  0.00  0.00     0.058 A 
HETATM    8  C   UNK N   1      28.190  18.137   4.801  0.00  0.00     0.052 A 
HETATM    9  C   UNK N   1      27.624  19.411   4.919  0.00  0.00     0.057 A 
ENDROOT
BRANCH   4  10
HETATM   10  O   UNK N   1      28.906  17.384   8.305  0.00  0.00    -0.338 OA
BRANCH  10  11
HETATM   11  C   UNK N   1      29.688  17.960   9.281  0.00  0.00     0.270 C 
BRANCH  11  12
HETATM   12  C   UNK N   1      31.019  18.077   8.722  0.00  0.00    -0.069 C 
HETATM   13  C   UNK N   1      32.164  18.020   8.372  0.00  0.00    -0.028 C 
HETATM   14  I   UNK N   1      34.162  17.642   7.991  0.00  0.00     0.018 I 
ENDBRANCH  11  12
ENDBRANCH  10  11
ENDBRANCH   4  10
TORSDOF 3
ENDMDL
MODEL 2
REMARK VINA RESULT:      -4.9      3.333      4.894
REMARK  3 active torsions:
REMARK  status: ('A' for Active; 'I' for Inactive)
REMARK    1  A    between atoms: O_5  and  C_6 
REMARK    2  A    between atoms: O_5  and  C_12 
REMARK    3  A    between atoms: C_12  and  C_13 
ROOT
HETATM    1 Cl   UNK N   1      28.708  16.045   6.154  0.00  0.00    -0.081 Cl
HETATM    2 Cl   UNK N   1      34.227  18.386   8.132  0.00  0.00    -0.082 Cl
HETATM    3 Cl   UNK N   1      33.910  17.242   5.122  0.00  0.00    -0.082 Cl
HETATM    4  C   UNK N   1      30.389  17.197   8.012  0.00  0.00     0.093 A 
HETATM    5  C   UNK N   1      30.243  16.697   6.707  0.00  0.00     0.069 A 
HETATM    6  C   UNK N   1      31.626  17.709   8.421  0.00  0.00     0.064 A 
HETATM    7  C   UNK N   1      32.709  17.730   7.551  0.00  0.00     0.058 A 
HETATM    8  C   UNK N   1      31.332  16.717   5.830  0.00  0.00     0.052 A 
HETATM    9  C   UNK N   1      32.564  17.231   6.246  0.00  0.00     0.057 A 
ENDROOT
BRANCH   4  10
HETATM   10  O   UNK N   1      29.343  17.180   8.861  0.00  0.00    -0.338 OA
BRANCH  10  11
HETATM   11  C   UNK N   1      28.709  18.320   9.304  0.00  0.00     0.270 C 
BRANCH  11  12
HETATM   12  C   UNK N   1      28.192  18.984   8.125  0.00  0.00    -0.069 C 
HETATM   13  C   UNK N   1      27.727  19.683   7.269  0.00  0.00    -0.028 C 
HETATM   14  I   UNK N   1      26.877  21.129   6.056  0.00  0.00     0.018 I 
ENDBRANCH  11  12
ENDBRANCH  10  11
ENDBRANCH   4  10
TORSDOF 3
ENDMDL
MODEL 3
REMARK VINA RESULT:      -4.8      3.494      5.669
REMARK  3 active torsions:
REMARK  status: ('A' for Active; 'I' for Inactive)
REMARK    1  A    between atoms: O_5  and  C_6 
REMARK    2  A    between atoms: O_5  and  C_12 
REMARK    3  A    between atoms: C_12  and  C_13 
ROOT
HETATM    1 Cl   UNK N   1      29.286  18.398   9.385  0.00  0.00    -0.081 Cl
HETATM    2 Cl   UNK N   1      34.013  16.587   5.612  0.00  0.00    -0.082 Cl
HETATM    3 Cl   UNK N   1      34.590  18.456   8.189  0.00  0.00    -0.082 Cl
HETATM    4  C   UNK N   1      30.359  17.080   7.213  0.00  0.00     0.093 A 
HETATM    5  C   UNK N   1      30.600  17.893   8.334  0.00  0.00     0.069 A 
HETATM    6  C   UNK N   1      31.428  16.696   6.395  0.00  0.00     0.064 A 
HETATM    7  C   UNK N   1      32.723  17.107   6.679  0.00  0.00     0.058 A 
HETATM    8  C   UNK N   1      31.903  18.308   8.622  0.00  0.00     0.052 A 
HETATM    9  C   UNK N   1      32.967  17.919   7.799  0.00  0.00     0.057 A 
ENDROOT
BRANCH   4  10
HETATM   10  O   UNK N   1      29.104  16.677   6.931  0.00  0.00    -0.338 OA
BRANCH  10  11
HETATM   11  C   UNK N   1      28.506  16.866   5.704  0.00  0.00     0.270 C 
BRANCH  11  12
HETATM   12  C   UNK N   1      28.109  18.258   5.654  0.00  0.00    -0.069 C 
HETATM   13  C   UNK N   1      27.698  19.376   5.786  0.00  0.00    -0.028 C 
HETATM   14  I   UNK N   1      26.857  21.188   6.327  0.00  0.00     0.018 I 
ENDBRANCH  11  12
ENDBRANCH  10  11
ENDBRANCH   4  10
TORSDOF 3
ENDMDL
MODEL 4
REMARK VINA RESULT:      -4.8      1.626      2.601
REMARK  3 active torsions:
REMARK  status: ('A' for Active; 'I' for Inactive)
REMARK    1  A    between atoms: O_5  and  C_6 
REMARK    2  A    between atoms: O_5  and  C_12 
REMARK    3  A    between atoms: C_12  and  C_13 
ROOT
HETATM    1 Cl   UNK N   1      29.046  17.766   9.257  0.00  0.00    -0.081 Cl
HETATM    2 Cl   UNK N   1      27.227  20.028   3.650  0.00  0.00    -0.082 Cl
HETATM    3 Cl   UNK N   1      26.630  21.685   6.364  0.00  0.00    -0.082 Cl
HETATM    4  C   UNK N   1      28.797  17.681   6.511  0.00  0.00     0.093 A 
HETATM    5  C   UNK N   1      28.541  18.394   7.696  0.00  0.00     0.069 A 
HETATM    6  C   UNK N   1      28.381  18.209   5.283  0.00  0.00     0.064 A 
HETATM    7  C   UNK N   1      27.719  19.428   5.222  0.00  0.00     0.058 A 
HETATM    8  C   UNK N   1      27.875  19.621   7.635  0.00  0.00     0.052 A 
HETATM    9  C   UNK N   1      27.462  20.142   6.404  0.00  0.00     0.057 A 
ENDROOT
BRANCH   4  10
HETATM   10  O   UNK N   1      29.439  16.498   6.563  0.00  0.00    -0.338 OA
BRANCH  10  11
HETATM   11  C   UNK N   1      30.434  16.136   5.681  0.00  0.00     0.270 C 
BRANCH  11  12
HETATM   12  C   UNK N   1      31.652  16.751   6.166  0.00  0.00    -0.069 C 
HETATM   13  C   UNK N   1      32.596  17.211   6.745  0.00  0.00    -0.028 C 
HETATM   14  I   UNK N   1      34.057  17.893   8.042  0.00  0.00     0.018 I 
ENDBRANCH  11  12
ENDBRANCH  10  11
ENDBRANCH   4  10
TORSDOF 3
ENDMDL
MODEL 5
REMARK VINA RESULT:      -4.7     11.208     13.004
REMARK  3 active torsions:
REMARK  status: ('A' for Active; 'I' for Inactive)
REMARK    1  A    between atoms: O_5  and  C_6 
REMARK    2  A    between atoms: O_5  and  C_12 
REMARK    3  A    between atoms: C_12  and  C_13 
ROOT
HETATM    1 Cl   UNK N   1      34.320  10.560  13.117  0.00  0.00    -0.081 Cl
HETATM    2 Cl   UNK N   1      35.372  12.520  19.025  0.00  0.00    -0.082 Cl
HETATM    3 Cl   UNK N   1      34.794   9.397  18.407  0.00  0.00    -0.082 Cl
HETATM    4  C   UNK N   1      34.866  12.462  15.038  0.00  0.00     0.093 A 
HETATM    5  C   UNK N   1      34.613  11.107  14.760  0.00  0.00     0.069 A 
HETATM    6  C   UNK N   1      35.095  12.866  16.358  0.00  0.00     0.064 A 
HETATM    7  C   UNK N   1      35.076  11.943  17.396  0.00  0.00     0.058 A 
HETATM    8  C   UNK N   1      34.594  10.178  15.804  0.00  0.00     0.052 A 
HETATM    9  C   UNK N   1      34.824  10.589  17.121  0.00  0.00     0.057 A 
ENDROOT
BRANCH   4  10
HETATM   10  O   UNK N   1      34.886  13.362  14.036  0.00  0.00    -0.338 OA
BRANCH  10  11
HETATM   11  C   UNK N   1      35.990  14.126  13.725  0.00  0.00     0.270 C 
BRANCH  11  12
HETATM   12  C   UNK N   1      36.613  13.496  12.579  0.00  0.00    -0.069 C 
HETATM   13  C   UNK N   1      37.227  13.142  11.612  0.00  0.00    -0.028 C 
HETATM   14  I   UNK N   1      38.437  12.858   9.958  0.00  0.00     0.018 I 
ENDBRANCH  11  12
ENDBRANCH  10  11
ENDBRANCH   4  10
TORSDOF 3
ENDMDL
MODEL 6
REMARK VINA RESULT:      -4.7      9.524     11.867
REMARK  3 active torsions:
REMARK  status: ('A' for Active; 'I' for Inactive)
REMARK    1  A    between atoms: O_5  and  C_6 
REMARK    2  A    between atoms: O_5  and  C_12 
REMARK    3  A    between atoms: C_12  and  C_13 
ROOT
HETATM    1 Cl   UNK N   1      33.840  10.826  13.906  0.00  0.00    -0.081 Cl
HETATM    2 Cl   UNK N   1      37.442  15.480  16.191  0.00  0.00    -0.082 Cl
HETATM    3 Cl   UNK N   1      35.371  13.908  18.116  0.00  0.00    -0.082 Cl
HETATM    4  C   UNK N   1      35.747  12.809  13.711  0.00  0.00     0.093 A 
HETATM    5  C   UNK N   1      34.844  12.121  14.540  0.00  0.00     0.069 A 
HETATM    6  C   UNK N   1      36.532  13.837  14.247  0.00  0.00     0.064 A 
HETATM    7  C   UNK N   1      36.428  14.183  15.588  0.00  0.00     0.058 A 
HETATM    8  C   UNK N   1      34.738  12.469  15.890  0.00  0.00     0.052 A 
HETATM    9  C   UNK N   1      35.527  13.497  16.418  0.00  0.00     0.057 A 
ENDROOT
BRANCH   4  10
HETATM   10  O   UNK N   1      35.853  12.478  12.409  0.00  0.00    -0.338 OA
BRANCH  10  11
HETATM   11  C   UNK N   1      36.600  13.198  11.503  0.00  0.00     0.270 C 
BRANCH  11  12
HETATM   12  C   UNK N   1      35.667  13.716  10.524  0.00  0.00    -0.069 C 
HETATM   13  C   UNK N   1      34.757  14.090   9.840  0.00  0.00    -0.028 C 
HETATM   14  I   UNK N   1      32.976  14.617   8.927  0.00  0.00     0.018 I 
ENDBRANCH  11  12
ENDBRANCH  10  11
ENDBRANCH   4  10
TORSDOF 3
ENDMDL
MODEL 7
REMARK VINA RESULT:      -4.6      9.142     10.402
REMARK  3 active torsions:
REMARK  status: ('A' for Active; 'I' for Inactive)
REMARK    1  A    between atoms: O_5  and  C_6 
REMARK    2  A    between atoms: O_5  and  C_12 
REMARK    3  A    between atoms: C_12  and  C_13 
ROOT
HETATM    1 Cl   UNK N   1      19.778  12.204  11.687  0.00  0.00    -0.081 Cl
HETATM    2 Cl   UNK N   1      25.024  13.573   8.453  0.00  0.00    -0.082 Cl
HETATM    3 Cl   UNK N   1      25.171  11.775  11.139  0.00  0.00    -0.082 Cl
HETATM    4  C   UNK N   1      21.183  13.366   9.617  0.00  0.00     0.093 A 
HETATM    5  C   UNK N   1      21.237  12.586  10.786  0.00  0.00     0.069 A 
HETATM    6  C   UNK N   1      22.364  13.653   8.922  0.00  0.00     0.064 A 
HETATM    7  C   UNK N   1      23.587  13.175   9.374  0.00  0.00     0.058 A 
HETATM    8  C   UNK N   1      22.468  12.105  11.241  0.00  0.00     0.052 A 
HETATM    9  C   UNK N   1      23.643  12.395  10.541  0.00  0.00     0.057 A 
ENDROOT
BRANCH   4  10
HETATM   10  O   UNK N   1      19.999  13.832   9.173  0.00  0.00    -0.338 OA
BRANCH  10  11
HETATM   11  C   UNK N   1      19.491  15.064   9.525  0.00  0.00     0.270 C 
BRANCH  11  12
HETATM   12  C   UNK N   1      19.871  15.979   8.468  0.00  0.00    -0.069 C 
HETATM   13  C   UNK N   1      20.348  16.629   7.581  0.00  0.00    -0.028 C 
HETATM   14  I   UNK N   1      21.447  17.520   6.071  0.00  0.00     0.018 I 
ENDBRANCH  11  12
ENDBRANCH  10  11
ENDBRANCH   4  10
TORSDOF 3
ENDMDL
MODEL 8
REMARK VINA RESULT:      -4.4     11.825     12.706
REMARK  3 active torsions:
REMARK  status: ('A' for Active; 'I' for Inactive)
REMARK    1  A    between atoms: O_5  and  C_6 
REMARK    2  A    between atoms: O_5  and  C_12 
REMARK    3  A    between atoms: C_12  and  C_13 
ROOT
HETATM    1 Cl   UNK N   1      33.791  10.589  13.660  0.00  0.00    -0.081 Cl
HETATM    2 Cl   UNK N   1      37.406  15.242  15.925  0.00  0.00    -0.082 Cl
HETATM    3 Cl   UNK N   1      35.278  13.735  17.839  0.00  0.00    -0.082 Cl
HETATM    4  C   UNK N   1      35.726  12.544  13.465  0.00  0.00     0.093 A 
HETATM    5  C   UNK N   1      34.798  11.884  14.288  0.00  0.00     0.069 A 
HETATM    6  C   UNK N   1      36.513  13.573  13.996  0.00  0.00     0.064 A 
HETATM    7  C   UNK N   1      36.388  13.947  15.328  0.00  0.00     0.058 A 
HETATM    8  C   UNK N   1      34.671  12.260  15.629  0.00  0.00     0.052 A 
HETATM    9  C   UNK N   1      35.462  13.288  16.153  0.00  0.00     0.057 A 
ENDROOT
BRANCH   4  10
HETATM   10  O   UNK N   1      35.853  12.186  12.172  0.00  0.00    -0.338 OA
BRANCH  10  11
HETATM   11  C   UNK N   1      37.063  11.889  11.584  0.00  0.00     0.270 C 
BRANCH  11  12
HETATM   12  C   UNK N   1      37.501  10.636  12.162  0.00  0.00    -0.069 C 
HETATM   13  C   UNK N   1      37.963   9.575  12.474  0.00  0.00    -0.028 C 
HETATM   14  I   UNK N   1      38.916   7.751  12.688  0.00  0.00     0.018 I 
ENDBRANCH  11  12
ENDBRANCH  10  11
ENDBRANCH   4  10
TORSDOF 3
ENDMDL
MODEL 9
REMARK VINA RESULT:      -4.4      6.941      8.017
REMARK  3 active torsions:
REMARK  status: ('A' for Active; 'I' for Inactive)
REMARK    1  A    between atoms: O_5  and  C_6 
REMARK    2  A    between atoms: O_5  and  C_12 
REMARK    3  A    between atoms: C_12  and  C_13 
ROOT
HETATM    1 Cl   UNK N   1      34.344  12.496   9.791  0.00  0.00    -0.081 Cl
HETATM    2 Cl   UNK N   1      34.670  18.600   8.213  0.00  0.00    -0.082 Cl
HETATM    3 Cl   UNK N   1      34.176  16.342   5.950  0.00  0.00    -0.082 Cl
HETATM    4  C   UNK N   1      34.648  15.184  10.330  0.00  0.00     0.093 A 
HETATM    5  C   UNK N   1      34.435  14.196   9.354  0.00  0.00     0.069 A 
HETATM    6  C   UNK N   1      34.717  16.529   9.949  0.00  0.00     0.064 A 
HETATM    7  C   UNK N   1      34.575  16.898   8.617  0.00  0.00     0.058 A 
HETATM    8  C   UNK N   1      34.292  14.565   8.013  0.00  0.00     0.052 A 
HETATM    9  C   UNK N   1      34.361  15.912   7.640  0.00  0.00     0.057 A 
ENDROOT
BRANCH   4  10
HETATM   10  O   UNK N   1      34.787  14.834  11.624  0.00  0.00    -0.338 OA
BRANCH  10  11
HETATM   11  C   UNK N   1      35.969  14.963  12.321  0.00  0.00     0.270 C 
BRANCH  11  12
HETATM   12  C   UNK N   1      35.872  14.070  13.457  0.00  0.00    -0.069 C 
HETATM   13  C   UNK N   1      35.697  13.477  14.484  0.00  0.00    -0.028 C 
HETATM   14  I   UNK N   1      35.227  12.753  16.364  0.00  0.00     0.018 I 
ENDBRANCH  11  12
ENDBRANCH  10  11
ENDBRANCH   4  10
TORSDOF 3
ENDMDL
