REMARK  2 active torsions:
REMARK  status: ('A' for Active; 'I' for Inactive)
REMARK    1  A    between atoms: C_5  and  C_6 
REMARK    2  A    between atoms: C_5  and  C_7 
ROOT
HETATM    1  O   UNK N   1       1.930  -0.457   1.789  0.00  0.00    -0.272 OA
HETATM    2  O   UNK N   1       5.301  -1.015  -0.915  0.00  0.00    -0.272 OA
HETATM    3  N   UNK N   1       2.088  -2.452   0.795  0.00  0.00    -0.344 N 
HETATM    4  N   UNK N   1       3.920  -2.753  -0.682  0.00  0.00    -0.344 N 
HETATM    5  C   UNK N   1       3.041  -0.454  -0.336  0.00  0.00     0.148 C 
HETATM    6  C   UNK N   1       2.301  -1.109   0.826  0.00  0.00     0.241 C 
HETATM    7  C   UNK N   1       4.168  -1.417  -0.686  0.00  0.00     0.241 C 
HETATM    8  C   UNK N   1       2.606  -3.244  -0.306  0.00  0.00     0.249 C 
HETATM    9  H   UNK N   1       1.582  -2.886   1.520  0.00  0.00     0.164 HD
HETATM   10  H   UNK N   1       4.630  -3.387  -0.934  0.00  0.00     0.164 HD
ENDROOT
BRANCH   5  11
HETATM   11  C   UNK N   1       2.095  -0.442  -1.559  0.00  0.00     0.030 C 
HETATM   12  C   UNK N   1       0.791   0.314  -1.325  0.00  0.00     0.007 C 
ENDBRANCH   5  11
BRANCH   5  13
HETATM   13  C   UNK N   1       3.588   0.937   0.006  0.00  0.00    -0.031 A 
HETATM   14  C   UNK N   1       3.205   2.085  -0.711  0.00  0.00     0.009 A 
HETATM   15  C   UNK N   1       3.749   3.334  -0.401  0.00  0.00     0.001 A 
HETATM   16  C   UNK N   1       4.695   3.451   0.621  0.00  0.00     0.000 A 
HETATM   17  C   UNK N   1       5.086   2.321   1.341  0.00  0.00     0.001 A 
HETATM   18  C   UNK N   1       4.534   1.073   1.040  0.00  0.00     0.009 A 
ENDBRANCH   5  13
TORSDOF 2
