MODEL 1
REMARK VINA RESULT:      -6.4      0.000      0.000
REMARK  2 active torsions:
REMARK  status: ('A' for Active; 'I' for Inactive)
REMARK    1  A    between atoms: C_5  and  C_6 
REMARK    2  A    between atoms: C_5  and  C_7 
ROOT
HETATM    1  O   UNK N   1      37.370  14.171  15.443  0.00  0.00    -0.272 OA
HETATM    2  O   UNK N   1      33.672  11.976  14.738  0.00  0.00    -0.272 OA
HETATM    3  N   UNK N   1      36.788  13.862  13.308  0.00  0.00    -0.344 N 
HETATM    4  N   UNK N   1      34.778  12.662  12.924  0.00  0.00    -0.344 N 
HETATM    5  C   UNK N   1      36.043  12.220  15.018  0.00  0.00     0.148 C 
HETATM    6  C   UNK N   1      36.795  13.484  14.614  0.00  0.00     0.241 C 
HETATM    7  C   UNK N   1      34.746  12.254  14.220  0.00  0.00     0.241 C 
HETATM    8  C   UNK N   1      36.032  13.096  12.334  0.00  0.00     0.249 C 
HETATM    9  H   UNK N   1      37.297  14.656  13.024  0.00  0.00     0.164 HD
HETATM   10  H   UNK N   1      33.953  12.662  12.387  0.00  0.00     0.164 HD
ENDROOT
BRANCH   5  11
HETATM   11  C   UNK N   1      36.836  11.002  14.490  0.00  0.00     0.030 C 
HETATM   12  C   UNK N   1      38.350  11.170  14.565  0.00  0.00     0.007 C 
ENDBRANCH   5  11
BRANCH   5  13
HETATM   13  C   UNK N   1      35.764  12.140  16.524  0.00  0.00    -0.031 A 
HETATM   14  C   UNK N   1      35.342  13.259  17.263  0.00  0.00     0.009 A 
HETATM   15  C   UNK N   1      35.132  13.166  18.642  0.00  0.00     0.001 A 
HETATM   16  C   UNK N   1      35.356  11.955  19.303  0.00  0.00     0.000 A 
HETATM   17  C   UNK N   1      35.776  10.835  18.583  0.00  0.00     0.001 A 
HETATM   18  C   UNK N   1      35.974  10.924  17.202  0.00  0.00     0.009 A 
ENDBRANCH   5  13
TORSDOF 2
ENDMDL
MODEL 2
REMARK VINA RESULT:      -5.8      6.501      9.800
REMARK  2 active torsions:
REMARK  status: ('A' for Active; 'I' for Inactive)
REMARK    1  A    between atoms: C_5  and  C_6 
REMARK    2  A    between atoms: C_5  and  C_7 
ROOT
HETATM    1  O   UNK N   1      32.048  14.817   9.111  0.00  0.00    -0.272 OA
HETATM    2  O   UNK N   1      34.683  18.277   8.848  0.00  0.00    -0.272 OA
HETATM    3  N   UNK N   1      33.572  15.032  10.731  0.00  0.00    -0.344 N 
HETATM    4  N   UNK N   1      35.011  16.912  10.584  0.00  0.00    -0.344 N 
HETATM    5  C   UNK N   1      34.042  15.993   8.487  0.00  0.00     0.148 C 
HETATM    6  C   UNK N   1      33.146  15.226   9.454  0.00  0.00     0.241 C 
HETATM    7  C   UNK N   1      34.619  17.143   9.303  0.00  0.00     0.241 C 
HETATM    8  C   UNK N   1      34.838  15.594  11.167  0.00  0.00     0.249 C 
HETATM    9  H   UNK N   1      33.022  14.509  11.358  0.00  0.00     0.164 HD
HETATM   10  H   UNK N   1      35.412  17.638  11.115  0.00  0.00     0.164 HD
ENDROOT
BRANCH   5  11
HETATM   11  C   UNK N   1      35.240  15.086   8.124  0.00  0.00     0.030 C 
HETATM   12  C   UNK N   1      34.845  13.663   7.741  0.00  0.00     0.007 C 
ENDBRANCH   5  11
BRANCH   5  13
HETATM   13  C   UNK N   1      33.294  16.511   7.254  0.00  0.00    -0.031 A 
HETATM   14  C   UNK N   1      31.923  16.824   7.291  0.00  0.00     0.009 A 
HETATM   15  C   UNK N   1      31.258  17.258   6.141  0.00  0.00     0.001 A 
HETATM   16  C   UNK N   1      31.952  17.372   4.933  0.00  0.00     0.000 A 
HETATM   17  C   UNK N   1      33.312  17.065   4.880  0.00  0.00     0.001 A 
HETATM   18  C   UNK N   1      33.981  16.642   6.032  0.00  0.00     0.009 A 
ENDBRANCH   5  13
TORSDOF 2
ENDMDL
MODEL 3
REMARK VINA RESULT:      -5.6     25.652     27.499
REMARK  2 active torsions:
REMARK  status: ('A' for Active; 'I' for Inactive)
REMARK    1  A    between atoms: C_5  and  C_6 
REMARK    2  A    between atoms: C_5  and  C_7 
ROOT
HETATM    1  O   UNK N   1      24.401  26.960  -5.618  0.00  0.00    -0.272 OA
HETATM    2  O   UNK N   1      28.330  26.148  -3.917  0.00  0.00    -0.272 OA
HETATM    3  N   UNK N   1      25.035  24.819  -5.558  0.00  0.00    -0.344 N 
HETATM    4  N   UNK N   1      27.177  24.377  -4.637  0.00  0.00    -0.344 N 
HETATM    5  C   UNK N   1      26.770  26.594  -5.685  0.00  0.00     0.148 C 
HETATM    6  C   UNK N   1      25.312  26.148  -5.631  0.00  0.00     0.241 C 
HETATM    7  C   UNK N   1      27.501  25.696  -4.696  0.00  0.00     0.241 C 
HETATM    8  C   UNK N   1      26.118  23.854  -5.482  0.00  0.00     0.249 C 
HETATM    9  H   UNK N   1      24.099  24.511  -5.556  0.00  0.00     0.164 HD
HETATM   10  H   UNK N   1      27.660  23.778  -4.023  0.00  0.00     0.164 HD
ENDROOT
BRANCH   5  11
HETATM   11  C   UNK N   1      27.328  26.233  -7.081  0.00  0.00     0.030 C 
HETATM   12  C   UNK N   1      26.328  26.428  -8.216  0.00  0.00     0.007 C 
ENDBRANCH   5  11
BRANCH   5  13
HETATM   13  C   UNK N   1      26.960  28.074  -5.333  0.00  0.00    -0.031 A 
HETATM   14  C   UNK N   1      27.844  28.902  -6.049  0.00  0.00     0.009 A 
HETATM   15  C   UNK N   1      28.025  30.238  -5.682  0.00  0.00     0.001 A 
HETATM   16  C   UNK N   1      27.336  30.762  -4.584  0.00  0.00     0.000 A 
HETATM   17  C   UNK N   1      26.457  29.952  -3.863  0.00  0.00     0.001 A 
HETATM   18  C   UNK N   1      26.265  28.619  -4.237  0.00  0.00     0.009 A 
ENDBRANCH   5  13
TORSDOF 2
ENDMDL
MODEL 4
REMARK VINA RESULT:      -5.6     25.431     26.743
REMARK  2 active torsions:
REMARK  status: ('A' for Active; 'I' for Inactive)
REMARK    1  A    between atoms: C_5  and  C_6 
REMARK    2  A    between atoms: C_5  and  C_7 
ROOT
HETATM    1  O   UNK N   1      29.451  26.862  -4.347  0.00  0.00    -0.272 OA
HETATM    2  O   UNK N   1      25.471  27.878  -2.893  0.00  0.00    -0.272 OA
HETATM    3  N   UNK N   1      29.243  28.830  -3.310  0.00  0.00    -0.344 N 
HETATM    4  N   UNK N   1      27.075  29.385  -2.524  0.00  0.00    -0.344 N 
HETATM    5  C   UNK N   1      27.274  27.860  -4.476  0.00  0.00     0.148 C 
HETATM    6  C   UNK N   1      28.739  27.810  -4.055  0.00  0.00     0.241 C 
HETATM    7  C   UNK N   1      26.525  28.381  -3.256  0.00  0.00     0.241 C 
HETATM    8  C   UNK N   1      28.378  29.915  -2.885  0.00  0.00     0.249 C 
HETATM    9  H   UNK N   1      30.196  28.831  -3.058  0.00  0.00     0.164 HD
HETATM   10  H   UNK N   1      26.590  29.753  -1.750  0.00  0.00     0.164 HD
ENDROOT
BRANCH   5  11
HETATM   11  C   UNK N   1      27.126  28.948  -5.565  0.00  0.00     0.030 C 
HETATM   12  C   UNK N   1      28.244  28.941  -6.602  0.00  0.00     0.007 C 
ENDBRANCH   5  11
BRANCH   5  13
HETATM   13  C   UNK N   1      26.728  26.497  -4.919  0.00  0.00    -0.031 A 
HETATM   14  C   UNK N   1      26.830  25.354  -4.106  0.00  0.00     0.009 A 
HETATM   15  C   UNK N   1      26.357  24.117  -4.552  0.00  0.00     0.001 A 
HETATM   16  C   UNK N   1      25.789  24.002  -5.824  0.00  0.00     0.000 A 
HETATM   17  C   UNK N   1      25.683  25.128  -6.643  0.00  0.00     0.001 A 
HETATM   18  C   UNK N   1      26.144  26.368  -6.194  0.00  0.00     0.009 A 
ENDBRANCH   5  13
TORSDOF 2
ENDMDL
MODEL 5
REMARK VINA RESULT:      -5.4      1.405      2.897
REMARK  2 active torsions:
REMARK  status: ('A' for Active; 'I' for Inactive)
REMARK    1  A    between atoms: C_5  and  C_6 
REMARK    2  A    between atoms: C_5  and  C_7 
ROOT
HETATM    1  O   UNK N   1      33.365  10.767  14.613  0.00  0.00    -0.272 OA
HETATM    2  O   UNK N   1      37.667  11.453  14.689  0.00  0.00    -0.272 OA
HETATM    3  N   UNK N   1      34.389  10.882  12.630  0.00  0.00    -0.344 N 
HETATM    4  N   UNK N   1      36.730  11.262  12.672  0.00  0.00    -0.344 N 
HETATM    5  C   UNK N   1      35.359  12.098  14.570  0.00  0.00     0.148 C 
HETATM    6  C   UNK N   1      34.287  11.210  13.946  0.00  0.00     0.241 C 
HETATM    7  C   UNK N   1      36.676  11.602  13.987  0.00  0.00     0.241 C 
HETATM    8  C   UNK N   1      35.531  11.334  11.856  0.00  0.00     0.249 C 
HETATM    9  H   UNK N   1      33.687  10.339  12.203  0.00  0.00     0.164 HD
HETATM   10  H   UNK N   1      37.581  10.968  12.273  0.00  0.00     0.164 HD
ENDROOT
BRANCH   5  11
HETATM   11  C   UNK N   1      35.166  13.533  14.028  0.00  0.00     0.030 C 
HETATM   12  C   UNK N   1      36.437  14.375  14.041  0.00  0.00     0.007 C 
ENDBRANCH   5  11
BRANCH   5  13
HETATM   13  C   UNK N   1      35.375  12.038  16.102  0.00  0.00    -0.031 A 
HETATM   14  C   UNK N   1      35.698  10.859  16.798  0.00  0.00     0.009 A 
HETATM   15  C   UNK N   1      35.667  10.824  18.194  0.00  0.00     0.001 A 
HETATM   16  C   UNK N   1      35.299  11.963  18.915  0.00  0.00     0.000 A 
HETATM   17  C   UNK N   1      34.975  13.141  18.238  0.00  0.00     0.001 A 
HETATM   18  C   UNK N   1      35.017  13.181  16.842  0.00  0.00     0.009 A 
ENDBRANCH   5  13
TORSDOF 2
ENDMDL
MODEL 6
REMARK VINA RESULT:      -5.4     22.342     24.508
REMARK  2 active torsions:
REMARK  status: ('A' for Active; 'I' for Inactive)
REMARK    1  A    between atoms: C_5  and  C_6 
REMARK    2  A    between atoms: C_5  and  C_7 
ROOT
HETATM    1  O   UNK N   1      29.979  26.131  -4.769  0.00  0.00    -0.272 OA
HETATM    2  O   UNK N   1      26.832  24.078  -2.563  0.00  0.00    -0.272 OA
HETATM    3  N   UNK N   1      28.028  27.205  -4.588  0.00  0.00    -0.344 N 
HETATM    4  N   UNK N   1      26.313  26.084  -3.392  0.00  0.00    -0.344 N 
HETATM    5  C   UNK N   1      28.056  24.720  -4.524  0.00  0.00     0.148 C 
HETATM    6  C   UNK N   1      28.766  26.064  -4.649  0.00  0.00     0.241 C 
HETATM    7  C   UNK N   1      27.012  24.920  -3.433  0.00  0.00     0.241 C 
HETATM    8  C   UNK N   1      26.597  27.132  -4.357  0.00  0.00     0.249 C 
HETATM    9  H   UNK N   1      28.466  28.080  -4.702  0.00  0.00     0.164 HD
HETATM   10  H   UNK N   1      25.615  26.217  -2.711  0.00  0.00     0.164 HD
ENDROOT
BRANCH   5  11
HETATM   11  C   UNK N   1      27.265  24.474  -5.830  0.00  0.00     0.030 C 
HETATM   12  C   UNK N   1      26.003  23.640  -5.641  0.00  0.00     0.007 C 
ENDBRANCH   5  11
BRANCH   5  13
HETATM   13  C   UNK N   1      29.005  23.567  -4.178  0.00  0.00    -0.031 A 
HETATM   14  C   UNK N   1      29.614  23.457  -2.915  0.00  0.00     0.009 A 
HETATM   15  C   UNK N   1      30.504  22.416  -2.640  0.00  0.00     0.001 A 
HETATM   16  C   UNK N   1      30.811  21.478  -3.630  0.00  0.00     0.000 A 
HETATM   17  C   UNK N   1      30.216  21.574  -4.889  0.00  0.00     0.001 A 
HETATM   18  C   UNK N   1      29.316  22.608  -5.161  0.00  0.00     0.009 A 
ENDBRANCH   5  13
TORSDOF 2
ENDMDL
MODEL 7
REMARK VINA RESULT:      -5.3      1.763      2.322
REMARK  2 active torsions:
REMARK  status: ('A' for Active; 'I' for Inactive)
REMARK    1  A    between atoms: C_5  and  C_6 
REMARK    2  A    between atoms: C_5  and  C_7 
ROOT
HETATM    1  O   UNK N   1      37.306  11.905  14.472  0.00  0.00    -0.272 OA
HETATM    2  O   UNK N   1      33.076  10.968  14.937  0.00  0.00    -0.272 OA
HETATM    3  N   UNK N   1      36.363  10.722  12.828  0.00  0.00    -0.344 N 
HETATM    4  N   UNK N   1      34.062  10.207  13.085  0.00  0.00    -0.344 N 
HETATM    5  C   UNK N   1      35.433  10.559  15.127  0.00  0.00     0.148 C 
HETATM    6  C   UNK N   1      36.448  11.108  14.129  0.00  0.00     0.241 C 
HETATM    7  C   UNK N   1      34.099  10.576  14.392  0.00  0.00     0.241 C 
HETATM    8  C   UNK N   1      35.289   9.844  12.399  0.00  0.00     0.249 C 
HETATM    9  H   UNK N   1      37.031  11.039  12.177  0.00  0.00     0.164 HD
HETATM   10  H   UNK N   1      33.203  10.185  12.603  0.00  0.00     0.164 HD
ENDROOT
BRANCH   5  11
HETATM   11  C   UNK N   1      35.764   9.069  15.376  0.00  0.00     0.030 C 
HETATM   12  C   UNK N   1      37.253   8.788  15.556  0.00  0.00     0.007 C 
ENDBRANCH   5  11
BRANCH   5  13
HETATM   13  C   UNK N   1      35.361  11.376  16.423  0.00  0.00    -0.031 A 
HETATM   14  C   UNK N   1      35.431  10.770  17.691  0.00  0.00     0.009 A 
HETATM   15  C   UNK N   1      35.324  11.535  18.854  0.00  0.00     0.001 A 
HETATM   16  C   UNK N   1      35.131  12.917  18.767  0.00  0.00     0.000 A 
HETATM   17  C   UNK N   1      35.059  13.533  17.517  0.00  0.00     0.001 A 
HETATM   18  C   UNK N   1      35.177  12.770  16.352  0.00  0.00     0.009 A 
ENDBRANCH   5  13
TORSDOF 2
ENDMDL
MODEL 8
REMARK VINA RESULT:      -5.2      9.936     11.084
REMARK  2 active torsions:
REMARK  status: ('A' for Active; 'I' for Inactive)
REMARK    1  A    between atoms: C_5  and  C_6 
REMARK    2  A    between atoms: C_5  and  C_7 
ROOT
HETATM    1  O   UNK N   1      31.861  14.295   7.457  0.00  0.00    -0.272 OA
HETATM    2  O   UNK N   1      34.046  17.974   6.633  0.00  0.00    -0.272 OA
HETATM    3  N   UNK N   1      33.774  14.083   6.322  0.00  0.00    -0.344 N 
HETATM    4  N   UNK N   1      34.960  16.087   5.868  0.00  0.00    -0.344 N 
HETATM    5  C   UNK N   1      32.494  16.207   6.156  0.00  0.00     0.148 C 
HETATM    6  C   UNK N   1      32.671  14.789   6.688  0.00  0.00     0.241 C 
HETATM    7  C   UNK N   1      33.881  16.834   6.219  0.00  0.00     0.241 C 
HETATM    8  C   UNK N   1      34.783  14.699   5.480  0.00  0.00     0.249 C 
HETATM    9  H   UNK N   1      33.887  13.154   6.629  0.00  0.00     0.164 HD
HETATM   10  H   UNK N   1      35.860  16.486   5.876  0.00  0.00     0.164 HD
ENDROOT
BRANCH   5  11
HETATM   11  C   UNK N   1      32.137  16.113   4.654  0.00  0.00     0.030 C 
HETATM   12  C   UNK N   1      32.427  17.388   3.868  0.00  0.00     0.007 C 
ENDBRANCH   5  11
BRANCH   5  13
HETATM   13  C   UNK N   1      31.478  17.029   6.957  0.00  0.00    -0.031 A 
HETATM   14  C   UNK N   1      31.797  17.597   8.204  0.00  0.00     0.009 A 
HETATM   15  C   UNK N   1      30.838  18.310   8.929  0.00  0.00     0.001 A 
HETATM   16  C   UNK N   1      29.543  18.452   8.425  0.00  0.00     0.000 A 
HETATM   17  C   UNK N   1      29.210  17.893   7.190  0.00  0.00     0.001 A 
HETATM   18  C   UNK N   1      30.171  17.191   6.458  0.00  0.00     0.009 A 
ENDBRANCH   5  13
TORSDOF 2
ENDMDL
MODEL 9
REMARK VINA RESULT:      -5.2      9.174     10.842
REMARK  2 active torsions:
REMARK  status: ('A' for Active; 'I' for Inactive)
REMARK    1  A    between atoms: C_5  and  C_6 
REMARK    2  A    between atoms: C_5  and  C_7 
ROOT
HETATM    1  O   UNK N   1      31.162  17.739   4.948  0.00  0.00    -0.272 OA
HETATM    2  O   UNK N   1      32.069  14.987   8.202  0.00  0.00    -0.272 OA
HETATM    3  N   UNK N   1      33.031  16.533   4.738  0.00  0.00    -0.344 N 
HETATM    4  N   UNK N   1      33.528  15.039   6.513  0.00  0.00    -0.344 N 
HETATM    5  C   UNK N   1      32.181  17.068   7.012  0.00  0.00     0.148 C 
HETATM    6  C   UNK N   1      32.085  17.154   5.492  0.00  0.00     0.241 C 
HETATM    7  C   UNK N   1      32.596  15.632   7.305  0.00  0.00     0.241 C 
HETATM    8  C   UNK N   1      34.080  15.761   5.381  0.00  0.00     0.249 C 
HETATM    9  H   UNK N   1      33.004  16.607   3.756  0.00  0.00     0.164 HD
HETATM   10  H   UNK N   1      33.828  14.121   6.707  0.00  0.00     0.164 HD
ENDROOT
BRANCH   5  11
HETATM   11  C   UNK N   1      33.363  17.955   7.467  0.00  0.00     0.030 C 
HETATM   12  C   UNK N   1      34.071  17.447   8.719  0.00  0.00     0.007 C 
ENDBRANCH   5  11
BRANCH   5  13
HETATM   13  C   UNK N   1      30.867  17.419   7.719  0.00  0.00    -0.031 A 
HETATM   14  C   UNK N   1      29.624  16.943   7.262  0.00  0.00     0.009 A 
HETATM   15  C   UNK N   1      28.440  17.311   7.905  0.00  0.00     0.001 A 
HETATM   16  C   UNK N   1      28.478  18.171   9.005  0.00  0.00     0.000 A 
HETATM   17  C   UNK N   1      29.703  18.652   9.470  0.00  0.00     0.001 A 
HETATM   18  C   UNK N   1      30.890  18.276   8.836  0.00  0.00     0.009 A 
ENDBRANCH   5  13
TORSDOF 2
ENDMDL
