MODEL 1
REMARK VINA RESULT:      -7.6      0.000      0.000
REMARK  8 active torsions:
REMARK  status: ('A' for Active; 'I' for Inactive)
REMARK    1  A    between atoms: O_1  and  C_17 
REMARK    2  A    between atoms: O_1  and  C_30 
REMARK    3  A    between atoms: O_2  and  C_29 
REMARK    4  A    between atoms: N_4  and  C_13 
REMARK    5  A    between atoms: C_13  and  C_15 
REMARK    6  A    between atoms: C_18  and  C_29 
REMARK    7  A    between atoms: C_21  and  C_26 
REMARK    8  A    between atoms: C_28  and  C_34 
ROOT
HETATM    1  C   UNK N   1      33.290  16.587   9.002  0.00  0.00    -0.040 A 
HETATM    2  C   UNK N   1      32.766  15.298   9.084  0.00  0.00     0.010 A 
HETATM    3  C   UNK N   1      34.638  16.826   9.267  0.00  0.00     0.010 A 
HETATM    4  C   UNK N   1      34.978  14.483   9.642  0.00  0.00    -0.025 A 
HETATM    5  C   UNK N   1      33.616  14.239   9.381  0.00  0.00     0.013 A 
HETATM    6  C   UNK N   1      35.475  15.780   9.610  0.00  0.00     0.013 A 
ENDROOT
BRANCH   1   7
HETATM    7  C   UNK N   1      32.446  17.663   8.457  0.00  0.00     0.171 C 
BRANCH   7   8
HETATM    8  N   UNK N   1      31.655  17.357   7.272  0.00  0.00    -0.306 N 
HETATM    9  C   UNK N   1      30.306  17.349   7.226  0.00  0.00     0.082 A 
HETATM   10  C   UNK N   1      29.932  17.108   5.926  0.00  0.00     0.063 A 
HETATM   11  C   UNK N   1      29.328  17.570   8.242  0.00  0.00     0.067 A 
HETATM   12  N   UNK N   1      31.015  16.923   5.150  0.00  0.00    -0.320 N 
HETATM   13  C   UNK N   1      28.609  17.099   5.516  0.00  0.00     0.032 A 
HETATM   14  C   UNK N   1      32.057  17.087   5.996  0.00  0.00     0.227 A 
ATOM     15  HN  UNK N   1      31.042  16.709   4.154  1.00  0.00     0.169 HD
HETATM   16  C   UNK N   1      27.625  17.361   6.477  0.00  0.00     0.003 A 
HETATM   17  C   UNK N   1      27.981  17.589   7.821  0.00  0.00     0.021 A 
BRANCH  14  18
HETATM   18  O   UNK N   1      33.350  17.024   5.604  0.00  0.00    -0.322 OA
BRANCH  18  19
HETATM   19  C   UNK N   1      33.890  15.927   4.975  0.00  0.00     0.174 C 
HETATM   20  C   UNK N   1      35.008  15.359   5.830  0.00  0.00     0.034 C 
ENDBRANCH  18  19
ENDBRANCH  14  18
BRANCH  11  21
HETATM   21  C   UNK N   1      29.575  17.745   9.706  0.00  0.00     0.178 C 
HETATM   22  O   UNK N   1      29.686  18.847  10.211  0.00  0.00    -0.646 OA
BRANCH  21  23
HETATM   23  O   UNK N   1      29.791  16.662  10.476  0.00  0.00    -0.773 OA
HETATM   24  H   UNK N   1      30.105  15.868  10.090  0.00  0.00     0.167 HD
ENDBRANCH  21  23
ENDBRANCH  11  21
ENDBRANCH   7   8
ENDBRANCH   1   7
BRANCH   4  25
HETATM   25  C   UNK N   1      35.954  13.407   9.520  0.00  0.00    -0.012 A 
HETATM   26  C   UNK N   1      36.503  12.830  10.692  0.00  0.00     0.021 A 
HETATM   27  C   UNK N   1      37.425  11.787  10.571  0.00  0.00     0.016 A 
HETATM   28  C   UNK N   1      37.763  11.292   9.306  0.00  0.00     0.001 A 
HETATM   29  C   UNK N   1      37.187  11.839   8.155  0.00  0.00     0.001 A 
HETATM   30  C   UNK N   1      36.283  12.896   8.261  0.00  0.00     0.013 A 
BRANCH  26  31
HETATM   31  C   UNK N   1      36.022  13.240  12.036  0.00  0.00     0.145 A 
HETATM   32  N   UNK N   1      36.715  14.029  12.884  0.00  0.00    -0.271 N 
HETATM   33  N   UNK N   1      35.986  14.112  13.978  0.00  0.00    -0.225 N 
ATOM     34  HN  UNK N   1      37.619  14.471  12.713  1.00  0.00     0.190 HD
HETATM   35  N   UNK N   1      34.879  13.397  13.819  0.00  0.00    -0.005 NA
HETATM   36  H   UNK N   1      36.224  14.622  14.786  0.00  0.00     0.205 HD
HETATM   37  N   UNK N   1      34.872  12.856  12.612  0.00  0.00    -0.266 N 
ATOM     38  HN  UNK N   1      34.144  12.269  12.203  1.00  0.00     0.186 HD
ENDBRANCH  26  31
ENDBRANCH   4  25
TORSDOF 8
ENDMDL
MODEL 2
REMARK VINA RESULT:      -7.4      2.772      8.316
REMARK  8 active torsions:
REMARK  status: ('A' for Active; 'I' for Inactive)
REMARK    1  A    between atoms: O_1  and  C_17 
REMARK    2  A    between atoms: O_1  and  C_30 
REMARK    3  A    between atoms: O_2  and  C_29 
REMARK    4  A    between atoms: N_4  and  C_13 
REMARK    5  A    between atoms: C_13  and  C_15 
REMARK    6  A    between atoms: C_18  and  C_29 
REMARK    7  A    between atoms: C_21  and  C_26 
REMARK    8  A    between atoms: C_28  and  C_34 
ROOT
HETATM    1  C   UNK N   1      35.049  15.477  11.162  0.00  0.00    -0.040 A 
HETATM    2  C   UNK N   1      35.284  16.749  10.643  0.00  0.00     0.010 A 
HETATM    3  C   UNK N   1      34.079  14.647  10.601  0.00  0.00     0.010 A 
HETATM    4  C   UNK N   1      33.602  16.321   8.953  0.00  0.00    -0.025 A 
HETATM    5  C   UNK N   1      34.576  17.165   9.520  0.00  0.00     0.013 A 
HETATM    6  C   UNK N   1      33.339  15.077   9.515  0.00  0.00     0.013 A 
ENDROOT
BRANCH   1   7
HETATM    7  C   UNK N   1      35.959  14.952  12.193  0.00  0.00     0.171 C 
BRANCH   7   8
HETATM    8  N   UNK N   1      35.972  13.510  12.400  0.00  0.00    -0.306 N 
HETATM    9  C   UNK N   1      36.650  12.627  11.636  0.00  0.00     0.082 A 
HETATM   10  C   UNK N   1      36.493  11.381  12.194  0.00  0.00     0.063 A 
HETATM   11  C   UNK N   1      37.450  12.812  10.468  0.00  0.00     0.067 A 
HETATM   12  N   UNK N   1      35.697  11.446  13.275  0.00  0.00    -0.320 N 
HETATM   13  C   UNK N   1      37.116  10.250  11.692  0.00  0.00     0.032 A 
HETATM   14  C   UNK N   1      35.397  12.760  13.385  0.00  0.00     0.227 A 
ATOM     15  HN  UNK N   1      35.391  10.680  13.875  1.00  0.00     0.169 HD
HETATM   16  C   UNK N   1      37.948  10.405  10.576  0.00  0.00     0.003 A 
HETATM   17  C   UNK N   1      38.108  11.667   9.972  0.00  0.00     0.021 A 
BRANCH  14  18
HETATM   18  O   UNK N   1      34.639  13.269  14.382  0.00  0.00    -0.322 OA
BRANCH  18  19
HETATM   19  C   UNK N   1      34.421  12.612  15.570  0.00  0.00     0.174 C 
HETATM   20  C   UNK N   1      35.286  13.231  16.652  0.00  0.00     0.034 C 
ENDBRANCH  18  19
ENDBRANCH  14  18
BRANCH  11  21
HETATM   21  C   UNK N   1      37.634  14.078   9.695  0.00  0.00     0.178 C 
HETATM   22  O   UNK N   1      37.007  14.307   8.676  0.00  0.00    -0.646 OA
BRANCH  21  23
HETATM   23  O   UNK N   1      38.595  14.947  10.065  0.00  0.00    -0.773 OA
HETATM   24  H   UNK N   1      39.304  15.137   9.483  0.00  0.00     0.167 HD
ENDBRANCH  21  23
ENDBRANCH  11  21
ENDBRANCH   7   8
ENDBRANCH   1   7
BRANCH   4  25
HETATM   25  C   UNK N   1      33.173  16.517   7.573  0.00  0.00    -0.012 A 
HETATM   26  C   UNK N   1      31.862  16.986   7.314  0.00  0.00     0.021 A 
HETATM   27  C   UNK N   1      31.460  17.190   5.990  0.00  0.00     0.016 A 
HETATM   28  C   UNK N   1      32.362  16.976   4.942  0.00  0.00     0.001 A 
HETATM   29  C   UNK N   1      33.668  16.552   5.208  0.00  0.00     0.001 A 
HETATM   30  C   UNK N   1      34.074  16.322   6.523  0.00  0.00     0.013 A 
BRANCH  26  31
HETATM   31  C   UNK N   1      30.958  17.372   8.427  0.00  0.00     0.145 A 
HETATM   32  N   UNK N   1      30.965  18.581   9.028  0.00  0.00    -0.271 N 
HETATM   33  N   UNK N   1      30.068  18.511   9.991  0.00  0.00    -0.225 N 
ATOM     34  HN  UNK N   1      31.546  19.384   8.787  1.00  0.00     0.190 HD
HETATM   35  N   UNK N   1      29.524  17.301   9.991  0.00  0.00    -0.005 NA
HETATM   36  H   UNK N   1      29.839  19.240  10.612  0.00  0.00     0.205 HD
HETATM   37  N   UNK N   1      30.051  16.578   9.017  0.00  0.00    -0.266 N 
ATOM     38  HN  UNK N   1      29.817  15.617   8.766  1.00  0.00     0.186 HD
ENDBRANCH  26  31
ENDBRANCH   4  25
TORSDOF 8
ENDMDL
MODEL 3
REMARK VINA RESULT:      -7.4      4.553      7.223
REMARK  8 active torsions:
REMARK  status: ('A' for Active; 'I' for Inactive)
REMARK    1  A    between atoms: O_1  and  C_17 
REMARK    2  A    between atoms: O_1  and  C_30 
REMARK    3  A    between atoms: O_2  and  C_29 
REMARK    4  A    between atoms: N_4  and  C_13 
REMARK    5  A    between atoms: C_13  and  C_15 
REMARK    6  A    between atoms: C_18  and  C_29 
REMARK    7  A    between atoms: C_21  and  C_26 
REMARK    8  A    between atoms: C_28  and  C_34 
ROOT
HETATM    1  C   UNK N   1      35.931  12.045  12.517  0.00  0.00    -0.040 A 
HETATM    2  C   UNK N   1      37.072  11.912  13.305  0.00  0.00     0.010 A 
HETATM    3  C   UNK N   1      34.662  12.035  13.095  0.00  0.00     0.010 A 
HETATM    4  C   UNK N   1      35.654  11.818  15.266  0.00  0.00    -0.025 A 
HETATM    5  C   UNK N   1      36.937  11.822  14.686  0.00  0.00     0.013 A 
HETATM    6  C   UNK N   1      34.522  11.897  14.464  0.00  0.00     0.013 A 
ENDROOT
BRANCH   1   7
HETATM    7  C   UNK N   1      36.086  12.378  11.092  0.00  0.00     0.171 C 
BRANCH   7   8
HETATM    8  N   UNK N   1      34.871  12.636  10.330  0.00  0.00    -0.306 N 
HETATM    9  C   UNK N   1      34.420  13.862   9.992  0.00  0.00     0.082 A 
HETATM   10  C   UNK N   1      33.306  13.697   9.204  0.00  0.00     0.063 A 
HETATM   11  C   UNK N   1      34.920  15.166  10.290  0.00  0.00     0.067 A 
HETATM   12  N   UNK N   1      33.016  12.391   9.065  0.00  0.00    -0.320 N 
HETATM   13  C   UNK N   1      32.630  14.760   8.628  0.00  0.00     0.032 A 
HETATM   14  C   UNK N   1      33.993  11.762   9.758  0.00  0.00     0.227 A 
ATOM     15  HN  UNK N   1      32.240  11.973   8.554  1.00  0.00     0.169 HD
HETATM   16  C   UNK N   1      33.123  16.050   8.859  0.00  0.00     0.003 A 
HETATM   17  C   UNK N   1      34.249  16.248   9.682  0.00  0.00     0.021 A 
BRANCH  14  18
HETATM   18  O   UNK N   1      34.098  10.416   9.840  0.00  0.00    -0.322 OA
BRANCH  18  19
HETATM   19  C   UNK N   1      33.326   9.654  10.683  0.00  0.00     0.174 C 
HETATM   20  C   UNK N   1      34.225   8.757  11.513  0.00  0.00     0.034 C 
ENDBRANCH  18  19
ENDBRANCH  14  18
BRANCH  11  21
HETATM   21  C   UNK N   1      36.052  15.507  11.204  0.00  0.00     0.178 C 
HETATM   22  O   UNK N   1      35.905  15.576  12.411  0.00  0.00    -0.646 OA
BRANCH  21  23
HETATM   23  O   UNK N   1      37.243  15.858  10.682  0.00  0.00    -0.773 OA
HETATM   24  H   UNK N   1      37.956  15.250  10.693  0.00  0.00     0.167 HD
ENDBRANCH  21  23
ENDBRANCH  11  21
ENDBRANCH   7   8
ENDBRANCH   1   7
BRANCH   4  25
HETATM   25  C   UNK N   1      35.482  12.165  16.672  0.00  0.00    -0.012 A 
HETATM   26  C   UNK N   1      35.547  11.144  17.652  0.00  0.00     0.021 A 
HETATM   27  C   UNK N   1      35.400  11.482  19.001  0.00  0.00     0.016 A 
HETATM   28  C   UNK N   1      35.237  12.821  19.374  0.00  0.00     0.001 A 
HETATM   29  C   UNK N   1      35.214  13.829  18.404  0.00  0.00     0.001 A 
HETATM   30  C   UNK N   1      35.336  13.501  17.054  0.00  0.00     0.013 A 
BRANCH  26  31
HETATM   31  C   UNK N   1      35.886   9.748  17.274  0.00  0.00     0.145 A 
HETATM   32  N   UNK N   1      34.975   8.804  16.956  0.00  0.00    -0.271 N 
HETATM   33  N   UNK N   1      35.661   7.700  16.738  0.00  0.00    -0.225 N 
ATOM     34  HN  UNK N   1      33.963   8.921  16.897  1.00  0.00     0.190 HD
HETATM   35  N   UNK N   1      36.952   7.947  16.917  0.00  0.00    -0.005 NA
HETATM   36  H   UNK N   1      35.276   6.830  16.484  0.00  0.00     0.205 HD
HETATM   37  N   UNK N   1      37.119   9.220  17.236  0.00  0.00    -0.266 N 
ATOM     38  HN  UNK N   1      38.001   9.700  17.417  1.00  0.00     0.186 HD
ENDBRANCH  26  31
ENDBRANCH   4  25
TORSDOF 8
ENDMDL
MODEL 4
REMARK VINA RESULT:      -7.3      3.352      8.396
REMARK  8 active torsions:
REMARK  status: ('A' for Active; 'I' for Inactive)
REMARK    1  A    between atoms: O_1  and  C_17 
REMARK    2  A    between atoms: O_1  and  C_30 
REMARK    3  A    between atoms: O_2  and  C_29 
REMARK    4  A    between atoms: N_4  and  C_13 
REMARK    5  A    between atoms: C_13  and  C_15 
REMARK    6  A    between atoms: C_18  and  C_29 
REMARK    7  A    between atoms: C_21  and  C_26 
REMARK    8  A    between atoms: C_28  and  C_34 
ROOT
HETATM    1  C   UNK N   1      32.728  17.086   5.749  0.00  0.00    -0.040 A 
HETATM    2  C   UNK N   1      32.555  17.628   4.476  0.00  0.00     0.010 A 
HETATM    3  C   UNK N   1      31.650  16.529   6.437  0.00  0.00     0.010 A 
HETATM    4  C   UNK N   1      30.220  16.990   4.570  0.00  0.00    -0.025 A 
HETATM    5  C   UNK N   1      31.304  17.559   3.874  0.00  0.00     0.013 A 
HETATM    6  C   UNK N   1      30.394  16.504   5.860  0.00  0.00     0.013 A 
ENDROOT
BRANCH   1   7
HETATM    7  C   UNK N   1      34.092  16.945   6.281  0.00  0.00     0.171 C 
BRANCH   7   8
HETATM    8  N   UNK N   1      34.611  15.593   6.439  0.00  0.00    -0.306 N 
HETATM    9  C   UNK N   1      34.887  15.006   7.623  0.00  0.00     0.082 A 
HETATM   10  C   UNK N   1      35.266  13.710   7.371  0.00  0.00     0.063 A 
HETATM   11  C   UNK N   1      34.809  15.500   8.960  0.00  0.00     0.067 A 
HETATM   12  N   UNK N   1      35.275  13.470   6.048  0.00  0.00    -0.320 N 
HETATM   13  C   UNK N   1      35.557  12.804   8.378  0.00  0.00     0.032 A 
HETATM   14  C   UNK N   1      34.864  14.636   5.500  0.00  0.00     0.227 A 
ATOM     15  HN  UNK N   1      35.533  12.607   5.570  1.00  0.00     0.169 HD
HETATM   16  C   UNK N   1      35.443  13.242   9.704  0.00  0.00     0.003 A 
HETATM   17  C   UNK N   1      35.078  14.572   9.988  0.00  0.00     0.021 A 
BRANCH  14  18
HETATM   18  O   UNK N   1      34.693  14.812   4.170  0.00  0.00    -0.322 OA
BRANCH  18  19
HETATM   19  C   UNK N   1      34.014  13.919   3.376  0.00  0.00     0.174 C 
HETATM   20  C   UNK N   1      32.535  13.975   3.709  0.00  0.00     0.034 C 
ENDBRANCH  18  19
ENDBRANCH  14  18
BRANCH  11  21
HETATM   21  C   UNK N   1      34.510  16.902   9.385  0.00  0.00     0.178 C 
HETATM   22  O   UNK N   1      35.382  17.654   9.780  0.00  0.00    -0.646 OA
BRANCH  21  23
HETATM   23  O   UNK N   1      33.230  17.319   9.440  0.00  0.00    -0.773 OA
HETATM   24  H   UNK N   1      32.931  17.815  10.176  0.00  0.00     0.167 HD
ENDBRANCH  21  23
ENDBRANCH  11  21
ENDBRANCH   7   8
ENDBRANCH   1   7
BRANCH   4  25
HETATM   25  C   UNK N   1      29.051  16.510   3.843  0.00  0.00    -0.012 A 
HETATM   26  C   UNK N   1      27.824  17.208   3.962  0.00  0.00     0.021 A 
HETATM   27  C   UNK N   1      26.709  16.755   3.250  0.00  0.00     0.016 A 
HETATM   28  C   UNK N   1      26.824  15.651   2.396  0.00  0.00     0.001 A 
HETATM   29  C   UNK N   1      28.048  14.991   2.253  0.00  0.00     0.001 A 
HETATM   30  C   UNK N   1      29.161  15.419   2.976  0.00  0.00     0.013 A 
BRANCH  26  31
HETATM   31  C   UNK N   1      27.741  18.474   4.734  0.00  0.00     0.145 A 
HETATM   32  N   UNK N   1      27.242  18.571   5.984  0.00  0.00    -0.271 N 
HETATM   33  N   UNK N   1      27.292  19.851   6.295  0.00  0.00    -0.225 N 
ATOM     34  HN  UNK N   1      26.896  17.810   6.569  1.00  0.00     0.190 HD
HETATM   35  N   UNK N   1      27.801  20.527   5.273  0.00  0.00    -0.005 NA
HETATM   36  H   UNK N   1      26.997  20.243   7.148  0.00  0.00     0.205 HD
HETATM   37  N   UNK N   1      28.103  19.689   4.294  0.00  0.00    -0.266 N 
ATOM     38  HN  UNK N   1      28.524  19.919   3.393  1.00  0.00     0.186 HD
ENDBRANCH  26  31
ENDBRANCH   4  25
TORSDOF 8
ENDMDL
MODEL 5
REMARK VINA RESULT:      -7.2      2.540      8.121
REMARK  8 active torsions:
REMARK  status: ('A' for Active; 'I' for Inactive)
REMARK    1  A    between atoms: O_1  and  C_17 
REMARK    2  A    between atoms: O_1  and  C_30 
REMARK    3  A    between atoms: O_2  and  C_29 
REMARK    4  A    between atoms: N_4  and  C_13 
REMARK    5  A    between atoms: C_13  and  C_15 
REMARK    6  A    between atoms: C_18  and  C_29 
REMARK    7  A    between atoms: C_21  and  C_26 
REMARK    8  A    between atoms: C_28  and  C_34 
ROOT
HETATM    1  C   UNK N   1      34.335  15.760   9.622  0.00  0.00    -0.040 A 
HETATM    2  C   UNK N   1      33.240  14.906   9.505  0.00  0.00     0.010 A 
HETATM    3  C   UNK N   1      34.274  17.066   9.137  0.00  0.00     0.010 A 
HETATM    4  C   UNK N   1      32.002  16.708   8.462  0.00  0.00    -0.025 A 
HETATM    5  C   UNK N   1      32.061  15.387   8.945  0.00  0.00     0.013 A 
HETATM    6  C   UNK N   1      33.119  17.532   8.535  0.00  0.00     0.013 A 
ENDROOT
BRANCH   1   7
HETATM    7  C   UNK N   1      35.491  15.327  10.424  0.00  0.00     0.171 C 
BRANCH   7   8
HETATM    8  N   UNK N   1      36.262  14.195   9.927  0.00  0.00    -0.306 N 
HETATM    9  C   UNK N   1      36.697  13.167  10.685  0.00  0.00     0.082 A 
HETATM   10  C   UNK N   1      37.302  12.257   9.850  0.00  0.00     0.063 A 
HETATM   11  C   UNK N   1      36.590  12.918  12.086  0.00  0.00     0.067 A 
HETATM   12  N   UNK N   1      37.295  12.703   8.582  0.00  0.00    -0.320 N 
HETATM   13  C   UNK N   1      37.805  11.047  10.299  0.00  0.00     0.032 A 
HETATM   14  C   UNK N   1      36.646  13.888   8.654  0.00  0.00     0.227 A 
ATOM     15  HN  UNK N   1      37.687  12.251   7.756  1.00  0.00     0.169 HD
HETATM   16  C   UNK N   1      37.671  10.748  11.660  0.00  0.00     0.003 A 
HETATM   17  C   UNK N   1      37.076  11.673  12.540  0.00  0.00     0.021 A 
BRANCH  14  18
HETATM   18  O   UNK N   1      36.384  14.658   7.574  0.00  0.00    -0.322 OA
BRANCH  18  19
HETATM   19  C   UNK N   1      35.665  14.212   6.490  0.00  0.00     0.174 C 
HETATM   20  C   UNK N   1      34.850  15.359   5.921  0.00  0.00     0.034 C 
ENDBRANCH  18  19
ENDBRANCH  14  18
BRANCH  11  21
HETATM   21  C   UNK N   1      36.053  13.847  13.126  0.00  0.00     0.178 C 
HETATM   22  O   UNK N   1      34.903  13.776  13.520  0.00  0.00    -0.646 OA
BRANCH  21  23
HETATM   23  O   UNK N   1      36.819  14.865  13.565  0.00  0.00    -0.773 OA
HETATM   24  H   UNK N   1      37.173  15.481  12.955  0.00  0.00     0.167 HD
ENDBRANCH  21  23
ENDBRANCH  11  21
ENDBRANCH   7   8
ENDBRANCH   1   7
BRANCH   4  25
HETATM   25  C   UNK N   1      30.714  17.370   8.287  0.00  0.00    -0.012 A 
HETATM   26  C   UNK N   1      30.113  17.391   7.004  0.00  0.00     0.021 A 
HETATM   27  C   UNK N   1      28.870  18.010   6.843  0.00  0.00     0.016 A 
HETATM   28  C   UNK N   1      28.212  18.560   7.950  0.00  0.00     0.001 A 
HETATM   29  C   UNK N   1      28.793  18.500   9.220  0.00  0.00     0.001 A 
HETATM   30  C   UNK N   1      30.043  17.906   9.389  0.00  0.00     0.013 A 
BRANCH  26  31
HETATM   31  C   UNK N   1      30.729  16.664   5.864  0.00  0.00     0.145 A 
HETATM   32  N   UNK N   1      31.542  17.233   4.950  0.00  0.00    -0.271 N 
HETATM   33  N   UNK N   1      31.830  16.284   4.082  0.00  0.00    -0.225 N 
ATOM     34  HN  UNK N   1      31.867  18.201   4.933  1.00  0.00     0.190 HD
HETATM   35  N   UNK N   1      31.216  15.164   4.442  0.00  0.00    -0.005 NA
HETATM   36  H   UNK N   1      32.408  16.389   3.292  0.00  0.00     0.205 HD
HETATM   37  N   UNK N   1      30.536  15.372   5.558  0.00  0.00    -0.266 N 
ATOM     38  HN  UNK N   1      29.980  14.691   6.077  1.00  0.00     0.186 HD
ENDBRANCH  26  31
ENDBRANCH   4  25
TORSDOF 8
ENDMDL
MODEL 6
REMARK VINA RESULT:      -7.1      4.909      7.385
REMARK  8 active torsions:
REMARK  status: ('A' for Active; 'I' for Inactive)
REMARK    1  A    between atoms: O_1  and  C_17 
REMARK    2  A    between atoms: O_1  and  C_30 
REMARK    3  A    between atoms: O_2  and  C_29 
REMARK    4  A    between atoms: N_4  and  C_13 
REMARK    5  A    between atoms: C_13  and  C_15 
REMARK    6  A    between atoms: C_18  and  C_29 
REMARK    7  A    between atoms: C_21  and  C_26 
REMARK    8  A    between atoms: C_28  and  C_34 
ROOT
HETATM    1  C   UNK N   1      27.557  16.305   4.940  0.00  0.00    -0.040 A 
HETATM    2  C   UNK N   1      28.331  15.244   5.406  0.00  0.00     0.010 A 
HETATM    3  C   UNK N   1      27.971  17.623   5.125  0.00  0.00     0.010 A 
HETATM    4  C   UNK N   1      29.970  16.845   6.193  0.00  0.00    -0.025 A 
HETATM    5  C   UNK N   1      29.553  15.512   6.014  0.00  0.00     0.013 A 
HETATM    6  C   UNK N   1      29.162  17.894   5.773  0.00  0.00     0.013 A 
ENDROOT
BRANCH   1   7
HETATM    7  C   UNK N   1      26.390  16.013   4.092  0.00  0.00     0.171 C 
BRANCH   7   8
HETATM    8  N   UNK N   1      25.173  16.774   4.346  0.00  0.00    -0.306 N 
HETATM    9  C   UNK N   1      24.176  16.383   5.167  0.00  0.00     0.082 A 
HETATM   10  C   UNK N   1      23.251  17.398   5.218  0.00  0.00     0.063 A 
HETATM   11  C   UNK N   1      23.999  15.190   5.931  0.00  0.00     0.067 A 
HETATM   12  N   UNK N   1      23.619  18.412   4.416  0.00  0.00    -0.320 N 
HETATM   13  C   UNK N   1      22.127  17.348   6.026  0.00  0.00     0.032 A 
HETATM   14  C   UNK N   1      24.803  18.009   3.898  0.00  0.00     0.227 A 
ATOM     15  HN  UNK N   1      23.121  19.284   4.239  1.00  0.00     0.169 HD
HETATM   16  C   UNK N   1      21.948  16.214   6.827  0.00  0.00     0.003 A 
HETATM   17  C   UNK N   1      22.869  15.150   6.776  0.00  0.00     0.021 A 
BRANCH  14  18
HETATM   18  O   UNK N   1      25.544  18.768   3.059  0.00  0.00    -0.322 OA
BRANCH  18  19
HETATM   19  C   UNK N   1      25.531  20.142   3.081  0.00  0.00     0.174 C 
HETATM   20  C   UNK N   1      26.545  20.638   4.094  0.00  0.00     0.034 C 
ENDBRANCH  18  19
ENDBRANCH  14  18
BRANCH  11  21
HETATM   21  C   UNK N   1      24.860  13.969   5.905  0.00  0.00     0.178 C 
HETATM   22  O   UNK N   1      24.795  13.155   5.001  0.00  0.00    -0.646 OA
BRANCH  21  23
HETATM   23  O   UNK N   1      25.654  13.695   6.958  0.00  0.00    -0.773 OA
HETATM   24  H   UNK N   1      26.143  12.896   6.981  0.00  0.00     0.167 HD
ENDBRANCH  21  23
ENDBRANCH  11  21
ENDBRANCH   7   8
ENDBRANCH   1   7
BRANCH   4  25
HETATM   25  C   UNK N   1      31.380  17.151   6.407  0.00  0.00    -0.012 A 
HETATM   26  C   UNK N   1      31.801  17.639   7.668  0.00  0.00     0.021 A 
HETATM   27  C   UNK N   1      33.156  17.914   7.875  0.00  0.00     0.016 A 
HETATM   28  C   UNK N   1      34.086  17.665   6.858  0.00  0.00     0.001 A 
HETATM   29  C   UNK N   1      33.667  17.146   5.629  0.00  0.00     0.001 A 
HETATM   30  C   UNK N   1      32.316  16.889   5.403  0.00  0.00     0.013 A 
BRANCH  26  31
HETATM   31  C   UNK N   1      30.845  17.746   8.800  0.00  0.00     0.145 A 
HETATM   32  N   UNK N   1      30.495  16.717   9.600  0.00  0.00    -0.271 N 
HETATM   33  N   UNK N   1      29.596  17.199  10.435  0.00  0.00    -0.225 N 
ATOM     34  HN  UNK N   1      30.852  15.762   9.565  1.00  0.00     0.190 HD
HETATM   35  N   UNK N   1      29.392  18.481  10.163  0.00  0.00    -0.005 NA
HETATM   36  H   UNK N   1      29.147  16.688  11.147  0.00  0.00     0.205 HD
HETATM   37  N   UNK N   1      30.170  18.849   9.157  0.00  0.00    -0.266 N 
ATOM     38  HN  UNK N   1      30.241  19.778   8.741  1.00  0.00     0.186 HD
ENDBRANCH  26  31
ENDBRANCH   4  25
TORSDOF 8
ENDMDL
MODEL 7
REMARK VINA RESULT:      -7.1      2.714      8.033
REMARK  8 active torsions:
REMARK  status: ('A' for Active; 'I' for Inactive)
REMARK    1  A    between atoms: O_1  and  C_17 
REMARK    2  A    between atoms: O_1  and  C_30 
REMARK    3  A    between atoms: O_2  and  C_29 
REMARK    4  A    between atoms: N_4  and  C_13 
REMARK    5  A    between atoms: C_13  and  C_15 
REMARK    6  A    between atoms: C_18  and  C_29 
REMARK    7  A    between atoms: C_21  and  C_26 
REMARK    8  A    between atoms: C_28  and  C_34 
ROOT
HETATM    1  C   UNK N   1      34.318  15.277   7.792  0.00  0.00    -0.040 A 
HETATM    2  C   UNK N   1      33.137  14.538   7.767  0.00  0.00     0.010 A 
HETATM    3  C   UNK N   1      34.298  16.658   7.600  0.00  0.00     0.010 A 
HETATM    4  C   UNK N   1      31.909  16.596   7.412  0.00  0.00    -0.025 A 
HETATM    5  C   UNK N   1      31.926  15.200   7.600  0.00  0.00     0.013 A 
HETATM    6  C   UNK N   1      33.099  17.313   7.385  0.00  0.00     0.013 A 
ENDROOT
BRANCH   1   7
HETATM    7  C   UNK N   1      35.564  14.610   8.204  0.00  0.00     0.171 C 
BRANCH   7   8
HETATM    8  N   UNK N   1      35.440  13.401   9.008  0.00  0.00    -0.306 N 
HETATM    9  C   UNK N   1      35.410  13.372  10.357  0.00  0.00     0.082 A 
HETATM   10  C   UNK N   1      35.193  12.072  10.744  0.00  0.00     0.063 A 
HETATM   11  C   UNK N   1      35.528  14.415  11.324  0.00  0.00     0.067 A 
HETATM   12  N   UNK N   1      35.124  11.265   9.670  0.00  0.00    -0.320 N 
HETATM   13  C   UNK N   1      35.042  11.698  12.069  0.00  0.00     0.032 A 
HETATM   14  C   UNK N   1      35.271  12.104   8.619  0.00  0.00     0.227 A 
ATOM     15  HN  UNK N   1      34.990  10.255   9.653  1.00  0.00     0.169 HD
HETATM   16  C   UNK N   1      35.102  12.705  13.042  0.00  0.00     0.003 A 
HETATM   17  C   UNK N   1      35.346  14.042  12.673  0.00  0.00     0.021 A 
BRANCH  14  18
HETATM   18  O   UNK N   1      35.220  11.697   7.330  0.00  0.00    -0.322 OA
BRANCH  18  19
HETATM   19  C   UNK N   1      34.477  10.619   6.912  0.00  0.00     0.174 C 
HETATM   20  C   UNK N   1      33.126  11.103   6.417  0.00  0.00     0.034 C 
ENDBRANCH  18  19
ENDBRANCH  14  18
BRANCH  11  21
HETATM   21  C   UNK N   1      35.860  15.849  11.065  0.00  0.00     0.178 C 
HETATM   22  O   UNK N   1      34.999  16.707  11.004  0.00  0.00    -0.646 OA
BRANCH  21  23
HETATM   23  O   UNK N   1      37.130  16.195  10.780  0.00  0.00    -0.773 OA
HETATM   24  H   UNK N   1      37.303  16.880  10.166  0.00  0.00     0.167 HD
ENDBRANCH  21  23
ENDBRANCH  11  21
ENDBRANCH   7   8
ENDBRANCH   1   7
BRANCH   4  25
HETATM   25  C   UNK N   1      30.694  17.358   7.673  0.00  0.00    -0.012 A 
HETATM   26  C   UNK N   1      29.813  17.649   6.602  0.00  0.00     0.021 A 
HETATM   27  C   UNK N   1      28.640  18.364   6.858  0.00  0.00     0.016 A 
HETATM   28  C   UNK N   1      28.323  18.746   8.167  0.00  0.00     0.001 A 
HETATM   29  C   UNK N   1      29.177  18.420   9.226  0.00  0.00     0.001 A 
HETATM   30  C   UNK N   1      30.362  17.727   8.979  0.00  0.00     0.013 A 
BRANCH  26  31
HETATM   31  C   UNK N   1      30.063  17.103   5.243  0.00  0.00     0.145 A 
HETATM   32  N   UNK N   1      30.714  17.766   4.265  0.00  0.00    -0.271 N 
HETATM   33  N   UNK N   1      30.680  16.977   3.209  0.00  0.00    -0.225 N 
ATOM     34  HN  UNK N   1      31.143  18.690   4.328  1.00  0.00     0.190 HD
HETATM   35  N   UNK N   1      30.029  15.864   3.519  0.00  0.00    -0.005 NA
HETATM   36  H   UNK N   1      31.075  17.182   2.331  0.00  0.00     0.205 HD
HETATM   37  N   UNK N   1      29.648  15.911   4.785  0.00  0.00    -0.266 N 
ATOM     38  HN  UNK N   1      29.143  15.192   5.305  1.00  0.00     0.186 HD
ENDBRANCH  26  31
ENDBRANCH   4  25
TORSDOF 8
ENDMDL
MODEL 8
REMARK VINA RESULT:      -7.1      2.958      4.187
REMARK  8 active torsions:
REMARK  status: ('A' for Active; 'I' for Inactive)
REMARK    1  A    between atoms: O_1  and  C_17 
REMARK    2  A    between atoms: O_1  and  C_30 
REMARK    3  A    between atoms: O_2  and  C_29 
REMARK    4  A    between atoms: N_4  and  C_13 
REMARK    5  A    between atoms: C_13  and  C_15 
REMARK    6  A    between atoms: C_18  and  C_29 
REMARK    7  A    between atoms: C_21  and  C_26 
REMARK    8  A    between atoms: C_28  and  C_34 
ROOT
HETATM    1  C   UNK N   1      35.541  14.142   7.024  0.00  0.00    -0.040 A 
HETATM    2  C   UNK N   1      36.703  13.839   7.730  0.00  0.00     0.010 A 
HETATM    3  C   UNK N   1      34.294  13.732   7.496  0.00  0.00     0.010 A 
HETATM    4  C   UNK N   1      35.342  12.761   9.420  0.00  0.00    -0.025 A 
HETATM    5  C   UNK N   1      36.604  13.168   8.944  0.00  0.00     0.013 A 
HETATM    6  C   UNK N   1      34.197  13.022   8.678  0.00  0.00     0.013 A 
ENDROOT
BRANCH   1   7
HETATM    7  C   UNK N   1      35.627  15.053   5.871  0.00  0.00     0.171 C 
BRANCH   7   8
HETATM    8  N   UNK N   1      34.611  14.917   4.836  0.00  0.00    -0.306 N 
HETATM    9  C   UNK N   1      33.546  15.733   4.690  0.00  0.00     0.082 A 
HETATM   10  C   UNK N   1      32.872  15.345   3.557  0.00  0.00     0.063 A 
HETATM   11  C   UNK N   1      33.099  16.846   5.464  0.00  0.00     0.067 A 
HETATM   12  N   UNK N   1      33.465  14.276   2.998  0.00  0.00    -0.320 N 
HETATM   13  C   UNK N   1      31.759  16.018   3.078  0.00  0.00     0.032 A 
HETATM   14  C   UNK N   1      34.531  14.037   3.796  0.00  0.00     0.227 A 
ATOM     15  HN  UNK N   1      33.177  13.763   2.165  1.00  0.00     0.169 HD
HETATM   16  C   UNK N   1      31.324  17.146   3.786  0.00  0.00     0.003 A 
HETATM   17  C   UNK N   1      31.983  17.550   4.963  0.00  0.00     0.021 A 
BRANCH  14  18
HETATM   18  O   UNK N   1      35.430  13.054   3.561  0.00  0.00    -0.322 OA
BRANCH  18  19
HETATM   19  C   UNK N   1      36.501  13.205   2.713  0.00  0.00     0.174 C 
HETATM   20  C   UNK N   1      37.787  13.179   3.518  0.00  0.00     0.034 C 
ENDBRANCH  18  19
ENDBRANCH  14  18
BRANCH  11  21
HETATM   21  C   UNK N   1      33.664  17.323   6.763  0.00  0.00     0.178 C 
HETATM   22  O   UNK N   1      34.571  18.134   6.811  0.00  0.00    -0.646 OA
BRANCH  21  23
HETATM   23  O   UNK N   1      33.241  16.765   7.914  0.00  0.00    -0.773 OA
HETATM   24  H   UNK N   1      32.671  16.022   7.893  0.00  0.00     0.167 HD
ENDBRANCH  21  23
ENDBRANCH  11  21
ENDBRANCH   7   8
ENDBRANCH   1   7
BRANCH   4  25
HETATM   25  C   UNK N   1      35.151  12.469  10.836  0.00  0.00    -0.012 A 
HETATM   26  C   UNK N   1      35.170  13.531  11.773  0.00  0.00     0.021 A 
HETATM   27  C   UNK N   1      34.968  13.249  13.128  0.00  0.00     0.016 A 
HETATM   28  C   UNK N   1      34.705  11.937  13.540  0.00  0.00     0.001 A 
HETATM   29  C   UNK N   1      34.648  10.900  12.603  0.00  0.00     0.001 A 
HETATM   30  C   UNK N   1      34.870  11.165  11.252  0.00  0.00     0.013 A 
BRANCH  26  31
HETATM   31  C   UNK N   1      35.282  14.941  11.322  0.00  0.00     0.145 A 
HETATM   32  N   UNK N   1      34.247  15.681  10.871  0.00  0.00    -0.271 N 
HETATM   33  N   UNK N   1      34.759  16.843  10.520  0.00  0.00    -0.225 N 
ATOM     34  HN  UNK N   1      33.268  15.397  10.813  1.00  0.00     0.190 HD
HETATM   35  N   UNK N   1      36.067  16.827  10.742  0.00  0.00    -0.005 NA
HETATM   36  H   UNK N   1      34.252  17.602  10.152  0.00  0.00     0.205 HD
HETATM   37  N   UNK N   1      36.415  15.658  11.255  0.00  0.00    -0.266 N 
ATOM     38  HN  UNK N   1      37.349  15.363  11.541  1.00  0.00     0.186 HD
ENDBRANCH  26  31
ENDBRANCH   4  25
TORSDOF 8
ENDMDL
MODEL 9
REMARK VINA RESULT:      -6.8      7.603     10.165
REMARK  8 active torsions:
REMARK  status: ('A' for Active; 'I' for Inactive)
REMARK    1  A    between atoms: O_1  and  C_17 
REMARK    2  A    between atoms: O_1  and  C_30 
REMARK    3  A    between atoms: O_2  and  C_29 
REMARK    4  A    between atoms: N_4  and  C_13 
REMARK    5  A    between atoms: C_13  and  C_15 
REMARK    6  A    between atoms: C_18  and  C_29 
REMARK    7  A    between atoms: C_21  and  C_26 
REMARK    8  A    between atoms: C_28  and  C_34 
ROOT
HETATM    1  C   UNK N   1      25.598  14.659   5.436  0.00  0.00    -0.040 A 
HETATM    2  C   UNK N   1      25.886  15.369   6.601  0.00  0.00     0.010 A 
HETATM    3  C   UNK N   1      25.030  13.387   5.501  0.00  0.00     0.010 A 
HETATM    4  C   UNK N   1      24.972  13.534   7.892  0.00  0.00    -0.025 A 
HETATM    5  C   UNK N   1      25.551  14.817   7.832  0.00  0.00     0.013 A 
HETATM    6  C   UNK N   1      24.741  12.815   6.726  0.00  0.00     0.013 A 
ENDROOT
BRANCH   1   7
HETATM    7  C   UNK N   1      25.731  15.339   4.138  0.00  0.00     0.171 C 
BRANCH   7   8
HETATM    8  N   UNK N   1      26.729  16.396   4.038  0.00  0.00    -0.306 N 
HETATM    9  C   UNK N   1      26.485  17.708   4.240  0.00  0.00     0.082 A 
HETATM   10  C   UNK N   1      27.682  18.377   4.148  0.00  0.00     0.063 A 
HETATM   11  C   UNK N   1      25.276  18.407   4.537  0.00  0.00     0.067 A 
HETATM   12  N   UNK N   1      28.678  17.523   3.854  0.00  0.00    -0.320 N 
HETATM   13  C   UNK N   1      27.799  19.740   4.369  0.00  0.00     0.032 A 
HETATM   14  C   UNK N   1      28.070  16.316   3.799  0.00  0.00     0.227 A 
ATOM     15  HN  UNK N   1      29.664  17.737   3.707  1.00  0.00     0.169 HD
HETATM   16  C   UNK N   1      26.640  20.447   4.712  0.00  0.00     0.003 A 
HETATM   17  C   UNK N   1      25.397  19.790   4.790  0.00  0.00     0.021 A 
BRANCH  14  18
HETATM   18  O   UNK N   1      28.733  15.160   3.565  0.00  0.00    -0.322 OA
BRANCH  18  19
HETATM   19  C   UNK N   1      29.304  14.408   4.564  0.00  0.00     0.174 C 
HETATM   20  C   UNK N   1      28.746  12.998   4.512  0.00  0.00     0.034 C 
ENDBRANCH  18  19
ENDBRANCH  14  18
BRANCH  11  21
HETATM   21  C   UNK N   1      23.894  17.838   4.572  0.00  0.00     0.178 C 
HETATM   22  O   UNK N   1      23.199  17.775   3.574  0.00  0.00    -0.646 OA
BRANCH  21  23
HETATM   23  O   UNK N   1      23.353  17.485   5.754  0.00  0.00    -0.773 OA
HETATM   24  H   UNK N   1      23.904  17.343   6.498  0.00  0.00     0.167 HD
ENDBRANCH  21  23
ENDBRANCH  11  21
ENDBRANCH   7   8
ENDBRANCH   1   7
BRANCH   4  25
HETATM   25  C   UNK N   1      24.224  13.120   9.074  0.00  0.00    -0.012 A 
HETATM   26  C   UNK N   1      22.828  13.352   9.128  0.00  0.00     0.021 A 
HETATM   27  C   UNK N   1      22.110  12.938  10.254  0.00  0.00     0.016 A 
HETATM   28  C   UNK N   1      22.763  12.262  11.292  0.00  0.00     0.001 A 
HETATM   29  C   UNK N   1      24.135  12.002  11.213  0.00  0.00     0.001 A 
HETATM   30  C   UNK N   1      24.865  12.430  10.106  0.00  0.00     0.013 A 
BRANCH  26  31
HETATM   31  C   UNK N   1      22.105  13.918   7.959  0.00  0.00     0.145 A 
HETATM   32  N   UNK N   1      21.360  13.190   7.101  0.00  0.00    -0.271 N 
HETATM   33  N   UNK N   1      20.938  14.036   6.183  0.00  0.00    -0.225 N 
ATOM     34  HN  UNK N   1      21.164  12.190   7.151  1.00  0.00     0.190 HD
HETATM   35  N   UNK N   1      21.405  15.247   6.459  0.00  0.00    -0.005 NA
HETATM   36  H   UNK N   1      20.367  13.806   5.415  0.00  0.00     0.205 HD
HETATM   37  N   UNK N   1      22.124  15.202   7.569  0.00  0.00    -0.266 N 
ATOM     38  HN  UNK N   1      22.593  15.980   8.032  1.00  0.00     0.186 HD
ENDBRANCH  26  31
ENDBRANCH   4  25
TORSDOF 8
ENDMDL
