REMARK  2 active torsions:
REMARK  status: ('A' for Active; 'I' for Inactive)
REMARK    1  A    between atoms: C_4  and  C_6 
REMARK    2  A    between atoms: C_6  and  C_8 
ROOT
HETATM    1  N   UNK N   1       3.279   3.038   0.000  0.00  0.00    -0.378 N 
HETATM    2  N   UNK N   1       4.331   1.084  -0.000  0.00  0.00    -0.378 N 
ATOM      3  HN  UNK N   1       4.469   0.074  -0.000  1.00  0.00     0.160 HD
HETATM    4  C   UNK N   1       3.195   1.651  -0.000  0.00  0.00     0.077 A 
HETATM    5  C   UNK N   1       4.668   3.416   0.000  0.00  0.00     0.140 A 
HETATM    6  C   UNK N   1       5.401   2.053   0.000  0.00  0.00     0.140 A 
HETATM    7  H   UNK N   1       2.515   3.660   0.000  0.00  0.00     0.160 HD
ENDROOT
BRANCH   4   8
HETATM    8  C   UNK N   1       1.871   0.917  -0.000  0.00  0.00     0.114 C 
BRANCH   8   9
HETATM    9  C   UNK N   1       1.890  -0.593  -0.000  0.00  0.00    -0.051 A 
HETATM   10  C   UNK N   1       3.083  -1.334  -0.000  0.00  0.00     0.007 A 
HETATM   11  C   UNK N   1       3.058  -2.728   0.000  0.00  0.00     0.001 A 
HETATM   12  C   UNK N   1       1.835  -3.400   0.000  0.00  0.00     0.000 A 
HETATM   13  C   UNK N   1       0.640  -2.675   0.000  0.00  0.00     0.001 A 
HETATM   14  C   UNK N   1       0.668  -1.276  -0.000  0.00  0.00     0.007 A 
ENDBRANCH   8   9
ENDBRANCH   4   8
TORSDOF 2
