MODEL 1
REMARK VINA RESULT:      -5.1      0.000      0.000
REMARK  2 active torsions:
REMARK  status: ('A' for Active; 'I' for Inactive)
REMARK    1  A    between atoms: C_4  and  C_6 
REMARK    2  A    between atoms: C_6  and  C_8 
ROOT
HETATM    1  N   UNK N   1      35.044  15.689   8.955  0.00  0.00    -0.378 N 
HETATM    2  N   UNK N   1      35.039  17.244  10.538  0.00  0.00    -0.378 N 
ATOM      3  HN  UNK N   1      34.933  18.156  10.979  1.00  0.00     0.160 HD
HETATM    4  C   UNK N   1      34.828  17.016   9.307  0.00  0.00     0.077 A 
HETATM    5  C   UNK N   1      35.451  14.960  10.127  0.00  0.00     0.140 A 
HETATM    6  C   UNK N   1      35.448  16.045  11.231  0.00  0.00     0.140 A 
HETATM    7  H   UNK N   1      34.936  15.309   8.052  0.00  0.00     0.160 HD
ENDROOT
BRANCH   4   8
HETATM    8  C   UNK N   1      34.388  18.061   8.305  0.00  0.00     0.114 C 
BRANCH   8   9
HETATM    9  C   UNK N   1      33.305  17.695   7.318  0.00  0.00    -0.051 A 
HETATM   10  C   UNK N   1      31.974  17.468   7.705  0.00  0.00     0.007 A 
HETATM   11  C   UNK N   1      31.004  17.132   6.762  0.00  0.00     0.001 A 
HETATM   12  C   UNK N   1      31.354  17.017   5.416  0.00  0.00     0.000 A 
HETATM   13  C   UNK N   1      32.675  17.240   5.017  0.00  0.00     0.001 A 
HETATM   14  C   UNK N   1      33.647  17.578   5.965  0.00  0.00     0.007 A 
ENDBRANCH   8   9
ENDBRANCH   4   8
TORSDOF 2
ENDMDL
MODEL 2
REMARK VINA RESULT:      -5.1      4.664      8.795
REMARK  2 active torsions:
REMARK  status: ('A' for Active; 'I' for Inactive)
REMARK    1  A    between atoms: C_4  and  C_6 
REMARK    2  A    between atoms: C_6  and  C_8 
ROOT
HETATM    1  N   UNK N   1      36.377  15.306  12.287  0.00  0.00    -0.378 N 
HETATM    2  N   UNK N   1      34.790  13.758  12.207  0.00  0.00    -0.378 N 
ATOM      3  HN  UNK N   1      34.268  12.913  12.437  1.00  0.00     0.160 HD
HETATM    4  C   UNK N   1      35.862  14.116  12.785  0.00  0.00     0.077 A 
HETATM    5  C   UNK N   1      35.512  15.781  11.239  0.00  0.00     0.140 A 
HETATM    6  C   UNK N   1      34.405  14.701  11.184  0.00  0.00     0.140 A 
HETATM    7  H   UNK N   1      37.199  15.752  12.599  0.00  0.00     0.160 HD
ENDROOT
BRANCH   4   8
HETATM    8  C   UNK N   1      36.532  13.345  13.903  0.00  0.00     0.114 C 
BRANCH   8   9
HETATM    9  C   UNK N   1      36.297  13.797  15.324  0.00  0.00    -0.051 A 
HETATM   10  C   UNK N   1      37.002  14.865  15.904  0.00  0.00     0.007 A 
HETATM   11  C   UNK N   1      36.756  15.252  17.220  0.00  0.00     0.001 A 
HETATM   12  C   UNK N   1      35.799  14.573  17.976  0.00  0.00     0.000 A 
HETATM   13  C   UNK N   1      35.091  13.508  17.412  0.00  0.00     0.001 A 
HETATM   14  C   UNK N   1      35.339  13.122  16.090  0.00  0.00     0.007 A 
ENDBRANCH   8   9
ENDBRANCH   4   8
TORSDOF 2
ENDMDL
MODEL 3
REMARK VINA RESULT:      -5.1     17.580     18.962
REMARK  2 active torsions:
REMARK  status: ('A' for Active; 'I' for Inactive)
REMARK    1  A    between atoms: C_4  and  C_6 
REMARK    2  A    between atoms: C_6  and  C_8 
ROOT
HETATM    1  N   UNK N   1      27.273  28.732  -2.591  0.00  0.00    -0.378 N 
HETATM    2  N   UNK N   1      26.166  30.388  -3.570  0.00  0.00    -0.378 N 
ATOM      3  HN  UNK N   1      25.504  30.863  -4.183  1.00  0.00     0.160 HD
HETATM    4  C   UNK N   1      26.303  29.127  -3.505  0.00  0.00     0.077 A 
HETATM    5  C   UNK N   1      27.839  29.907  -1.982  0.00  0.00     0.140 A 
HETATM    6  C   UNK N   1      27.067  31.062  -2.665  0.00  0.00     0.140 A 
HETATM    7  H   UNK N   1      27.530  27.802  -2.392  0.00  0.00     0.160 HD
ENDROOT
BRANCH   4   8
HETATM    8  C   UNK N   1      25.508  28.135  -4.326  0.00  0.00     0.114 C 
BRANCH   8   9
HETATM    9  C   UNK N   1      26.079  27.679  -5.647  0.00  0.00    -0.051 A 
HETATM   10  C   UNK N   1      27.262  28.211  -6.183  0.00  0.00     0.007 A 
HETATM   11  C   UNK N   1      27.757  27.763  -7.407  0.00  0.00     0.001 A 
HETATM   12  C   UNK N   1      27.072  26.772  -8.112  0.00  0.00     0.000 A 
HETATM   13  C   UNK N   1      25.892  26.233  -7.590  0.00  0.00     0.001 A 
HETATM   14  C   UNK N   1      25.398  26.686  -6.361  0.00  0.00     0.007 A 
ENDBRANCH   8   9
ENDBRANCH   4   8
TORSDOF 2
ENDMDL
MODEL 4
REMARK VINA RESULT:      -4.9      5.725      9.583
REMARK  2 active torsions:
REMARK  status: ('A' for Active; 'I' for Inactive)
REMARK    1  A    between atoms: C_4  and  C_6 
REMARK    2  A    between atoms: C_6  and  C_8 
ROOT
HETATM    1  N   UNK N   1      35.077  13.010  12.632  0.00  0.00    -0.378 N 
HETATM    2  N   UNK N   1      36.726  14.388  13.189  0.00  0.00    -0.378 N 
ATOM      3  HN  UNK N   1      37.561  14.737  13.657  1.00  0.00     0.160 HD
HETATM    4  C   UNK N   1      36.214  13.245  13.396  0.00  0.00     0.077 A 
HETATM    5  C   UNK N   1      34.823  14.169  11.816  0.00  0.00     0.140 A 
HETATM    6  C   UNK N   1      35.973  15.129  12.205  0.00  0.00     0.140 A 
HETATM    7  H   UNK N   1      34.535  12.188  12.645  0.00  0.00     0.160 HD
ENDROOT
BRANCH   4   8
HETATM    8  C   UNK N   1      36.763  12.223  14.369  0.00  0.00     0.114 C 
BRANCH   8   9
HETATM    9  C   UNK N   1      36.207  12.201  15.773  0.00  0.00    -0.051 A 
HETATM   10  C   UNK N   1      35.647  13.336  16.382  0.00  0.00     0.007 A 
HETATM   11  C   UNK N   1      35.143  13.274  17.681  0.00  0.00     0.001 A 
HETATM   12  C   UNK N   1      35.195  12.072  18.388  0.00  0.00     0.000 A 
HETATM   13  C   UNK N   1      35.750  10.935  17.794  0.00  0.00     0.001 A 
HETATM   14  C   UNK N   1      36.254  11.000  16.491  0.00  0.00     0.007 A 
ENDBRANCH   8   9
ENDBRANCH   4   8
TORSDOF 2
ENDMDL
MODEL 5
REMARK VINA RESULT:      -4.9      0.735      1.646
REMARK  2 active torsions:
REMARK  status: ('A' for Active; 'I' for Inactive)
REMARK    1  A    between atoms: C_4  and  C_6 
REMARK    2  A    between atoms: C_6  and  C_8 
ROOT
HETATM    1  N   UNK N   1      34.978  15.873   8.653  0.00  0.00    -0.378 N 
HETATM    2  N   UNK N   1      34.938  17.375  10.287  0.00  0.00    -0.378 N 
ATOM      3  HN  UNK N   1      34.756  18.252  10.772  1.00  0.00     0.160 HD
HETATM    4  C   UNK N   1      34.621  17.147   9.078  0.00  0.00     0.077 A 
HETATM    5  C   UNK N   1      35.615  15.184   9.745  0.00  0.00     0.140 A 
HETATM    6  C   UNK N   1      35.587  16.232  10.883  0.00  0.00     0.140 A 
HETATM    7  H   UNK N   1      34.822  15.503   7.754  0.00  0.00     0.160 HD
ENDROOT
BRANCH   4   8
HETATM    8  C   UNK N   1      33.927  18.142   8.172  0.00  0.00     0.114 C 
BRANCH   8   9
HETATM    9  C   UNK N   1      32.606  17.747   7.556  0.00  0.00    -0.051 A 
HETATM   10  C   UNK N   1      32.482  17.380   6.206  0.00  0.00     0.007 A 
HETATM   11  C   UNK N   1      31.243  17.022   5.674  0.00  0.00     0.001 A 
HETATM   12  C   UNK N   1      30.111  17.026   6.490  0.00  0.00     0.000 A 
HETATM   13  C   UNK N   1      30.221  17.389   7.835  0.00  0.00     0.001 A 
HETATM   14  C   UNK N   1      31.464  17.748   8.366  0.00  0.00     0.007 A 
ENDBRANCH   8   9
ENDBRANCH   4   8
TORSDOF 2
ENDMDL
MODEL 6
REMARK VINA RESULT:      -4.8     17.378     18.921
REMARK  2 active torsions:
REMARK  status: ('A' for Active; 'I' for Inactive)
REMARK    1  A    between atoms: C_4  and  C_6 
REMARK    2  A    between atoms: C_6  and  C_8 
ROOT
HETATM    1  N   UNK N   1      27.359  24.318  -6.744  0.00  0.00    -0.378 N 
HETATM    2  N   UNK N   1      25.307  23.828  -7.434  0.00  0.00    -0.378 N 
ATOM      3  HN  UNK N   1      24.362  23.964  -7.792  1.00  0.00     0.160 HD
HETATM    4  C   UNK N   1      26.139  24.767  -7.238  0.00  0.00     0.077 A 
HETATM    5  C   UNK N   1      27.301  22.887  -6.604  0.00  0.00     0.140 A 
HETATM    6  C   UNK N   1      25.870  22.546  -7.084  0.00  0.00     0.140 A 
HETATM    7  H   UNK N   1      28.134  24.886  -6.527  0.00  0.00     0.160 HD
ENDROOT
BRANCH   4   8
HETATM    8  C   UNK N   1      25.859  26.230  -7.505  0.00  0.00     0.114 C 
BRANCH   8   9
HETATM    9  C   UNK N   1      26.117  27.222  -6.395  0.00  0.00    -0.051 A 
HETATM   10  C   UNK N   1      27.169  28.150  -6.441  0.00  0.00     0.007 A 
HETATM   11  C   UNK N   1      27.374  29.050  -5.395  0.00  0.00     0.001 A 
HETATM   12  C   UNK N   1      26.524  29.032  -4.288  0.00  0.00     0.000 A 
HETATM   13  C   UNK N   1      25.473  28.113  -4.230  0.00  0.00     0.001 A 
HETATM   14  C   UNK N   1      25.270  27.211  -5.281  0.00  0.00     0.007 A 
ENDBRANCH   8   9
ENDBRANCH   4   8
TORSDOF 2
ENDMDL
MODEL 7
REMARK VINA RESULT:      -4.8     14.074     16.091
REMARK  2 active torsions:
REMARK  status: ('A' for Active; 'I' for Inactive)
REMARK    1  A    between atoms: C_4  and  C_6 
REMARK    2  A    between atoms: C_6  and  C_8 
ROOT
HETATM    1  N   UNK N   1      29.203  23.357  -2.482  0.00  0.00    -0.378 N 
HETATM    2  N   UNK N   1      29.205  24.529  -4.367  0.00  0.00    -0.378 N 
ATOM      3  HN  UNK N   1      28.851  25.058  -5.163  1.00  0.00     0.160 HD
HETATM    4  C   UNK N   1      28.475  24.031  -3.456  0.00  0.00     0.077 A 
HETATM    5  C   UNK N   1      30.601  23.434  -2.816  0.00  0.00     0.140 A 
HETATM    6  C   UNK N   1      30.602  24.251  -4.130  0.00  0.00     0.140 A 
HETATM    7  H   UNK N   1      28.825  22.902  -1.694  0.00  0.00     0.160 HD
ENDROOT
BRANCH   4   8
HETATM    8  C   UNK N   1      26.966  24.144  -3.409  0.00  0.00     0.114 C 
BRANCH   8   9
HETATM    9  C   UNK N   1      26.322  25.371  -4.009  0.00  0.00    -0.051 A 
HETATM   10  C   UNK N   1      25.677  25.354  -5.256  0.00  0.00     0.007 A 
HETATM   11  C   UNK N   1      25.094  26.509  -5.775  0.00  0.00     0.001 A 
HETATM   12  C   UNK N   1      25.149  27.700  -5.049  0.00  0.00     0.000 A 
HETATM   13  C   UNK N   1      25.788  27.731  -3.806  0.00  0.00     0.001 A 
HETATM   14  C   UNK N   1      26.372  26.570  -3.288  0.00  0.00     0.007 A 
ENDBRANCH   8   9
ENDBRANCH   4   8
TORSDOF 2
ENDMDL
MODEL 8
REMARK VINA RESULT:      -4.8      5.810      9.328
REMARK  2 active torsions:
REMARK  status: ('A' for Active; 'I' for Inactive)
REMARK    1  A    between atoms: C_4  and  C_6 
REMARK    2  A    between atoms: C_6  and  C_8 
ROOT
HETATM    1  N   UNK N   1      37.223  13.755  12.102  0.00  0.00    -0.378 N 
HETATM    2  N   UNK N   1      35.094  13.427  12.638  0.00  0.00    -0.378 N 
ATOM      3  HN  UNK N   1      34.254  13.358  13.210  1.00  0.00     0.160 HD
HETATM    4  C   UNK N   1      36.243  13.729  13.087  0.00  0.00     0.077 A 
HETATM    5  C   UNK N   1      36.617  13.421  10.840  0.00  0.00     0.140 A 
HETATM    6  C   UNK N   1      35.133  13.192  11.214  0.00  0.00     0.140 A 
HETATM    7  H   UNK N   1      38.174  13.967  12.244  0.00  0.00     0.160 HD
ENDROOT
BRANCH   4   8
HETATM    8  C   UNK N   1      36.542  14.035  14.539  0.00  0.00     0.114 C 
BRANCH   8   9
HETATM    9  C   UNK N   1      36.253  12.969  15.569  0.00  0.00    -0.051 A 
HETATM   10  C   UNK N   1      36.729  11.653  15.448  0.00  0.00     0.007 A 
HETATM   11  C   UNK N   1      36.441  10.698  16.422  0.00  0.00     0.001 A 
HETATM   12  C   UNK N   1      35.670  11.048  17.531  0.00  0.00     0.000 A 
HETATM   13  C   UNK N   1      35.191  12.354  17.664  0.00  0.00     0.001 A 
HETATM   14  C   UNK N   1      35.482  13.311  16.686  0.00  0.00     0.007 A 
ENDBRANCH   8   9
ENDBRANCH   4   8
TORSDOF 2
ENDMDL
MODEL 9
REMARK VINA RESULT:      -4.6     16.571     17.651
REMARK  2 active torsions:
REMARK  status: ('A' for Active; 'I' for Inactive)
REMARK    1  A    between atoms: C_4  and  C_6 
REMARK    2  A    between atoms: C_6  and  C_8 
ROOT
HETATM    1  N   UNK N   1      28.618  29.737  -3.657  0.00  0.00    -0.378 N 
HETATM    2  N   UNK N   1      27.675  29.479  -1.665  0.00  0.00    -0.378 N 
ATOM      3  HN  UNK N   1      26.960  29.286  -0.965  1.00  0.00     0.160 HD
HETATM    4  C   UNK N   1      27.481  29.432  -2.919  0.00  0.00     0.077 A 
HETATM    5  C   UNK N   1      29.697  30.021  -2.748  0.00  0.00     0.140 A 
HETATM    6  C   UNK N   1      29.039  29.841  -1.358  0.00  0.00     0.140 A 
HETATM    7  H   UNK N   1      28.677  29.756  -4.641  0.00  0.00     0.160 HD
ENDROOT
BRANCH   4   8
HETATM    8  C   UNK N   1      26.160  29.082  -3.569  0.00  0.00     0.114 C 
BRANCH   8   9
HETATM    9  C   UNK N   1      25.985  27.692  -4.132  0.00  0.00    -0.051 A 
HETATM   10  C   UNK N   1      25.285  27.442  -5.324  0.00  0.00     0.007 A 
HETATM   11  C   UNK N   1      25.146  26.143  -5.811  0.00  0.00     0.001 A 
HETATM   12  C   UNK N   1      25.706  25.075  -5.109  0.00  0.00     0.000 A 
HETATM   13  C   UNK N   1      26.405  25.310  -3.922  0.00  0.00     0.001 A 
HETATM   14  C   UNK N   1      26.544  26.614  -3.435  0.00  0.00     0.007 A 
ENDBRANCH   8   9
ENDBRANCH   4   8
TORSDOF 2
ENDMDL
