REMARK  13 active torsions:
REMARK  status: ('A' for Active; 'I' for Inactive)
REMARK    1  A    between atoms: O_1  and  C_13 
REMARK    2  A    between atoms: O_1  and  C_19 
REMARK    3  A    between atoms: O_2  and  C_14 
REMARK    4  A    between atoms: O_2  and  C_22 
REMARK    5  A    between atoms: O_3  and  C_15 
REMARK    6  A    between atoms: O_6  and  C_21 
REMARK    7  A    between atoms: O_7  and  C_23 
REMARK    8  A    between atoms: N_8  and  C_16 
REMARK    9  A    between atoms: N_9  and  C_17 
REMARK   10  A    between atoms: N_10  and  C_20 
REMARK   11  A    between atoms: N_11  and  C_24 
REMARK   12  A    between atoms: N_12  and  C_29 
REMARK   13  A    between atoms: C_25  and  C_29 
ROOT
HETATM    1  C   UNK N   1       5.735  -2.375   0.047  0.00  0.00     0.178 C 
HETATM    2  C   UNK N   1       7.281  -0.387   0.595  0.00  0.00     0.178 C 
HETATM    3  C   UNK N   1       6.232  -1.380   1.116  0.00  0.00     0.180 C 
HETATM    4  C   UNK N   1       6.931  -3.122  -0.545  0.00  0.00     0.107 C 
HETATM    5  C   UNK N   1       8.443  -1.095  -0.110  0.00  0.00     0.107 C 
HETATM    6  C   UNK N   1       7.950  -2.130  -1.135  0.00  0.00     0.054 C 
ENDROOT
BRANCH   1   7
HETATM    7  O   UNK N   1       5.024  -1.771  -1.012  0.00  0.00    -0.349 OA
BRANCH   7   8
HETATM    8  C   UNK N   1       3.732  -1.407  -0.591  0.00  0.00     0.291 C 
HETATM    9  O   UNK N   1       3.001  -0.853  -1.653  0.00  0.00    -0.356 OA
HETATM   10  C   UNK N   1       2.028   0.027  -1.109  0.00  0.00     0.210 C 
HETATM   11  C   UNK N   1       1.331  -0.503   0.173  0.00  0.00     0.098 C 
HETATM   12  C   UNK N   1       1.406  -2.047   0.205  0.00  0.00     0.146 C 
HETATM   13  C   UNK N   1      -0.104  -0.010   0.209  0.00  0.00     0.050 C 
HETATM   14  C   UNK N   1       2.886  -2.505   0.099  0.00  0.00     0.198 C 
BRANCH  11  15
HETATM   15  O   UNK N   1       1.995   0.012   1.289  0.00  0.00    -0.386 OA
HETATM   16  H   UNK N   1       2.535  -0.209   2.064  0.00  0.00     0.210 HD
ENDBRANCH  11  15
BRANCH  12  17
HETATM   17  N   UNK N   1       0.610  -2.607  -0.884  0.00  0.00    -0.416 N 
HETATM   18  C   UNK N   1      -0.363  -3.497  -0.275  0.00  0.00     0.140 C 
HETATM   19  H   UNK N   1       0.716  -2.411  -1.879  0.00  0.00     0.153 HD
ENDBRANCH  12  17
BRANCH  14  20
HETATM   20  O   UNK N   1       2.993  -3.735  -0.559  0.00  0.00    -0.388 OA
HETATM   21  H   UNK N   1       2.291  -4.226  -1.014  0.00  0.00     0.210 HD
ENDBRANCH  14  20
ENDBRANCH   7   8
ENDBRANCH   1   7
BRANCH   3  22
HETATM   22  O   UNK N   1       5.180  -0.721   1.755  0.00  0.00    -0.390 OA
HETATM   23  H   UNK N   1       5.211   0.140   2.200  0.00  0.00     0.210 HD
ENDBRANCH   3  22
BRANCH   4  24
HETATM   24  N   UNK N   1       7.553  -3.976   0.455  0.00  0.00    -0.423 N 
HETATM   25  H   UNK N   1       7.252  -4.652   1.157  0.00  0.00     0.150 HD
HETATM   26  H   UNK N   1       8.567  -3.868   0.455  0.00  0.00     0.150 HD
ENDBRANCH   4  24
BRANCH   2  27
HETATM   27  O   UNK N   1       6.734   0.624  -0.210  0.00  0.00    -0.349 OA
BRANCH  27  28
HETATM   28  C   UNK N   1       6.596   1.737   0.648  0.00  0.00     0.282 C 
HETATM   29  O   UNK N   1       7.846   2.253   1.072  0.00  0.00    -0.352 OA
HETATM   30  C   UNK N   1       8.555   2.731  -0.052  0.00  0.00     0.146 C 
HETATM   31  C   UNK N   1       7.856   3.978  -0.599  0.00  0.00     0.036 C 
HETATM   32  C   UNK N   1       6.464   3.570  -1.072  0.00  0.00     0.032 C 
HETATM   33  C   UNK N   1       5.726   2.858   0.057  0.00  0.00     0.129 C 
BRANCH  30  34
HETATM   34  C   UNK N   1      10.000   3.020   0.346  0.00  0.00     0.101 C 
HETATM   35  C   UNK N   1      10.667   1.729   0.802  0.00  0.00     0.034 C 
BRANCH  34  36
HETATM   36  N   UNK N   1      10.740   3.575  -0.779  0.00  0.00    -0.419 N 
HETATM   37  C   UNK N   1      11.843   4.351  -0.235  0.00  0.00     0.140 C 
HETATM   38  H   UNK N   1      10.523   3.444  -1.767  0.00  0.00     0.153 HD
ENDBRANCH  34  36
ENDBRANCH  30  34
BRANCH  33  39
HETATM   39  N   UNK N   1       4.456   2.336  -0.416  0.00  0.00    -0.422 N 
HETATM   40  H   UNK N   1       3.693   2.925  -0.748  0.00  0.00     0.150 HD
HETATM   41  H   UNK N   1       4.321   1.325  -0.416  0.00  0.00     0.150 HD
ENDBRANCH  33  39
ENDBRANCH  27  28
ENDBRANCH   2  27
BRANCH   5  42
HETATM   42  N   UNK N   1       9.313  -1.725   0.869  0.00  0.00    -0.423 N 
HETATM   43  H   UNK N   1       9.235  -2.475   1.555  0.00  0.00     0.150 HD
HETATM   44  H   UNK N   1      10.244  -1.308   0.869  0.00  0.00     0.150 HD
ENDBRANCH   5  42
TORSDOF 13
