MODEL 1
REMARK VINA RESULT:      -6.7      0.000      0.000
REMARK  13 active torsions:
REMARK  status: ('A' for Active; 'I' for Inactive)
REMARK    1  A    between atoms: O_1  and  C_13 
REMARK    2  A    between atoms: O_1  and  C_19 
REMARK    3  A    between atoms: O_2  and  C_14 
REMARK    4  A    between atoms: O_2  and  C_22 
REMARK    5  A    between atoms: O_3  and  C_15 
REMARK    6  A    between atoms: O_6  and  C_21 
REMARK    7  A    between atoms: O_7  and  C_23 
REMARK    8  A    between atoms: N_8  and  C_16 
REMARK    9  A    between atoms: N_9  and  C_17 
REMARK   10  A    between atoms: N_10  and  C_20 
REMARK   11  A    between atoms: N_11  and  C_24 
REMARK   12  A    between atoms: N_12  and  C_29 
REMARK   13  A    between atoms: C_25  and  C_29 
ROOT
HETATM    1  C   UNK N   1      36.527  12.822  10.278  0.00  0.00     0.178 C 
HETATM    2  C   UNK N   1      36.190  14.275   8.176  0.00  0.00     0.178 C 
HETATM    3  C   UNK N   1      37.051  13.988   9.414  0.00  0.00     0.180 C 
HETATM    4  C   UNK N   1      36.399  11.568   9.413  0.00  0.00     0.107 C 
HETATM    5  C   UNK N   1      35.942  13.013   7.342  0.00  0.00     0.107 C 
HETATM    6  C   UNK N   1      35.475  11.832   8.210  0.00  0.00     0.054 C 
ENDROOT
BRANCH   1   7
HETATM    7  O   UNK N   1      35.275  13.073  10.879  0.00  0.00    -0.349 OA
BRANCH   7   8
HETATM    8  C   UNK N   1      35.347  12.864  12.269  0.00  0.00     0.291 C 
HETATM    9  O   UNK N   1      36.439  12.043  12.591  0.00  0.00    -0.356 OA
HETATM   10  C   UNK N   1      36.142  11.369  13.806  0.00  0.00     0.210 C 
HETATM   11  C   UNK N   1      35.441  12.252  14.873  0.00  0.00     0.098 C 
HETATM   12  C   UNK N   1      35.771  13.740  14.615  0.00  0.00     0.146 C 
HETATM   13  C   UNK N   1      35.877  11.813  16.259  0.00  0.00     0.050 C 
HETATM   14  C   UNK N   1      35.369  14.126  13.165  0.00  0.00     0.198 C 
BRANCH  11  15
HETATM   15  O   UNK N   1      34.060  12.065  14.772  0.00  0.00    -0.386 OA
HETATM   16  H   UNK N   1      33.245  11.887  15.267  0.00  0.00     0.210 HD
ENDBRANCH  11  15
BRANCH  12  17
HETATM   17  N   UNK N   1      37.194  13.981  14.840  0.00  0.00    -0.416 N 
HETATM   18  C   UNK N   1      37.287  15.096  15.766  0.00  0.00     0.140 C 
HETATM   19  H   UNK N   1      37.972  13.466  14.428  0.00  0.00     0.153 HD
ENDBRANCH  12  17
BRANCH  14  20
HETATM   20  O   UNK N   1      36.211  15.117  12.649  0.00  0.00    -0.388 OA
HETATM   21  H   UNK N   1      37.181  15.127  12.646  0.00  0.00     0.210 HD
ENDBRANCH  14  20
ENDBRANCH   7   8
ENDBRANCH   1   7
BRANCH   3  22
HETATM   22  O   UNK N   1      37.268  15.146  10.163  0.00  0.00    -0.390 OA
HETATM   23  H   UNK N   1      37.923  15.276  10.866  0.00  0.00     0.210 HD
ENDBRANCH   3  22
BRANCH   4  24
HETATM   24  N   UNK N   1      37.708  11.107   8.974  0.00  0.00    -0.423 N 
HETATM   25  H   UNK N   1      38.665  11.459   8.972  0.00  0.00     0.150 HD
HETATM   26  H   UNK N   1      37.652  10.181   8.552  0.00  0.00     0.150 HD
ENDBRANCH   4  24
BRANCH   2  27
HETATM   27  O   UNK N   1      34.987  14.932   8.478  0.00  0.00    -0.349 OA
BRANCH  27  28
HETATM   28  C   UNK N   1      35.178  16.260   8.039  0.00  0.00     0.282 C 
HETATM   29  O   UNK N   1      34.770  16.450   6.695  0.00  0.00    -0.352 OA
HETATM   30  C   UNK N   1      33.380  16.218   6.596  0.00  0.00     0.146 C 
HETATM   31  C   UNK N   1      32.627  17.332   7.326  0.00  0.00     0.036 C 
HETATM   32  C   UNK N   1      33.000  17.265   8.804  0.00  0.00     0.032 C 
HETATM   33  C   UNK N   1      34.518  17.305   8.952  0.00  0.00     0.129 C 
BRANCH  30  34
HETATM   34  C   UNK N   1      32.984  16.136   5.124  0.00  0.00     0.101 C 
HETATM   35  C   UNK N   1      32.981  17.536   4.523  0.00  0.00     0.034 C 
BRANCH  34  36
HETATM   36  N   UNK N   1      33.919  15.297   4.387  0.00  0.00    -0.419 N 
HETATM   37  C   UNK N   1      33.572  15.389   2.978  0.00  0.00     0.140 C 
HETATM   38  H   UNK N   1      34.677  14.744   4.787  0.00  0.00     0.153 HD
ENDBRANCH  34  36
ENDBRANCH  30  34
BRANCH  33  39
HETATM   39  N   UNK N   1      34.898  17.098  10.339  0.00  0.00    -0.422 N 
HETATM   40  H   UNK N   1      34.865  16.191  10.803  0.00  0.00     0.150 HD
HETATM   41  H   UNK N   1      35.216  17.905  10.876  0.00  0.00     0.150 HD
ENDBRANCH  33  39
ENDBRANCH  27  28
ENDBRANCH   2  27
BRANCH   5  42
HETATM   42  N   UNK N   1      37.142  12.657   6.604  0.00  0.00    -0.423 N 
HETATM   43  H   UNK N   1      37.818  13.139   6.013  0.00  0.00     0.150 HD
HETATM   44  H   UNK N   1      37.367  11.667   6.705  0.00  0.00     0.150 HD
ENDBRANCH   5  42
TORSDOF 13
ENDMDL
MODEL 2
REMARK VINA RESULT:      -6.3      2.008      7.702
REMARK  13 active torsions:
REMARK  status: ('A' for Active; 'I' for Inactive)
REMARK    1  A    between atoms: O_1  and  C_13 
REMARK    2  A    between atoms: O_1  and  C_19 
REMARK    3  A    between atoms: O_2  and  C_14 
REMARK    4  A    between atoms: O_2  and  C_22 
REMARK    5  A    between atoms: O_3  and  C_15 
REMARK    6  A    between atoms: O_6  and  C_21 
REMARK    7  A    between atoms: O_7  and  C_23 
REMARK    8  A    between atoms: N_8  and  C_16 
REMARK    9  A    between atoms: N_9  and  C_17 
REMARK   10  A    between atoms: N_10  and  C_20 
REMARK   11  A    between atoms: N_11  and  C_24 
REMARK   12  A    between atoms: N_12  and  C_29 
REMARK   13  A    between atoms: C_25  and  C_29 
ROOT
HETATM    1  C   UNK N   1      35.854  12.835   8.592  0.00  0.00     0.178 C 
HETATM    2  C   UNK N   1      36.839  11.852  10.762  0.00  0.00     0.178 C 
HETATM    3  C   UNK N   1      36.451  11.599   9.298  0.00  0.00     0.180 C 
HETATM    4  C   UNK N   1      36.840  13.999   8.690  0.00  0.00     0.107 C 
HETATM    5  C   UNK N   1      37.736  13.085  10.914  0.00  0.00     0.107 C 
HETATM    6  C   UNK N   1      37.174  14.303  10.162  0.00  0.00     0.054 C 
ENDROOT
BRANCH   1   7
HETATM    7  O   UNK N   1      34.618  13.258   9.124  0.00  0.00    -0.349 OA
BRANCH   7   8
HETATM    8  C   UNK N   1      34.139  14.379   8.423  0.00  0.00     0.291 C 
HETATM    9  O   UNK N   1      33.221  13.992   7.434  0.00  0.00    -0.356 OA
HETATM   10  C   UNK N   1      33.245  14.967   6.402  0.00  0.00     0.210 C 
HETATM   11  C   UNK N   1      33.331  16.433   6.907  0.00  0.00     0.098 C 
HETATM   12  C   UNK N   1      32.774  16.520   8.347  0.00  0.00     0.146 C 
HETATM   13  C   UNK N   1      32.574  17.341   5.956  0.00  0.00     0.050 C 
HETATM   14  C   UNK N   1      33.533  15.526   9.267  0.00  0.00     0.198 C 
BRANCH  11  15
HETATM   15  O   UNK N   1      34.671  16.827   6.910  0.00  0.00    -0.386 OA
HETATM   16  H   UNK N   1      35.406  17.142   7.460  0.00  0.00     0.210 HD
ENDBRANCH  11  15
BRANCH  12  17
HETATM   17  N   UNK N   1      31.341  16.234   8.344  0.00  0.00    -0.416 N 
HETATM   18  C   UNK N   1      30.676  17.429   8.832  0.00  0.00     0.140 C 
HETATM   19  H   UNK N   1      30.895  15.364   8.056  0.00  0.00     0.153 HD
ENDBRANCH  12  17
BRANCH  14  20
HETATM   20  O   UNK N   1      32.707  15.042  10.287  0.00  0.00    -0.388 OA
HETATM   21  H   UNK N   1      31.952  15.490  10.700  0.00  0.00     0.210 HD
ENDBRANCH  14  20
ENDBRANCH   7   8
ENDBRANCH   1   7
BRANCH   3  22
HETATM   22  O   UNK N   1      35.633  10.474   9.175  0.00  0.00    -0.390 OA
HETATM   23  H   UNK N   1      35.679   9.788   8.491  0.00  0.00     0.210 HD
ENDBRANCH   3  22
BRANCH   4  24
HETATM   24  N   UNK N   1      38.048  13.720   7.929  0.00  0.00    -0.423 N 
HETATM   25  H   UNK N   1      38.991  13.379   8.115  0.00  0.00     0.150 HD
HETATM   26  H   UNK N   1      37.915  13.920   6.938  0.00  0.00     0.150 HD
ENDBRANCH   4  24
BRANCH   2  27
HETATM   27  O   UNK N   1      35.734  11.914  11.624  0.00  0.00    -0.349 OA
BRANCH  27  28
HETATM   28  C   UNK N   1      36.072  11.074  12.708  0.00  0.00     0.282 C 
HETATM   29  O   UNK N   1      36.411  11.804  13.875  0.00  0.00    -0.352 OA
HETATM   30  C   UNK N   1      35.284  12.539  14.305  0.00  0.00     0.146 C 
HETATM   31  C   UNK N   1      34.218  11.571  14.825  0.00  0.00     0.036 C 
HETATM   32  C   UNK N   1      33.775  10.688  13.663  0.00  0.00     0.032 C 
HETATM   33  C   UNK N   1      34.993  10.026  13.027  0.00  0.00     0.129 C 
BRANCH  30  34
HETATM   34  C   UNK N   1      35.711  13.540  15.376  0.00  0.00     0.101 C 
HETATM   35  C   UNK N   1      35.502  12.927  16.754  0.00  0.00     0.034 C 
BRANCH  34  36
HETATM   36  N   UNK N   1      37.114  13.897  15.213  0.00  0.00    -0.419 N 
HETATM   37  C   UNK N   1      37.297  15.219  15.789  0.00  0.00     0.140 C 
HETATM   38  H   UNK N   1      37.835  13.324  14.775  0.00  0.00     0.153 HD
ENDBRANCH  34  36
ENDBRANCH  30  34
BRANCH  33  39
HETATM   39  N   UNK N   1      34.609   9.296  11.832  0.00  0.00    -0.422 N 
HETATM   40  H   UNK N   1      35.129   8.498  11.468  0.00  0.00     0.150 HD
HETATM   41  H   UNK N   1      33.774   9.598  11.331  0.00  0.00     0.150 HD
ENDBRANCH  33  39
ENDBRANCH  27  28
ENDBRANCH   2  27
BRANCH   5  42
HETATM   42  N   UNK N   1      39.083  12.784  10.456  0.00  0.00    -0.423 N 
HETATM   43  H   UNK N   1      40.021  12.803  10.853  0.00  0.00     0.150 HD
HETATM   44  H   UNK N   1      39.089  12.471   9.485  0.00  0.00     0.150 HD
ENDBRANCH   5  42
TORSDOF 13
ENDMDL
MODEL 3
REMARK VINA RESULT:      -5.9     11.136     14.636
REMARK  13 active torsions:
REMARK  status: ('A' for Active; 'I' for Inactive)
REMARK    1  A    between atoms: O_1  and  C_13 
REMARK    2  A    between atoms: O_1  and  C_19 
REMARK    3  A    between atoms: O_2  and  C_14 
REMARK    4  A    between atoms: O_2  and  C_22 
REMARK    5  A    between atoms: O_3  and  C_15 
REMARK    6  A    between atoms: O_6  and  C_21 
REMARK    7  A    between atoms: O_7  and  C_23 
REMARK    8  A    between atoms: N_8  and  C_16 
REMARK    9  A    between atoms: N_9  and  C_17 
REMARK   10  A    between atoms: N_10  and  C_20 
REMARK   11  A    between atoms: N_11  and  C_24 
REMARK   12  A    between atoms: N_12  and  C_29 
REMARK   13  A    between atoms: C_25  and  C_29 
ROOT
HETATM    1  C   UNK N   1      22.481  17.768   4.492  0.00  0.00     0.178 C 
HETATM    2  C   UNK N   1      20.530  16.575   5.681  0.00  0.00     0.178 C 
HETATM    3  C   UNK N   1      21.308  17.885   5.487  0.00  0.00     0.180 C 
HETATM    4  C   UNK N   1      21.958  17.253   3.150  0.00  0.00     0.107 C 
HETATM    5  C   UNK N   1      20.087  15.966   4.346  0.00  0.00     0.107 C 
HETATM    6  C   UNK N   1      21.241  15.902   3.331  0.00  0.00     0.054 C 
ENDROOT
BRANCH   1   7
HETATM    7  O   UNK N   1      23.514  16.908   4.921  0.00  0.00    -0.349 OA
BRANCH   7   8
HETATM    8  C   UNK N   1      24.756  17.565   4.862  0.00  0.00     0.291 C 
HETATM    9  O   UNK N   1      24.671  18.842   5.438  0.00  0.00    -0.356 OA
HETATM   10  C   UNK N   1      25.661  19.665   4.838  0.00  0.00     0.210 C 
HETATM   11  C   UNK N   1      27.026  18.961   4.610  0.00  0.00     0.098 C 
HETATM   12  C   UNK N   1      27.177  17.785   5.602  0.00  0.00     0.146 C 
HETATM   13  C   UNK N   1      28.148  19.972   4.765  0.00  0.00     0.050 C 
HETATM   14  C   UNK N   1      25.974  16.814   5.454  0.00  0.00     0.198 C 
BRANCH  11  15
HETATM   15  O   UNK N   1      27.063  18.468   3.304  0.00  0.00    -0.386 OA
HETATM   16  H   UNK N   1      26.542  18.064   2.593  0.00  0.00     0.210 HD
ENDBRANCH  11  15
BRANCH  12  17
HETATM   17  N   UNK N   1      27.268  18.293   6.968  0.00  0.00    -0.416 N 
HETATM   18  C   UNK N   1      28.499  17.765   7.529  0.00  0.00     0.140 C 
HETATM   19  H   UNK N   1      26.597  18.902   7.437  0.00  0.00     0.153 HD
ENDBRANCH  12  17
BRANCH  14  20
HETATM   20  O   UNK N   1      25.664  16.197   6.670  0.00  0.00    -0.388 OA
HETATM   21  H   UNK N   1      25.945  16.465   7.559  0.00  0.00     0.210 HD
ENDBRANCH  14  20
ENDBRANCH   7   8
ENDBRANCH   1   7
BRANCH   3  22
HETATM   22  O   UNK N   1      21.705  18.427   6.711  0.00  0.00    -0.390 OA
HETATM   23  H   UNK N   1      21.153  18.910   7.345  0.00  0.00     0.210 HD
ENDBRANCH   3  22
BRANCH   4  24
HETATM   24  N   UNK N   1      21.078  18.231   2.529  0.00  0.00    -0.423 N 
HETATM   25  H   UNK N   1      20.237  18.225   1.952  0.00  0.00     0.150 HD
HETATM   26  H   UNK N   1      21.388  19.183   2.722  0.00  0.00     0.150 HD
ENDBRANCH   4  24
BRANCH   2  27
HETATM   27  O   UNK N   1      21.214  15.637   6.469  0.00  0.00    -0.349 OA
BRANCH  27  28
HETATM   28  C   UNK N   1      20.203  14.956   7.182  0.00  0.00     0.282 C 
HETATM   29  O   UNK N   1      20.202  13.563   6.924  0.00  0.00    -0.352 OA
HETATM   30  C   UNK N   1      21.419  13.007   7.376  0.00  0.00     0.146 C 
HETATM   31  C   UNK N   1      21.461  13.055   8.905  0.00  0.00     0.036 C 
HETATM   32  C   UNK N   1      21.436  14.520   9.332  0.00  0.00     0.032 C 
HETATM   33  C   UNK N   1      20.241  15.221   8.696  0.00  0.00     0.129 C 
BRANCH  30  34
HETATM   34  C   UNK N   1      21.550  11.580   6.850  0.00  0.00     0.101 C 
HETATM   35  C   UNK N   1      20.534  11.355   5.738  0.00  0.00     0.034 C 
BRANCH  34  36
HETATM   36  N   UNK N   1      22.892  11.346   6.334  0.00  0.00    -0.419 N 
HETATM   37  C   UNK N   1      23.226  12.463   5.465  0.00  0.00     0.140 C 
HETATM   38  H   UNK N   1      23.487  10.544   6.543  0.00  0.00     0.153 HD
ENDBRANCH  34  36
ENDBRANCH  30  34
BRANCH  33  39
HETATM   39  N   UNK N   1      20.280  16.645   8.974  0.00  0.00    -0.422 N 
HETATM   40  H   UNK N   1      20.383  17.034   9.911  0.00  0.00     0.150 HD
HETATM   41  H   UNK N   1      20.200  17.292   8.189  0.00  0.00     0.150 HD
ENDBRANCH  33  39
ENDBRANCH  27  28
ENDBRANCH   2  27
BRANCH   5  42
HETATM   42  N   UNK N   1      18.971  16.719   3.798  0.00  0.00    -0.423 N 
HETATM   43  H   UNK N   1      18.831  17.639   3.382  0.00  0.00     0.150 HD
HETATM   44  H   UNK N   1      18.102  16.187   3.841  0.00  0.00     0.150 HD
ENDBRANCH   5  42
TORSDOF 13
ENDMDL
MODEL 4
REMARK VINA RESULT:      -5.9     16.958     19.871
REMARK  13 active torsions:
REMARK  status: ('A' for Active; 'I' for Inactive)
REMARK    1  A    between atoms: O_1  and  C_13 
REMARK    2  A    between atoms: O_1  and  C_19 
REMARK    3  A    between atoms: O_2  and  C_14 
REMARK    4  A    between atoms: O_2  and  C_22 
REMARK    5  A    between atoms: O_3  and  C_15 
REMARK    6  A    between atoms: O_6  and  C_21 
REMARK    7  A    between atoms: O_7  and  C_23 
REMARK    8  A    between atoms: N_8  and  C_16 
REMARK    9  A    between atoms: N_9  and  C_17 
REMARK   10  A    between atoms: N_10  and  C_20 
REMARK   11  A    between atoms: N_11  and  C_24 
REMARK   12  A    between atoms: N_12  and  C_29 
REMARK   13  A    between atoms: C_25  and  C_29 
ROOT
HETATM    1  C   UNK N   1      27.932  24.456  -4.964  0.00  0.00     0.178 C 
HETATM    2  C   UNK N   1      28.076  27.029  -5.025  0.00  0.00     0.178 C 
HETATM    3  C   UNK N   1      28.308  25.711  -5.779  0.00  0.00     0.180 C 
HETATM    4  C   UNK N   1      26.474  24.564  -4.513  0.00  0.00     0.107 C 
HETATM    5  C   UNK N   1      26.656  27.123  -4.456  0.00  0.00     0.107 C 
HETATM    6  C   UNK N   1      26.256  25.849  -3.693  0.00  0.00     0.054 C 
ENDROOT
BRANCH   1   7
HETATM    7  O   UNK N   1      28.734  24.252  -3.821  0.00  0.00    -0.349 OA
BRANCH   7   8
HETATM    8  C   UNK N   1      29.664  23.223  -4.052  0.00  0.00     0.291 C 
HETATM    9  O   UNK N   1      29.569  22.753  -5.371  0.00  0.00    -0.356 OA
HETATM   10  C   UNK N   1      30.011  21.404  -5.394  0.00  0.00     0.210 C 
HETATM   11  C   UNK N   1      31.262  21.125  -4.516  0.00  0.00     0.098 C 
HETATM   12  C   UNK N   1      32.063  22.433  -4.324  0.00  0.00     0.146 C 
HETATM   13  C   UNK N   1      32.103  20.042  -5.165  0.00  0.00     0.050 C 
HETATM   14  C   UNK N   1      31.145  23.531  -3.721  0.00  0.00     0.198 C 
BRANCH  11  15
HETATM   15  O   UNK N   1      30.838  20.659  -3.270  0.00  0.00    -0.386 OA
HETATM   16  H   UNK N   1      30.109  20.246  -2.782  0.00  0.00     0.210 HD
ENDBRANCH  11  15
BRANCH  12  17
HETATM   17  N   UNK N   1      32.621  22.868  -5.602  0.00  0.00    -0.416 N 
HETATM   18  C   UNK N   1      34.053  23.012  -5.405  0.00  0.00     0.140 C 
HETATM   19  H   UNK N   1      32.106  23.038  -6.465  0.00  0.00     0.153 HD
ENDBRANCH  12  17
BRANCH  14  20
HETATM   20  O   UNK N   1      31.521  24.806  -4.156  0.00  0.00    -0.388 OA
HETATM   21  H   UNK N   1      32.306  25.313  -3.894  0.00  0.00     0.210 HD
ENDBRANCH  14  20
ENDBRANCH   7   8
ENDBRANCH   1   7
BRANCH   3  22
HETATM   22  O   UNK N   1      29.605  25.640  -6.291  0.00  0.00    -0.390 OA
HETATM   23  H   UNK N   1      30.436  25.750  -5.803  0.00  0.00     0.210 HD
ENDBRANCH   3  22
BRANCH   4  24
HETATM   24  N   UNK N   1      25.575  24.514  -5.654  0.00  0.00    -0.423 N 
HETATM   25  H   UNK N   1      25.618  24.227  -6.632  0.00  0.00     0.150 HD
HETATM   26  H   UNK N   1      24.648  24.863  -5.411  0.00  0.00     0.150 HD
ENDBRANCH   4  24
BRANCH   2  27
HETATM   27  O   UNK N   1      29.041  27.279  -4.038  0.00  0.00    -0.349 OA
BRANCH  27  28
HETATM   28  C   UNK N   1      29.595  28.532  -4.381  0.00  0.00     0.282 C 
HETATM   29  O   UNK N   1      29.056  29.593  -3.613  0.00  0.00    -0.352 OA
HETATM   30  C   UNK N   1      29.386  29.396  -2.254  0.00  0.00     0.146 C 
HETATM   31  C   UNK N   1      30.892  29.590  -2.065  0.00  0.00     0.036 C 
HETATM   32  C   UNK N   1      31.612  28.516  -2.875  0.00  0.00     0.032 C 
HETATM   33  C   UNK N   1      31.131  28.555  -4.322  0.00  0.00     0.129 C 
BRANCH  30  34
HETATM   34  C   UNK N   1      28.578  30.361  -1.391  0.00  0.00     0.101 C 
HETATM   35  C   UNK N   1      27.480  30.996  -2.234  0.00  0.00     0.034 C 
BRANCH  34  36
HETATM   36  N   UNK N   1      27.977  29.660  -0.264  0.00  0.00    -0.419 N 
HETATM   37  C   UNK N   1      28.367  30.366   0.946  0.00  0.00     0.140 C 
HETATM   38  H   UNK N   1      27.391  28.827  -0.315  0.00  0.00     0.153 HD
ENDBRANCH  34  36
ENDBRANCH  30  34
BRANCH  33  39
HETATM   39  N   UNK N   1      31.697  27.449  -5.075  0.00  0.00    -0.422 N 
HETATM   40  H   UNK N   1      32.587  27.008  -4.846  0.00  0.00     0.150 HD
HETATM   41  H   UNK N   1      31.175  27.095  -5.876  0.00  0.00     0.150 HD
ENDBRANCH  33  39
ENDBRANCH  27  28
ENDBRANCH   2  27
BRANCH   5  42
HETATM   42  N   UNK N   1      25.706  27.395  -5.522  0.00  0.00    -0.423 N 
HETATM   43  H   UNK N   1      24.714  27.620  -5.590  0.00  0.00     0.150 HD
HETATM   44  H   UNK N   1      26.148  27.351  -6.440  0.00  0.00     0.150 HD
ENDBRANCH   5  42
TORSDOF 13
ENDMDL
MODEL 5
REMARK VINA RESULT:      -5.9      1.529      2.129
REMARK  13 active torsions:
REMARK  status: ('A' for Active; 'I' for Inactive)
REMARK    1  A    between atoms: O_1  and  C_13 
REMARK    2  A    between atoms: O_1  and  C_19 
REMARK    3  A    between atoms: O_2  and  C_14 
REMARK    4  A    between atoms: O_2  and  C_22 
REMARK    5  A    between atoms: O_3  and  C_15 
REMARK    6  A    between atoms: O_6  and  C_21 
REMARK    7  A    between atoms: O_7  and  C_23 
REMARK    8  A    between atoms: N_8  and  C_16 
REMARK    9  A    between atoms: N_9  and  C_17 
REMARK   10  A    between atoms: N_10  and  C_20 
REMARK   11  A    between atoms: N_11  and  C_24 
REMARK   12  A    between atoms: N_12  and  C_29 
REMARK   13  A    between atoms: C_25  and  C_29 
ROOT
HETATM    1  C   UNK N   1      37.693  12.937  10.171  0.00  0.00     0.178 C 
HETATM    2  C   UNK N   1      36.763  14.412   8.273  0.00  0.00     0.178 C 
HETATM    3  C   UNK N   1      37.608  14.348   9.553  0.00  0.00     0.180 C 
HETATM    4  C   UNK N   1      38.230  11.958   9.126  0.00  0.00     0.107 C 
HETATM    5  C   UNK N   1      37.199  13.364   7.244  0.00  0.00     0.107 C 
HETATM    6  C   UNK N   1      37.340  11.966   7.870  0.00  0.00     0.054 C 
ENDROOT
BRANCH   1   7
HETATM    7  O   UNK N   1      36.458  12.444  10.644  0.00  0.00    -0.349 OA
BRANCH   7   8
HETATM    8  C   UNK N   1      36.390  12.555  12.045  0.00  0.00     0.291 C 
HETATM    9  O   UNK N   1      35.529  13.599  12.419  0.00  0.00    -0.356 OA
HETATM   10  C   UNK N   1      35.941  14.078  13.691  0.00  0.00     0.210 C 
HETATM   11  C   UNK N   1      36.358  12.965  14.690  0.00  0.00     0.098 C 
HETATM   12  C   UNK N   1      35.673  11.635  14.302  0.00  0.00     0.146 C 
HETATM   13  C   UNK N   1      35.996  13.392  16.101  0.00  0.00     0.050 C 
HETATM   14  C   UNK N   1      36.018  11.274  12.831  0.00  0.00     0.198 C 
BRANCH  11  15
HETATM   15  O   UNK N   1      37.744  12.804  14.628  0.00  0.00    -0.386 OA
HETATM   16  H   UNK N   1      38.463  12.175  14.460  0.00  0.00     0.210 HD
ENDBRANCH  11  15
BRANCH  12  17
HETATM   17  N   UNK N   1      34.228  11.746  14.483  0.00  0.00    -0.416 N 
HETATM   18  C   UNK N   1      33.818  10.604  15.281  0.00  0.00     0.140 C 
HETATM   19  H   UNK N   1      33.624  12.484  14.122  0.00  0.00     0.153 HD
ENDBRANCH  12  17
BRANCH  14  20
HETATM   20  O   UNK N   1      34.973  10.573  12.220  0.00  0.00    -0.388 OA
HETATM   21  H   UNK N   1      34.717  10.589  11.284  0.00  0.00     0.210 HD
ENDBRANCH  14  20
ENDBRANCH   7   8
ENDBRANCH   1   7
BRANCH   3  22
HETATM   22  O   UNK N   1      37.200  15.308  10.481  0.00  0.00    -0.390 OA
HETATM   23  H   UNK N   1      36.328  15.727  10.548  0.00  0.00     0.210 HD
ENDBRANCH   3  22
BRANCH   4  24
HETATM   24  N   UNK N   1      39.611  12.268   8.790  0.00  0.00    -0.423 N 
HETATM   25  H   UNK N   1      40.345  12.890   9.129  0.00  0.00     0.150 HD
HETATM   26  H   UNK N   1      39.933  11.713   7.998  0.00  0.00     0.150 HD
ENDBRANCH   4  24
BRANCH   2  27
HETATM   27  O   UNK N   1      35.383  14.347   8.517  0.00  0.00    -0.349 OA
BRANCH  27  28
HETATM   28  C   UNK N   1      34.939  15.686   8.455  0.00  0.00     0.282 C 
HETATM   29  O   UNK N   1      34.577  16.077   7.142  0.00  0.00    -0.352 OA
HETATM   30  C   UNK N   1      33.481  15.298   6.712  0.00  0.00     0.146 C 
HETATM   31  C   UNK N   1      32.239  15.682   7.521  0.00  0.00     0.036 C 
HETATM   32  C   UNK N   1      32.503  15.339   8.984  0.00  0.00     0.032 C 
HETATM   33  C   UNK N   1      33.801  15.997   9.440  0.00  0.00     0.129 C 
BRANCH  30  34
HETATM   34  C   UNK N   1      33.268  15.504   5.215  0.00  0.00     0.101 C 
HETATM   35  C   UNK N   1      33.176  16.995   4.918  0.00  0.00     0.034 C 
BRANCH  34  36
HETATM   36  N   UNK N   1      34.370  14.928   4.457  0.00  0.00    -0.419 N 
HETATM   37  C   UNK N   1      33.896  14.704   3.101  0.00  0.00     0.140 C 
HETATM   38  H   UNK N   1      35.303  14.719   4.813  0.00  0.00     0.153 HD
ENDBRANCH  34  36
ENDBRANCH  30  34
BRANCH  33  39
HETATM   39  N   UNK N   1      34.144  15.567  10.784  0.00  0.00    -0.422 N 
HETATM   40  H   UNK N   1      33.700  14.779  11.254  0.00  0.00     0.150 HD
HETATM   41  H   UNK N   1      34.869  16.082  11.284  0.00  0.00     0.150 HD
ENDBRANCH  33  39
ENDBRANCH  27  28
ENDBRANCH   2  27
BRANCH   5  42
HETATM   42  N   UNK N   1      38.446  13.767   6.615  0.00  0.00    -0.423 N 
HETATM   43  H   UNK N   1      39.431  13.791   6.874  0.00  0.00     0.150 HD
HETATM   44  H   UNK N   1      38.294  14.117   5.669  0.00  0.00     0.150 HD
ENDBRANCH   5  42
TORSDOF 13
ENDMDL
MODEL 6
REMARK VINA RESULT:      -5.9     10.169     13.613
REMARK  13 active torsions:
REMARK  status: ('A' for Active; 'I' for Inactive)
REMARK    1  A    between atoms: O_1  and  C_13 
REMARK    2  A    between atoms: O_1  and  C_19 
REMARK    3  A    between atoms: O_2  and  C_14 
REMARK    4  A    between atoms: O_2  and  C_22 
REMARK    5  A    between atoms: O_3  and  C_15 
REMARK    6  A    between atoms: O_6  and  C_21 
REMARK    7  A    between atoms: O_7  and  C_23 
REMARK    8  A    between atoms: N_8  and  C_16 
REMARK    9  A    between atoms: N_9  and  C_17 
REMARK   10  A    between atoms: N_10  and  C_20 
REMARK   11  A    between atoms: N_11  and  C_24 
REMARK   12  A    between atoms: N_12  and  C_29 
REMARK   13  A    between atoms: C_25  and  C_29 
ROOT
HETATM    1  C   UNK N   1      24.465  15.218   3.860  0.00  0.00     0.178 C 
HETATM    2  C   UNK N   1      22.241  14.236   4.716  0.00  0.00     0.178 C 
HETATM    3  C   UNK N   1      22.925  15.310   3.858  0.00  0.00     0.180 C 
HETATM    4  C   UNK N   1      24.890  13.821   3.406  0.00  0.00     0.107 C 
HETATM    5  C   UNK N   1      22.729  12.825   4.368  0.00  0.00     0.107 C 
HETATM    6  C   UNK N   1      24.264  12.744   4.312  0.00  0.00     0.054 C 
ENDROOT
BRANCH   1   7
HETATM    7  O   UNK N   1      25.053  15.471   5.118  0.00  0.00    -0.349 OA
BRANCH   7   8
HETATM    8  C   UNK N   1      25.935  16.564   5.037  0.00  0.00     0.291 C 
HETATM    9  O   UNK N   1      25.231  17.776   5.103  0.00  0.00    -0.356 OA
HETATM   10  C   UNK N   1      25.990  18.766   4.424  0.00  0.00     0.210 C 
HETATM   11  C   UNK N   1      27.518  18.694   4.688  0.00  0.00     0.098 C 
HETATM   12  C   UNK N   1      27.779  17.993   6.042  0.00  0.00     0.146 C 
HETATM   13  C   UNK N   1      28.103  20.094   4.659  0.00  0.00     0.050 C 
HETATM   14  C   UNK N   1      27.107  16.593   6.049  0.00  0.00     0.198 C 
BRANCH  11  15
HETATM   15  O   UNK N   1      28.115  17.953   3.665  0.00  0.00    -0.386 OA
HETATM   16  H   UNK N   1      28.958  17.678   3.272  0.00  0.00     0.210 HD
ENDBRANCH  11  15
BRANCH  12  17
HETATM   17  N   UNK N   1      27.272  18.818   7.135  0.00  0.00    -0.416 N 
HETATM   18  C   UNK N   1      28.355  18.951   8.094  0.00  0.00     0.140 C 
HETATM   19  H   UNK N   1      26.339  19.222   7.211  0.00  0.00     0.153 HD
ENDBRANCH  12  17
BRANCH  14  20
HETATM   20  O   UNK N   1      26.693  16.233   7.336  0.00  0.00    -0.388 OA
HETATM   21  H   UNK N   1      25.919  15.703   7.582  0.00  0.00     0.210 HD
ENDBRANCH  14  20
ENDBRANCH   7   8
ENDBRANCH   1   7
BRANCH   3  22
HETATM   22  O   UNK N   1      22.472  16.589   4.186  0.00  0.00    -0.390 OA
HETATM   23  H   UNK N   1      22.255  16.926   5.069  0.00  0.00     0.210 HD
ENDBRANCH   3  22
BRANCH   4  24
HETATM   24  N   UNK N   1      24.535  13.601   2.012  0.00  0.00    -0.423 N 
HETATM   25  H   UNK N   1      24.571  14.123   1.137  0.00  0.00     0.150 HD
HETATM   26  H   UNK N   1      24.142  12.670   1.873  0.00  0.00     0.150 HD
ENDBRANCH   4  24
BRANCH   2  27
HETATM   27  O   UNK N   1      22.337  14.485   6.094  0.00  0.00    -0.349 OA
BRANCH  27  28
HETATM   28  C   UNK N   1      21.111  14.033   6.630  0.00  0.00     0.282 C 
HETATM   29  O   UNK N   1      21.286  13.012   7.597  0.00  0.00    -0.352 OA
HETATM   30  C   UNK N   1      22.007  13.531   8.694  0.00  0.00     0.146 C 
HETATM   31  C   UNK N   1      21.134  14.542   9.442  0.00  0.00     0.036 C 
HETATM   32  C   UNK N   1      20.837  15.701   8.495  0.00  0.00     0.032 C 
HETATM   33  C   UNK N   1      20.240  15.166   7.198  0.00  0.00     0.129 C 
BRANCH  30  34
HETATM   34  C   UNK N   1      22.448  12.384   9.599  0.00  0.00     0.101 C 
HETATM   35  C   UNK N   1      23.290  11.401   8.797  0.00  0.00     0.034 C 
BRANCH  34  36
HETATM   36  N   UNK N   1      23.230  12.887  10.720  0.00  0.00    -0.419 N 
HETATM   37  C   UNK N   1      23.071  11.947  11.819  0.00  0.00     0.140 C 
HETATM   38  H   UNK N   1      23.785  13.742  10.732  0.00  0.00     0.153 HD
ENDBRANCH  34  36
ENDBRANCH  30  34
BRANCH  33  39
HETATM   39  N   UNK N   1      20.084  16.237   6.230  0.00  0.00    -0.422 N 
HETATM   40  H   UNK N   1      20.520  17.153   6.329  0.00  0.00     0.150 HD
HETATM   41  H   UNK N   1      19.507  16.062   5.407  0.00  0.00     0.150 HD
ENDBRANCH  33  39
ENDBRANCH  27  28
ENDBRANCH   2  27
BRANCH   5  42
HETATM   42  N   UNK N   1      22.152  12.393   3.106  0.00  0.00    -0.423 N 
HETATM   43  H   UNK N   1      22.459  11.854   2.297  0.00  0.00     0.150 HD
HETATM   44  H   UNK N   1      21.188  12.712   3.004  0.00  0.00     0.150 HD
ENDBRANCH   5  42
TORSDOF 13
ENDMDL
MODEL 7
REMARK VINA RESULT:      -5.9      2.531      4.646
REMARK  13 active torsions:
REMARK  status: ('A' for Active; 'I' for Inactive)
REMARK    1  A    between atoms: O_1  and  C_13 
REMARK    2  A    between atoms: O_1  and  C_19 
REMARK    3  A    between atoms: O_2  and  C_14 
REMARK    4  A    between atoms: O_2  and  C_22 
REMARK    5  A    between atoms: O_3  and  C_15 
REMARK    6  A    between atoms: O_6  and  C_21 
REMARK    7  A    between atoms: O_7  and  C_23 
REMARK    8  A    between atoms: N_8  and  C_16 
REMARK    9  A    between atoms: N_9  and  C_17 
REMARK   10  A    between atoms: N_10  and  C_20 
REMARK   11  A    between atoms: N_11  and  C_24 
REMARK   12  A    between atoms: N_12  and  C_29 
REMARK   13  A    between atoms: C_25  and  C_29 
ROOT
HETATM    1  C   UNK N   1      33.949  15.175   9.417  0.00  0.00     0.178 C 
HETATM    2  C   UNK N   1      32.799  14.662   7.169  0.00  0.00     0.178 C 
HETATM    3  C   UNK N   1      32.676  14.680   8.699  0.00  0.00     0.180 C 
HETATM    4  C   UNK N   1      34.318  16.564   8.894  0.00  0.00     0.107 C 
HETATM    5  C   UNK N   1      33.280  16.008   6.614  0.00  0.00     0.107 C 
HETATM    6  C   UNK N   1      34.514  16.532   7.367  0.00  0.00     0.054 C 
ENDROOT
BRANCH   1   7
HETATM    7  O   UNK N   1      35.066  14.330   9.252  0.00  0.00    -0.349 OA
BRANCH   7   8
HETATM    8  C   UNK N   1      35.510  13.853  10.499  0.00  0.00     0.291 C 
HETATM    9  O   UNK N   1      34.916  14.573  11.546  0.00  0.00    -0.356 OA
HETATM   10  C   UNK N   1      35.787  14.526  12.666  0.00  0.00     0.210 C 
HETATM   11  C   UNK N   1      36.454  13.143  12.901  0.00  0.00     0.098 C 
HETATM   12  C   UNK N   1      35.584  12.033  12.269  0.00  0.00     0.146 C 
HETATM   13  C   UNK N   1      36.651  12.923  14.390  0.00  0.00     0.050 C 
HETATM   14  C   UNK N   1      35.355  12.336  10.763  0.00  0.00     0.198 C 
BRANCH  11  15
HETATM   15  O   UNK N   1      37.711  13.144  12.292  0.00  0.00    -0.386 OA
HETATM   16  H   UNK N   1      38.664  13.252  12.438  0.00  0.00     0.210 HD
ENDBRANCH  11  15
BRANCH  12  17
HETATM   17  N   UNK N   1      34.311  11.933  12.978  0.00  0.00    -0.416 N 
HETATM   18  C   UNK N   1      34.178  10.551  13.404  0.00  0.00     0.140 C 
HETATM   19  H   UNK N   1      33.645  12.687  13.142  0.00  0.00     0.153 HD
ENDBRANCH  12  17
BRANCH  14  20
HETATM   20  O   UNK N   1      34.114  11.856  10.330  0.00  0.00    -0.388 OA
HETATM   21  H   UNK N   1      33.927  11.329   9.537  0.00  0.00     0.210 HD
ENDBRANCH  14  20
ENDBRANCH   7   8
ENDBRANCH   1   7
BRANCH   3  22
HETATM   22  O   UNK N   1      32.237  13.449   9.190  0.00  0.00    -0.390 OA
HETATM   23  H   UNK N   1      32.268  13.138  10.108  0.00  0.00     0.210 HD
ENDBRANCH   3  22
BRANCH   4  24
HETATM   24  N   UNK N   1      33.310  17.543   9.270  0.00  0.00    -0.423 N 
HETATM   25  H   UNK N   1      32.463  17.568   9.839  0.00  0.00     0.150 HD
HETATM   26  H   UNK N   1      33.501  18.452   8.849  0.00  0.00     0.150 HD
ENDBRANCH   4  24
BRANCH   2  27
HETATM   27  O   UNK N   1      33.582  13.602   6.689  0.00  0.00    -0.349 OA
BRANCH  27  28
HETATM   28  C   UNK N   1      32.702  12.829   5.899  0.00  0.00     0.282 C 
HETATM   29  O   UNK N   1      32.748  13.187   4.528  0.00  0.00    -0.352 OA
HETATM   30  C   UNK N   1      34.040  12.919   4.023  0.00  0.00     0.146 C 
HETATM   31  C   UNK N   1      34.260  11.405   3.973  0.00  0.00     0.036 C 
HETATM   32  C   UNK N   1      34.205  10.872   5.401  0.00  0.00     0.032 C 
HETATM   33  C   UNK N   1      32.905  11.314   6.065  0.00  0.00     0.129 C 
BRANCH  30  34
HETATM   34  C   UNK N   1      34.187  13.560   2.645  0.00  0.00     0.101 C 
HETATM   35  C   UNK N   1      33.782  15.026   2.723  0.00  0.00     0.034 C 
BRANCH  34  36
HETATM   36  N   UNK N   1      35.564  13.462   2.180  0.00  0.00    -0.419 N 
HETATM   37  C   UNK N   1      35.623  14.072   0.861  0.00  0.00     0.140 C 
HETATM   38  H   UNK N   1      36.343  13.042   2.687  0.00  0.00     0.153 HD
ENDBRANCH  34  36
ENDBRANCH  30  34
BRANCH  33  39
HETATM   39  N   UNK N   1      32.897  10.939   7.468  0.00  0.00    -0.422 N 
HETATM   40  H   UNK N   1      32.620  11.571   8.219  0.00  0.00     0.150 HD
HETATM   41  H   UNK N   1      33.185   9.992   7.714  0.00  0.00     0.150 HD
ENDBRANCH  33  39
ENDBRANCH  27  28
ENDBRANCH   2  27
BRANCH   5  42
HETATM   42  N   UNK N   1      32.204  16.983   6.663  0.00  0.00    -0.423 N 
HETATM   43  H   UNK N   1      31.357  17.125   7.212  0.00  0.00     0.150 HD
HETATM   44  H   UNK N   1      32.329  17.717   5.965  0.00  0.00     0.150 HD
ENDBRANCH   5  42
TORSDOF 13
ENDMDL
MODEL 8
REMARK VINA RESULT:      -5.8     12.157     15.854
REMARK  13 active torsions:
REMARK  status: ('A' for Active; 'I' for Inactive)
REMARK    1  A    between atoms: O_1  and  C_13 
REMARK    2  A    between atoms: O_1  and  C_19 
REMARK    3  A    between atoms: O_2  and  C_14 
REMARK    4  A    between atoms: O_2  and  C_22 
REMARK    5  A    between atoms: O_3  and  C_15 
REMARK    6  A    between atoms: O_6  and  C_21 
REMARK    7  A    between atoms: O_7  and  C_23 
REMARK    8  A    between atoms: N_8  and  C_16 
REMARK    9  A    between atoms: N_9  and  C_17 
REMARK   10  A    between atoms: N_10  and  C_20 
REMARK   11  A    between atoms: N_11  and  C_24 
REMARK   12  A    between atoms: N_12  and  C_29 
REMARK   13  A    between atoms: C_25  and  C_29 
ROOT
HETATM    1  C   UNK N   1      41.271  23.145  -0.197  0.00  0.00     0.178 C 
HETATM    2  C   UNK N   1      41.271  21.744   1.966  0.00  0.00     0.178 C 
HETATM    3  C   UNK N   1      41.056  23.125   1.330  0.00  0.00     0.180 C 
HETATM    4  C   UNK N   1      40.358  22.108  -0.851  0.00  0.00     0.107 C 
HETATM    5  C   UNK N   1      40.458  20.653   1.260  0.00  0.00     0.107 C 
HETATM    6  C   UNK N   1      40.625  20.708  -0.267  0.00  0.00     0.054 C 
ENDROOT
BRANCH   1   7
HETATM    7  O   UNK N   1      42.599  22.877  -0.593  0.00  0.00    -0.349 OA
BRANCH   7   8
HETATM    8  C   UNK N   1      43.325  24.075  -0.721  0.00  0.00     0.291 C 
HETATM    9  O   UNK N   1      42.522  25.179  -0.398  0.00  0.00    -0.356 OA
HETATM   10  C   UNK N   1      43.022  26.309  -1.098  0.00  0.00     0.210 C 
HETATM   11  C   UNK N   1      44.571  26.408  -1.131  0.00  0.00     0.098 C 
HETATM   12  C   UNK N   1      45.167  25.636   0.069  0.00  0.00     0.146 C 
HETATM   13  C   UNK N   1      44.985  27.868  -1.120  0.00  0.00     0.050 C 
HETATM   14  C   UNK N   1      44.663  24.167   0.053  0.00  0.00     0.198 C 
BRANCH  11  15
HETATM   15  O   UNK N   1      45.031  25.835  -2.319  0.00  0.00    -0.386 OA
HETATM   16  H   UNK N   1      45.805  25.479  -2.782  0.00  0.00     0.210 HD
ENDBRANCH  11  15
BRANCH  12  17
HETATM   17  N   UNK N   1      44.800  26.297   1.318  0.00  0.00    -0.416 N 
HETATM   18  C   UNK N   1      45.999  26.339   2.136  0.00  0.00     0.140 C 
HETATM   19  H   UNK N   1      43.880  26.660   1.568  0.00  0.00     0.153 HD
ENDBRANCH  12  17
BRANCH  14  20
HETATM   20  O   UNK N   1      44.552  23.653   1.349  0.00  0.00    -0.388 OA
HETATM   21  H   UNK N   1      44.551  22.721   1.618  0.00  0.00     0.210 HD
ENDBRANCH  14  20
ENDBRANCH   7   8
ENDBRANCH   1   7
BRANCH   3  22
HETATM   22  O   UNK N   1      41.803  24.108   1.982  0.00  0.00    -0.390 OA
HETATM   23  H   UNK N   1      42.767  24.145   2.078  0.00  0.00     0.210 HD
ENDBRANCH   3  22
BRANCH   4  24
HETATM   24  N   UNK N   1      38.960  22.479  -0.697  0.00  0.00    -0.423 N 
HETATM   25  H   UNK N   1      38.333  22.743   0.062  0.00  0.00     0.150 HD
HETATM   26  H   UNK N   1      38.474  22.473  -1.594  0.00  0.00     0.150 HD
ENDBRANCH   4  24
BRANCH   2  27
HETATM   27  O   UNK N   1      42.624  21.388   2.069  0.00  0.00    -0.349 OA
BRANCH  27  28
HETATM   28  C   UNK N   1      42.768  20.880   3.379  0.00  0.00     0.282 C 
HETATM   29  O   UNK N   1      43.043  19.490   3.395  0.00  0.00    -0.352 OA
HETATM   30  C   UNK N   1      44.285  19.257   2.764  0.00  0.00     0.146 C 
HETATM   31  C   UNK N   1      45.410  19.822   3.634  0.00  0.00     0.036 C 
HETATM   32  C   UNK N   1      45.219  21.333   3.730  0.00  0.00     0.032 C 
HETATM   33  C   UNK N   1      43.807  21.642   4.217  0.00  0.00     0.129 C 
BRANCH  30  34
HETATM   34  C   UNK N   1      44.455  17.760   2.519  0.00  0.00     0.101 C 
HETATM   35  C   UNK N   1      45.478  17.200   3.500  0.00  0.00     0.034 C 
BRANCH  34  36
HETATM   36  N   UNK N   1      43.187  17.064   2.694  0.00  0.00    -0.419 N 
HETATM   37  C   UNK N   1      43.490  15.702   3.102  0.00  0.00     0.140 C 
HETATM   38  H   UNK N   1      42.258  17.461   2.554  0.00  0.00     0.153 HD
ENDBRANCH  34  36
ENDBRANCH  30  34
BRANCH  33  39
HETATM   39  N   UNK N   1      43.558  23.072   4.179  0.00  0.00    -0.422 N 
HETATM   40  H   UNK N   1      43.728  23.652   3.357  0.00  0.00     0.150 HD
HETATM   41  H   UNK N   1      43.194  23.520   5.019  0.00  0.00     0.150 HD
ENDBRANCH  33  39
ENDBRANCH  27  28
ENDBRANCH   2  27
BRANCH   5  42
HETATM   42  N   UNK N   1      39.055  20.763   1.622  0.00  0.00    -0.423 N 
HETATM   43  H   UNK N   1      38.165  20.816   1.128  0.00  0.00     0.150 HD
HETATM   44  H   UNK N   1      38.928  20.794   2.634  0.00  0.00     0.150 HD
ENDBRANCH   5  42
TORSDOF 13
ENDMDL
MODEL 9
REMARK VINA RESULT:      -5.8      2.685      3.935
REMARK  13 active torsions:
REMARK  status: ('A' for Active; 'I' for Inactive)
REMARK    1  A    between atoms: O_1  and  C_13 
REMARK    2  A    between atoms: O_1  and  C_19 
REMARK    3  A    between atoms: O_2  and  C_14 
REMARK    4  A    between atoms: O_2  and  C_22 
REMARK    5  A    between atoms: O_3  and  C_15 
REMARK    6  A    between atoms: O_6  and  C_21 
REMARK    7  A    between atoms: O_7  and  C_23 
REMARK    8  A    between atoms: N_8  and  C_16 
REMARK    9  A    between atoms: N_9  and  C_17 
REMARK   10  A    between atoms: N_10  and  C_20 
REMARK   11  A    between atoms: N_11  and  C_24 
REMARK   12  A    between atoms: N_12  and  C_29 
REMARK   13  A    between atoms: C_25  and  C_29 
ROOT
HETATM    1  C   UNK N   1      34.949  14.475   7.316  0.00  0.00     0.178 C 
HETATM    2  C   UNK N   1      32.994  15.310   5.858  0.00  0.00     0.178 C 
HETATM    3  C   UNK N   1      34.443  15.533   6.314  0.00  0.00     0.180 C 
HETATM    4  C   UNK N   1      34.789  13.082   6.705  0.00  0.00     0.107 C 
HETATM    5  C   UNK N   1      32.765  13.883   5.346  0.00  0.00     0.107 C 
HETATM    6  C   UNK N   1      33.321  12.827   6.316  0.00  0.00     0.054 C 
ENDROOT
BRANCH   1   7
HETATM    7  O   UNK N   1      34.276  14.493   8.556  0.00  0.00    -0.349 OA
BRANCH   7   8
HETATM    8  C   UNK N   1      35.038  13.831   9.537  0.00  0.00     0.291 C 
HETATM    9  O   UNK N   1      36.387  14.207   9.456  0.00  0.00    -0.356 OA
HETATM   10  C   UNK N   1      37.175  13.142   9.967  0.00  0.00     0.210 C 
HETATM   11  C   UNK N   1      36.591  12.466  11.237  0.00  0.00     0.098 C 
HETATM   12  C   UNK N   1      35.659  13.457  11.972  0.00  0.00     0.146 C 
HETATM   13  C   UNK N   1      37.727  11.998  12.129  0.00  0.00     0.050 C 
HETATM   14  C   UNK N   1      34.555  13.959  11.002  0.00  0.00     0.198 C 
BRANCH  11  15
HETATM   15  O   UNK N   1      35.854  11.345  10.848  0.00  0.00    -0.386 OA
HETATM   16  H   UNK N   1      35.190  10.695  11.127  0.00  0.00     0.210 HD
ENDBRANCH  11  15
BRANCH  12  17
HETATM   17  N   UNK N   1      36.437  14.577  12.497  0.00  0.00    -0.416 N 
HETATM   18  C   UNK N   1      36.360  14.496  13.945  0.00  0.00     0.140 C 
HETATM   19  H   UNK N   1      36.937  15.279  11.952  0.00  0.00     0.153 HD
ENDBRANCH  12  17
BRANCH  14  20
HETATM   20  O   UNK N   1      34.163  15.267  11.309  0.00  0.00    -0.388 OA
HETATM   21  H   UNK N   1      34.431  16.085  10.862  0.00  0.00     0.210 HD
ENDBRANCH  14  20
ENDBRANCH   7   8
ENDBRANCH   1   7
BRANCH   3  22
HETATM   22  O   UNK N   1      34.636  16.836   6.778  0.00  0.00    -0.390 OA
HETATM   23  H   UNK N   1      35.141  17.112   7.558  0.00  0.00     0.210 HD
ENDBRANCH   3  22
BRANCH   4  24
HETATM   24  N   UNK N   1      35.669  12.916   5.559  0.00  0.00    -0.423 N 
HETATM   25  H   UNK N   1      36.462  13.405   5.144  0.00  0.00     0.150 HD
HETATM   26  H   UNK N   1      35.425  12.084   5.022  0.00  0.00     0.150 HD
ENDBRANCH   4  24
BRANCH   2  27
HETATM   27  O   UNK N   1      32.047  15.661   6.833  0.00  0.00    -0.349 OA
BRANCH  27  28
HETATM   28  C   UNK N   1      31.977  17.070   6.780  0.00  0.00     0.282 C 
HETATM   29  O   UNK N   1      30.987  17.531   5.877  0.00  0.00    -0.352 OA
HETATM   30  C   UNK N   1      29.717  17.108   6.327  0.00  0.00     0.146 C 
HETATM   31  C   UNK N   1      29.360  17.859   7.613  0.00  0.00     0.036 C 
HETATM   32  C   UNK N   1      30.379  17.475   8.682  0.00  0.00     0.032 C 
HETATM   33  C   UNK N   1      31.790  17.723   8.159  0.00  0.00     0.129 C 
BRANCH  30  34
HETATM   34  C   UNK N   1      28.685  17.345   5.228  0.00  0.00     0.101 C 
HETATM   35  C   UNK N   1      27.291  17.376   5.840  0.00  0.00     0.034 C 
BRANCH  34  36
HETATM   36  N   UNK N   1      28.942  18.607   4.547  0.00  0.00    -0.419 N 
HETATM   37  C   UNK N   1      27.661  19.268   4.356  0.00  0.00     0.140 C 
HETATM   38  H   UNK N   1      29.854  18.961   4.257  0.00  0.00     0.153 HD
ENDBRANCH  34  36
ENDBRANCH  30  34
BRANCH  33  39
HETATM   39  N   UNK N   1      32.776  17.231   9.106  0.00  0.00    -0.422 N 
HETATM   40  H   UNK N   1      32.783  16.279   9.469  0.00  0.00     0.150 HD
HETATM   41  H   UNK N   1      33.501  17.875   9.424  0.00  0.00     0.150 HD
ENDBRANCH  33  39
ENDBRANCH  27  28
ENDBRANCH   2  27
BRANCH   5  42
HETATM   42  N   UNK N   1      33.358  13.724   4.029  0.00  0.00    -0.423 N 
HETATM   43  H   UNK N   1      34.294  13.592   3.649  0.00  0.00     0.150 HD
HETATM   44  H   UNK N   1      32.652  13.751   3.293  0.00  0.00     0.150 HD
ENDBRANCH   5  42
TORSDOF 13
ENDMDL
