MODEL 1
REMARK VINA RESULT:      -7.7      0.000      0.000
REMARK  5 active torsions:
REMARK  status: ('A' for Active; 'I' for Inactive)
REMARK    1  A    between atoms: O_2  and  C_24 
REMARK    2  A    between atoms: O_2  and  C_25 
REMARK    3  A    between atoms: C_15  and  C_17 
REMARK    4  A    between atoms: C_18  and  C_19 
REMARK    5  A    between atoms: C_21  and  C_24 
ROOT
HETATM    1  C   UNK N   1      28.233  17.754   5.983  0.00  0.00    -0.060 C 
HETATM    2  C   UNK N   1      27.218  18.144   5.520  0.00  0.00    -0.043 C 
ENDROOT
BRANCH   1   3
HETATM    3  C   UNK N   1      29.389  17.593   6.730  0.00  0.00     0.018 A 
HETATM    4  C   UNK N   1      30.441  17.196   5.973  0.00  0.00     0.029 A 
HETATM    5  C   UNK N   1      31.710  17.121   6.473  0.00  0.00    -0.032 A 
HETATM    6  C   UNK N   1      32.766  16.707   5.480  0.00  0.00    -0.018 C 
HETATM    7  C   UNK N   1      31.923  17.440   7.840  0.00  0.00     0.007 A 
HETATM    8  C   UNK N   1      34.179  16.875   6.006  0.00  0.00     0.024 C 
HETATM    9  C   UNK N   1      32.513  15.254   5.093  0.00  0.00     0.020 C 
HETATM   10  C   UNK N   1      32.648  17.556   4.216  0.00  0.00     0.020 C 
HETATM   11  C   UNK N   1      34.307  16.262   7.381  0.00  0.00     0.080 C 
HETATM   12  S   UNK N   1      33.559  17.395   8.589  0.00  0.00    -0.129 SA
HETATM   13  C   UNK N   1      30.822  17.813   8.643  0.00  0.00     0.020 A 
HETATM   14  C   UNK N   1      29.539  17.903   8.082  0.00  0.00     0.022 A 
ENDBRANCH   1   3
BRANCH   2  15
HETATM   15  C   UNK N   1      26.023  18.534   4.921  0.00  0.00     0.086 A 
HETATM   16  N   UNK N   1      24.809  17.960   5.196  0.00  0.00    -0.358 N 
HETATM   17  C   UNK N   1      23.673  18.438   4.595  0.00  0.00     0.106 A 
ATOM     18  HN  UNK N   1      24.750  17.178   5.847  1.00  0.00     0.166 HD
HETATM   19  C   UNK N   1      23.785  19.535   3.716  0.00  0.00     0.054 A 
HETATM   20  C   UNK N   1      25.037  20.063   3.451  0.00  0.00     0.022 A 
HETATM   21  C   UNK N   1      26.147  19.566   4.039  0.00  0.00     0.040 A 
BRANCH  19  22
HETATM   22  C   UNK N   1      22.702  20.230   3.033  0.00  0.00     0.294 C 
HETATM   23  O   UNK N   1      22.787  21.397   2.685  0.00  0.00    -0.259 OA
BRANCH  22  24
HETATM   24  O   UNK N   1      21.595  19.489   2.776  0.00  0.00    -0.318 OA
BRANCH  24  25
HETATM   25  C   UNK N   1      20.313  19.849   3.073  0.00  0.00     0.174 C 
HETATM   26  C   UNK N   1      19.415  18.678   2.698  0.00  0.00     0.034 C 
ENDBRANCH  24  25
ENDBRANCH  22  24
ENDBRANCH  19  22
ENDBRANCH   2  15
TORSDOF 5
ENDMDL
MODEL 2
REMARK VINA RESULT:      -7.2      9.359     12.883
REMARK  5 active torsions:
REMARK  status: ('A' for Active; 'I' for Inactive)
REMARK    1  A    between atoms: O_2  and  C_24 
REMARK    2  A    between atoms: O_2  and  C_25 
REMARK    3  A    between atoms: C_15  and  C_17 
REMARK    4  A    between atoms: C_18  and  C_19 
REMARK    5  A    between atoms: C_21  and  C_24 
ROOT
HETATM    1  C   UNK N   1      35.511  13.235  14.047  0.00  0.00    -0.060 C 
HETATM    2  C   UNK N   1      35.234  13.861  13.084  0.00  0.00    -0.043 C 
ENDROOT
BRANCH   1   3
HETATM    3  C   UNK N   1      35.485  12.545  15.248  0.00  0.00     0.018 A 
HETATM    4  C   UNK N   1      36.042  11.314  15.148  0.00  0.00     0.029 A 
HETATM    5  C   UNK N   1      36.259  10.522  16.240  0.00  0.00    -0.032 A 
HETATM    6  C   UNK N   1      36.930   9.204  15.952  0.00  0.00    -0.018 C 
HETATM    7  C   UNK N   1      35.855  10.997  17.516  0.00  0.00     0.007 A 
HETATM    8  C   UNK N   1      37.372   8.473  17.206  0.00  0.00     0.024 C 
HETATM    9  C   UNK N   1      35.963   8.341  15.148  0.00  0.00     0.020 C 
HETATM   10  C   UNK N   1      38.175   9.434  15.098  0.00  0.00     0.020 C 
HETATM   11  C   UNK N   1      36.245   8.419  18.211  0.00  0.00     0.080 C 
HETATM   12  S   UNK N   1      36.117  10.042  19.019  0.00  0.00    -0.129 SA
HETATM   13  C   UNK N   1      35.236  12.263  17.619  0.00  0.00     0.020 A 
HETATM   14  C   UNK N   1      35.057  13.055  16.475  0.00  0.00     0.022 A 
ENDBRANCH   1   3
BRANCH   2  15
HETATM   15  C   UNK N   1      34.991  14.593  11.925  0.00  0.00     0.086 A 
HETATM   16  N   UNK N   1      34.035  14.263  10.999  0.00  0.00    -0.358 N 
HETATM   17  C   UNK N   1      33.830  15.066   9.908  0.00  0.00     0.106 A 
ATOM     18  HN  UNK N   1      33.477  13.418  11.123  1.00  0.00     0.166 HD
HETATM   19  C   UNK N   1      34.603  16.238   9.779  0.00  0.00     0.054 A 
HETATM   20  C   UNK N   1      35.574  16.516  10.725  0.00  0.00     0.022 A 
HETATM   21  C   UNK N   1      35.774  15.701  11.784  0.00  0.00     0.040 A 
BRANCH  19  22
HETATM   22  C   UNK N   1      34.497  17.253   8.738  0.00  0.00     0.294 C 
HETATM   23  O   UNK N   1      35.067  18.330   8.810  0.00  0.00    -0.259 OA
BRANCH  22  24
HETATM   24  O   UNK N   1      33.744  16.916   7.660  0.00  0.00    -0.318 OA
BRANCH  24  25
HETATM   25  C   UNK N   1      34.218  16.689   6.402  0.00  0.00     0.174 C 
HETATM   26  C   UNK N   1      33.346  17.481   5.438  0.00  0.00     0.034 C 
ENDBRANCH  24  25
ENDBRANCH  22  24
ENDBRANCH  19  22
ENDBRANCH   2  15
TORSDOF 5
ENDMDL
MODEL 3
REMARK VINA RESULT:      -7.1      4.831      9.884
REMARK  5 active torsions:
REMARK  status: ('A' for Active; 'I' for Inactive)
REMARK    1  A    between atoms: O_2  and  C_24 
REMARK    2  A    between atoms: O_2  and  C_25 
REMARK    3  A    between atoms: C_15  and  C_17 
REMARK    4  A    between atoms: C_18  and  C_19 
REMARK    5  A    between atoms: C_21  and  C_24 
ROOT
HETATM    1  C   UNK N   1      27.134  18.526   4.446  0.00  0.00    -0.060 C 
HETATM    2  C   UNK N   1      28.265  18.240   4.634  0.00  0.00    -0.043 C 
ENDROOT
BRANCH   1   3
HETATM    3  C   UNK N   1      25.941  18.994   3.918  0.00  0.00     0.018 A 
HETATM    4  C   UNK N   1      24.899  18.170   4.187  0.00  0.00     0.029 A 
HETATM    5  C   UNK N   1      23.609  18.510   3.894  0.00  0.00    -0.032 A 
HETATM    6  C   UNK N   1      22.572  17.497   4.304  0.00  0.00    -0.018 C 
HETATM    7  C   UNK N   1      23.361  19.754   3.256  0.00  0.00     0.007 A 
HETATM    8  C   UNK N   1      21.151  18.016   4.187  0.00  0.00     0.024 C 
HETATM    9  C   UNK N   1      22.754  16.252   3.442  0.00  0.00     0.020 C 
HETATM   10  C   UNK N   1      22.789  17.095   5.761  0.00  0.00     0.020 C 
HETATM   11  C   UNK N   1      20.932  18.656   2.836  0.00  0.00     0.080 C 
HETATM   12  S   UNK N   1      21.696  20.305   2.849  0.00  0.00    -0.129 SA
HETATM   13  C   UNK N   1      24.448  20.597   2.936  0.00  0.00     0.020 A 
HETATM   14  C   UNK N   1      25.756  20.221   3.280  0.00  0.00     0.022 A 
ENDBRANCH   1   3
BRANCH   2  15
HETATM   15  C   UNK N   1      29.573  17.869   4.932  0.00  0.00     0.086 A 
HETATM   16  N   UNK N   1      30.598  17.889   4.021  0.00  0.00    -0.358 N 
HETATM   17  C   UNK N   1      31.869  17.552   4.411  0.00  0.00     0.106 A 
ATOM     18  HN  UNK N   1      30.416  18.154   3.054  1.00  0.00     0.166 HD
HETATM   19  C   UNK N   1      32.092  17.212   5.762  0.00  0.00     0.054 A 
HETATM   20  C   UNK N   1      31.020  17.181   6.637  0.00  0.00     0.022 A 
HETATM   21  C   UNK N   1      29.772  17.498   6.228  0.00  0.00     0.040 A 
BRANCH  19  22
HETATM   22  C   UNK N   1      33.367  16.890   6.389  0.00  0.00     0.294 C 
HETATM   23  O   UNK N   1      34.333  17.634   6.332  0.00  0.00    -0.259 OA
BRANCH  22  24
HETATM   24  O   UNK N   1      33.409  15.720   7.074  0.00  0.00    -0.318 OA
BRANCH  24  25
HETATM   25  C   UNK N   1      34.066  15.513   8.251  0.00  0.00     0.174 C 
HETATM   26  C   UNK N   1      33.019  15.178   9.304  0.00  0.00     0.034 C 
ENDBRANCH  24  25
ENDBRANCH  22  24
ENDBRANCH  19  22
ENDBRANCH   2  15
TORSDOF 5
ENDMDL
MODEL 4
REMARK VINA RESULT:      -6.9      1.591      2.638
REMARK  5 active torsions:
REMARK  status: ('A' for Active; 'I' for Inactive)
REMARK    1  A    between atoms: O_2  and  C_24 
REMARK    2  A    between atoms: O_2  and  C_25 
REMARK    3  A    between atoms: C_15  and  C_17 
REMARK    4  A    between atoms: C_18  and  C_19 
REMARK    5  A    between atoms: C_21  and  C_24 
ROOT
HETATM    1  C   UNK N   1      29.068  17.850   4.599  0.00  0.00    -0.060 C 
HETATM    2  C   UNK N   1      28.026  18.338   4.331  0.00  0.00    -0.043 C 
ENDROOT
BRANCH   1   3
HETATM    3  C   UNK N   1      30.088  16.984   4.958  0.00  0.00     0.018 A 
HETATM    4  C   UNK N   1      30.555  17.225   6.207  0.00  0.00     0.029 A 
HETATM    5  C   UNK N   1      31.454  16.399   6.819  0.00  0.00    -0.032 A 
HETATM    6  C   UNK N   1      31.829  16.792   8.226  0.00  0.00    -0.018 C 
HETATM    7  C   UNK N   1      31.936  15.269   6.107  0.00  0.00     0.007 A 
HETATM    8  C   UNK N   1      32.628  15.725   8.950  0.00  0.00     0.024 C 
HETATM    9  C   UNK N   1      32.619  18.094   8.162  0.00  0.00     0.020 C 
HETATM   10  C   UNK N   1      30.566  17.048   9.045  0.00  0.00     0.020 C 
HETATM   11  C   UNK N   1      33.770  15.241   8.087  0.00  0.00     0.080 C 
HETATM   12  S   UNK N   1      33.103  14.107   6.833  0.00  0.00    -0.129 SA
HETATM   13  C   UNK N   1      31.484  15.038   4.789  0.00  0.00     0.020 A 
HETATM   14  C   UNK N   1      30.539  15.897   4.207  0.00  0.00     0.022 A 
ENDBRANCH   1   3
BRANCH   2  15
HETATM   15  C   UNK N   1      26.839  18.988   4.003  0.00  0.00     0.086 A 
HETATM   16  N   UNK N   1      26.781  20.154   3.283  0.00  0.00    -0.358 N 
HETATM   17  C   UNK N   1      25.567  20.702   2.963  0.00  0.00     0.106 A 
ATOM     18  HN  UNK N   1      27.642  20.613   2.986  1.00  0.00     0.166 HD
HETATM   19  C   UNK N   1      24.395  20.031   3.370  0.00  0.00     0.054 A 
HETATM   20  C   UNK N   1      24.505  18.871   4.117  0.00  0.00     0.022 A 
HETATM   21  C   UNK N   1      25.713  18.356   4.438  0.00  0.00     0.040 A 
BRANCH  19  22
HETATM   22  C   UNK N   1      23.018  20.407   3.077  0.00  0.00     0.294 C 
HETATM   23  O   UNK N   1      22.703  21.539   2.745  0.00  0.00    -0.259 OA
BRANCH  22  24
HETATM   24  O   UNK N   1      22.102  19.410   3.166  0.00  0.00    -0.318 OA
BRANCH  24  25
HETATM   25  C   UNK N   1      20.814  19.552   3.591  0.00  0.00     0.174 C 
HETATM   26  C   UNK N   1      19.944  18.672   2.704  0.00  0.00     0.034 C 
ENDBRANCH  24  25
ENDBRANCH  22  24
ENDBRANCH  19  22
ENDBRANCH   2  15
TORSDOF 5
ENDMDL
MODEL 5
REMARK VINA RESULT:      -6.7      5.624     10.291
REMARK  5 active torsions:
REMARK  status: ('A' for Active; 'I' for Inactive)
REMARK    1  A    between atoms: O_2  and  C_24 
REMARK    2  A    between atoms: O_2  and  C_25 
REMARK    3  A    between atoms: C_15  and  C_17 
REMARK    4  A    between atoms: C_18  and  C_19 
REMARK    5  A    between atoms: C_21  and  C_24 
ROOT
HETATM    1  C   UNK N   1      29.557  16.876   6.480  0.00  0.00    -0.060 C 
HETATM    2  C   UNK N   1      30.564  16.874   7.099  0.00  0.00    -0.043 C 
ENDROOT
BRANCH   1   3
HETATM    3  C   UNK N   1      28.233  16.808   6.077  0.00  0.00     0.018 A 
HETATM    4  C   UNK N   1      27.773  17.996   5.614  0.00  0.00     0.029 A 
HETATM    5  C   UNK N   1      26.547  18.123   5.027  0.00  0.00    -0.032 A 
HETATM    6  C   UNK N   1      26.216  19.506   4.527  0.00  0.00    -0.018 C 
HETATM    7  C   UNK N   1      25.716  16.975   4.930  0.00  0.00     0.007 A 
HETATM    8  C   UNK N   1      24.965  19.548   3.670  0.00  0.00     0.024 C 
HETATM    9  C   UNK N   1      26.063  20.425   5.735  0.00  0.00     0.020 C 
HETATM   10  C   UNK N   1      27.367  20.037   3.676  0.00  0.00     0.020 C 
HETATM   11  C   UNK N   1      23.832  18.818   4.354  0.00  0.00     0.080 C 
HETATM   12  S   UNK N   1      24.094  17.031   4.153  0.00  0.00    -0.129 SA
HETATM   13  C   UNK N   1      26.175  15.744   5.449  0.00  0.00     0.020 A 
HETATM   14  C   UNK N   1      27.453  15.652   6.020  0.00  0.00     0.022 A 
ENDBRANCH   1   3
BRANCH   2  15
HETATM   15  C   UNK N   1      31.791  16.888   7.754  0.00  0.00     0.086 A 
HETATM   16  N   UNK N   1      32.698  17.912   7.655  0.00  0.00    -0.358 N 
HETATM   17  C   UNK N   1      33.865  17.867   8.373  0.00  0.00     0.106 A 
ATOM     18  HN  UNK N   1      32.504  18.707   7.046  1.00  0.00     0.166 HD
HETATM   19  C   UNK N   1      34.092  16.764   9.222  0.00  0.00     0.054 A 
HETATM   20  C   UNK N   1      33.159  15.744   9.269  0.00  0.00     0.022 A 
HETATM   21  C   UNK N   1      32.024  15.798   8.539  0.00  0.00     0.040 A 
BRANCH  19  22
HETATM   22  C   UNK N   1      35.227  16.559  10.112  0.00  0.00     0.294 C 
HETATM   23  O   UNK N   1      35.960  17.469  10.463  0.00  0.00    -0.259 OA
BRANCH  22  24
HETATM   24  O   UNK N   1      35.406  15.290  10.557  0.00  0.00    -0.318 OA
BRANCH  24  25
HETATM   25  C   UNK N   1      35.858  14.939  11.795  0.00  0.00     0.174 C 
HETATM   26  C   UNK N   1      35.132  13.665  12.201  0.00  0.00     0.034 C 
ENDBRANCH  24  25
ENDBRANCH  22  24
ENDBRANCH  19  22
ENDBRANCH   2  15
TORSDOF 5
ENDMDL
MODEL 6
REMARK VINA RESULT:      -6.7      9.297     13.547
REMARK  5 active torsions:
REMARK  status: ('A' for Active; 'I' for Inactive)
REMARK    1  A    between atoms: O_2  and  C_24 
REMARK    2  A    between atoms: O_2  and  C_25 
REMARK    3  A    between atoms: C_15  and  C_17 
REMARK    4  A    between atoms: C_18  and  C_19 
REMARK    5  A    between atoms: C_21  and  C_24 
ROOT
HETATM    1  C   UNK N   1      35.766  14.260  10.719  0.00  0.00    -0.060 C 
HETATM    2  C   UNK N   1      35.780  14.073  11.886  0.00  0.00    -0.043 C 
ENDROOT
BRANCH   1   3
HETATM    3  C   UNK N   1      35.432  14.311   9.375  0.00  0.00     0.018 A 
HETATM    4  C   UNK N   1      34.772  15.450   9.051  0.00  0.00     0.029 A 
HETATM    5  C   UNK N   1      34.481  15.777   7.757  0.00  0.00    -0.032 A 
HETATM    6  C   UNK N   1      33.785  17.102   7.574  0.00  0.00    -0.018 C 
HETATM    7  C   UNK N   1      34.855  14.877   6.725  0.00  0.00     0.007 A 
HETATM    8  C   UNK N   1      33.703  17.538   6.123  0.00  0.00     0.024 C 
HETATM    9  C   UNK N   1      32.387  16.994   8.175  0.00  0.00     0.020 C 
HETATM   10  C   UNK N   1      34.539  18.191   8.334  0.00  0.00     0.020 C 
HETATM   11  C   UNK N   1      33.186  16.410   5.261  0.00  0.00     0.080 C 
HETATM   12  S   UNK N   1      34.538  15.226   4.989  0.00  0.00    -0.129 SA
HETATM   13  C   UNK N   1      35.505  13.669   7.063  0.00  0.00     0.020 A 
HETATM   14  C   UNK N   1      35.810  13.384   8.403  0.00  0.00     0.022 A 
ENDBRANCH   1   3
BRANCH   2  15
HETATM   15  C   UNK N   1      35.874  13.892  13.263  0.00  0.00     0.086 A 
HETATM   16  N   UNK N   1      36.770  14.555  14.061  0.00  0.00    -0.358 N 
HETATM   17  C   UNK N   1      36.763  14.351  15.416  0.00  0.00     0.106 A 
ATOM     18  HN  UNK N   1      37.443  15.199  13.646  1.00  0.00     0.166 HD
HETATM   19  C   UNK N   1      35.806  13.470  15.961  0.00  0.00     0.054 A 
HETATM   20  C   UNK N   1      34.939  12.805  15.112  0.00  0.00     0.022 A 
HETATM   21  C   UNK N   1      34.975  13.005  13.776  0.00  0.00     0.040 A 
BRANCH  19  22
HETATM   22  C   UNK N   1      35.588  13.169  17.370  0.00  0.00     0.294 C 
HETATM   23  O   UNK N   1      35.359  14.035  18.199  0.00  0.00    -0.259 OA
BRANCH  22  24
HETATM   24  O   UNK N   1      35.625  11.855  17.705  0.00  0.00    -0.318 OA
BRANCH  24  25
HETATM   25  C   UNK N   1      35.349  11.343  18.939  0.00  0.00     0.174 C 
HETATM   26  C   UNK N   1      36.205  10.097  19.116  0.00  0.00     0.034 C 
ENDBRANCH  24  25
ENDBRANCH  22  24
ENDBRANCH  19  22
ENDBRANCH   2  15
TORSDOF 5
ENDMDL
MODEL 7
REMARK VINA RESULT:      -6.7      8.417     12.364
REMARK  5 active torsions:
REMARK  status: ('A' for Active; 'I' for Inactive)
REMARK    1  A    between atoms: O_2  and  C_24 
REMARK    2  A    between atoms: O_2  and  C_25 
REMARK    3  A    between atoms: C_15  and  C_17 
REMARK    4  A    between atoms: C_18  and  C_19 
REMARK    5  A    between atoms: C_21  and  C_24 
ROOT
HETATM    1  C   UNK N   1      34.049  13.529   8.831  0.00  0.00    -0.060 C 
HETATM    2  C   UNK N   1      34.425  13.550   9.952  0.00  0.00    -0.043 C 
ENDROOT
BRANCH   1   3
HETATM    3  C   UNK N   1      33.856  13.763   7.479  0.00  0.00     0.018 A 
HETATM    4  C   UNK N   1      33.429  15.025   7.230  0.00  0.00     0.029 A 
HETATM    5  C   UNK N   1      33.319  15.518   5.961  0.00  0.00    -0.032 A 
HETATM    6  C   UNK N   1      32.875  16.956   5.870  0.00  0.00    -0.018 C 
HETATM    7  C   UNK N   1      33.632  14.666   4.870  0.00  0.00     0.007 A 
HETATM    8  C   UNK N   1      33.004  17.532   4.472  0.00  0.00     0.024 C 
HETATM    9  C   UNK N   1      31.429  17.040   6.346  0.00  0.00     0.020 C 
HETATM   10  C   UNK N   1      33.726  17.819   6.797  0.00  0.00     0.020 C 
HETATM   11  C   UNK N   1      32.388  16.598   3.456  0.00  0.00     0.080 C 
HETATM   12  S   UNK N   1      33.542  15.226   3.162  0.00  0.00    -0.129 SA
HETATM   13  C   UNK N   1      34.037  13.336   5.124  0.00  0.00     0.020 A 
HETATM   14  C   UNK N   1      34.163  12.879   6.445  0.00  0.00     0.022 A 
ENDBRANCH   1   3
BRANCH   2  15
HETATM   15  C   UNK N   1      34.810  13.512  11.289  0.00  0.00     0.086 A 
HETATM   16  N   UNK N   1      34.576  12.448  12.121  0.00  0.00    -0.358 N 
HETATM   17  C   UNK N   1      35.032  12.475  13.413  0.00  0.00     0.106 A 
ATOM     18  HN  UNK N   1      34.063  11.636  11.778  1.00  0.00     0.166 HD
HETATM   19  C   UNK N   1      35.758  13.603  13.849  0.00  0.00     0.054 A 
HETATM   20  C   UNK N   1      35.945  14.663  12.980  0.00  0.00     0.022 A 
HETATM   21  C   UNK N   1      35.472  14.625  11.715  0.00  0.00     0.040 A 
BRANCH  19  22
HETATM   22  C   UNK N   1      36.380  13.799  15.152  0.00  0.00     0.294 C 
HETATM   23  O   UNK N   1      37.166  14.706  15.374  0.00  0.00    -0.259 OA
BRANCH  22  24
HETATM   24  O   UNK N   1      36.009  12.925  16.121  0.00  0.00    -0.318 OA
BRANCH  24  25
HETATM   25  C   UNK N   1      34.932  13.065  16.945  0.00  0.00     0.174 C 
HETATM   26  C   UNK N   1      35.341  14.001  18.074  0.00  0.00     0.034 C 
ENDBRANCH  24  25
ENDBRANCH  22  24
ENDBRANCH  19  22
ENDBRANCH   2  15
TORSDOF 5
ENDMDL
MODEL 8
REMARK VINA RESULT:      -6.6     15.764     18.863
REMARK  5 active torsions:
REMARK  status: ('A' for Active; 'I' for Inactive)
REMARK    1  A    between atoms: O_2  and  C_24 
REMARK    2  A    between atoms: O_2  and  C_25 
REMARK    3  A    between atoms: C_15  and  C_17 
REMARK    4  A    between atoms: C_18  and  C_19 
REMARK    5  A    between atoms: C_21  and  C_24 
ROOT
HETATM    1  C   UNK N   1      35.093  11.183  19.546  0.00  0.00    -0.060 C 
HETATM    2  C   UNK N   1      34.555  10.696  20.479  0.00  0.00    -0.043 C 
ENDROOT
BRANCH   1   3
HETATM    3  C   UNK N   1      35.388  11.863  18.376  0.00  0.00     0.018 A 
HETATM    4  C   UNK N   1      35.737  11.028  17.367  0.00  0.00     0.029 A 
HETATM    5  C   UNK N   1      35.922  11.469  16.088  0.00  0.00    -0.032 A 
HETATM    6  C   UNK N   1      36.260  10.397  15.083  0.00  0.00    -0.018 C 
HETATM    7  C   UNK N   1      35.776  12.856  15.818  0.00  0.00     0.007 A 
HETATM    8  C   UNK N   1      36.213  10.888  13.648  0.00  0.00     0.024 C 
HETATM    9  C   UNK N   1      37.646   9.854  15.413  0.00  0.00     0.020 C 
HETATM   10  C   UNK N   1      35.264   9.246  15.202  0.00  0.00     0.020 C 
HETATM   11  C   UNK N   1      36.988  12.177  13.505  0.00  0.00     0.080 C 
HETATM   12  S   UNK N   1      35.975  13.535  14.163  0.00  0.00    -0.129 SA
HETATM   13  C   UNK N   1      35.454  13.736  16.875  0.00  0.00     0.020 A 
HETATM   14  C   UNK N   1      35.245  13.236  18.169  0.00  0.00     0.022 A 
ENDBRANCH   1   3
BRANCH   2  15
HETATM   15  C   UNK N   1      34.000  10.092  21.603  0.00  0.00     0.086 A 
HETATM   16  N   UNK N   1      34.610  10.055  22.831  0.00  0.00    -0.358 N 
HETATM   17  C   UNK N   1      33.970   9.480  23.898  0.00  0.00     0.106 A 
ATOM     18  HN  UNK N   1      35.540  10.456  22.949  1.00  0.00     0.166 HD
HETATM   19  C   UNK N   1      32.675   8.954  23.705  0.00  0.00     0.054 A 
HETATM   20  C   UNK N   1      32.112   8.991  22.441  0.00  0.00     0.022 A 
HETATM   21  C   UNK N   1      32.767   9.546  21.398  0.00  0.00     0.040 A 
BRANCH  19  22
HETATM   22  C   UNK N   1      31.805   8.366  24.714  0.00  0.00     0.294 C 
HETATM   23  O   UNK N   1      31.425   7.207  24.659  0.00  0.00    -0.259 OA
BRANCH  22  24
HETATM   24  O   UNK N   1      31.464   9.178  25.745  0.00  0.00    -0.318 OA
BRANCH  24  25
HETATM   25  C   UNK N   1      30.226   9.262  26.313  0.00  0.00     0.174 C 
HETATM   26  C   UNK N   1      29.788  10.717  26.235  0.00  0.00     0.034 C 
ENDBRANCH  24  25
ENDBRANCH  22  24
ENDBRANCH  19  22
ENDBRANCH   2  15
TORSDOF 5
ENDMDL
MODEL 9
REMARK VINA RESULT:      -6.5      7.172     11.578
REMARK  5 active torsions:
REMARK  status: ('A' for Active; 'I' for Inactive)
REMARK    1  A    between atoms: O_2  and  C_24 
REMARK    2  A    between atoms: O_2  and  C_25 
REMARK    3  A    between atoms: C_15  and  C_17 
REMARK    4  A    between atoms: C_18  and  C_19 
REMARK    5  A    between atoms: C_21  and  C_24 
ROOT
HETATM    1  C   UNK N   1      32.580  15.341   7.944  0.00  0.00    -0.060 C 
HETATM    2  C   UNK N   1      33.185  14.872   8.844  0.00  0.00    -0.043 C 
ENDROOT
BRANCH   1   3
HETATM    3  C   UNK N   1      31.618  15.934   7.142  0.00  0.00     0.018 A 
HETATM    4  C   UNK N   1      30.742  16.682   7.854  0.00  0.00     0.029 A 
HETATM    5  C   UNK N   1      29.805  17.475   7.254  0.00  0.00    -0.032 A 
HETATM    6  C   UNK N   1      28.943  18.275   8.197  0.00  0.00    -0.018 C 
HETATM    7  C   UNK N   1      29.731  17.486   5.836  0.00  0.00     0.007 A 
HETATM    8  C   UNK N   1      28.094  19.316   7.493  0.00  0.00     0.024 C 
HETATM    9  C   UNK N   1      28.058  17.305   8.973  0.00  0.00     0.020 C 
HETATM   10  C   UNK N   1      29.825  19.012   9.203  0.00  0.00     0.020 C 
HETATM   11  C   UNK N   1      27.370  18.700   6.318  0.00  0.00     0.080 C 
HETATM   12  S   UNK N   1      28.549  18.513   4.948  0.00  0.00    -0.129 SA
HETATM   13  C   UNK N   1      30.615  16.675   5.090  0.00  0.00     0.020 A 
HETATM   14  C   UNK N   1      31.580  15.897   5.747  0.00  0.00     0.022 A 
ENDBRANCH   1   3
BRANCH   2  15
HETATM   15  C   UNK N   1      33.963  14.305   9.849  0.00  0.00     0.086 A 
HETATM   16  N   UNK N   1      34.083  14.830  11.110  0.00  0.00    -0.358 N 
HETATM   17  C   UNK N   1      34.833  14.181  12.055  0.00  0.00     0.106 A 
ATOM     18  HN  UNK N   1      33.614  15.705  11.344  1.00  0.00     0.166 HD
HETATM   19  C   UNK N   1      35.451  12.962  11.705  0.00  0.00     0.054 A 
HETATM   20  C   UNK N   1      35.322  12.485  10.413  0.00  0.00     0.022 A 
HETATM   21  C   UNK N   1      34.593  13.150   9.490  0.00  0.00     0.040 A 
BRANCH  19  22
HETATM   22  C   UNK N   1      36.230  12.089  12.574  0.00  0.00     0.294 C 
HETATM   23  O   UNK N   1      37.444  12.175  12.674  0.00  0.00    -0.259 OA
BRANCH  22  24
HETATM   24  O   UNK N   1      35.518  11.187  13.295  0.00  0.00    -0.318 OA
BRANCH  24  25
HETATM   25  C   UNK N   1      35.058  11.373  14.565  0.00  0.00     0.174 C 
HETATM   26  C   UNK N   1      33.665  10.762  14.638  0.00  0.00     0.034 C 
ENDBRANCH  24  25
ENDBRANCH  22  24
ENDBRANCH  19  22
ENDBRANCH   2  15
TORSDOF 5
ENDMDL
