MODEL 1
REMARK VINA RESULT:      -6.7      0.000      0.000
REMARK  4 active torsions:
REMARK  status: ('A' for Active; 'I' for Inactive)
REMARK    1  A    between atoms: O_2  and  C_15 
REMARK    2  A    between atoms: O_3  and  C_18 
REMARK    3  A    between atoms: O_4  and  C_21 
REMARK    4  A    between atoms: C_6  and  C_12 
ROOT
HETATM    1 Cl   UNK N   1      32.543  19.568  -4.459  0.00  0.00    -0.081 Cl
HETATM    2  N   UNK N   1      29.654  21.856  -8.296  0.00  0.00    -0.420 N 
HETATM    3  C   UNK N   1      28.613  22.718  -6.248  0.00  0.00     0.069 C 
HETATM    4  C   UNK N   1      29.593  22.317  -5.133  0.00  0.00    -0.037 A 
HETATM    5  C   UNK N   1      29.401  23.057  -7.515  0.00  0.00     0.128 C 
HETATM    6  C   UNK N   1      30.490  21.224  -5.298  0.00  0.00    -0.025 A 
HETATM    7  C   UNK N   1      30.488  20.391  -6.549  0.00  0.00     0.060 C 
HETATM    8  C   UNK N   1      30.849  21.216  -7.772  0.00  0.00     0.118 C 
HETATM    9  C   UNK N   1      29.640  23.032  -3.929  0.00  0.00     0.048 A 
HETATM   10  C   UNK N   1      31.403  20.903  -4.269  0.00  0.00     0.076 A 
HETATM   11  C   UNK N   1      30.530  22.707  -2.914  0.00  0.00     0.101 A 
HETATM   12  C   UNK N   1      31.419  21.647  -3.081  0.00  0.00     0.121 A 
HETATM   13  H   UNK N   1      29.090  21.521  -9.077  0.00  0.00     0.153 HD
ENDROOT
BRANCH   3  14
HETATM   14  C   UNK N   1      27.602  23.843  -6.004  0.00  0.00    -0.048 A 
HETATM   15  C   UNK N   1      27.922  25.143  -6.437  0.00  0.00     0.011 A 
HETATM   16  C   UNK N   1      27.045  26.208  -6.206  0.00  0.00     0.037 A 
HETATM   17  C   UNK N   1      25.832  25.988  -5.549  0.00  0.00     0.065 A 
HETATM   18  C   UNK N   1      25.493  24.703  -5.130  0.00  0.00     0.037 A 
HETATM   19  C   UNK N   1      26.373  23.644  -5.355  0.00  0.00     0.011 A 
BRANCH  17  20
HETATM   20  O   UNK N   1      24.993  27.011  -5.320  0.00  0.00    -0.361 OA
HETATM   21  H   UNK N   1      24.101  26.844  -5.086  0.00  0.00     0.217 HD
ENDBRANCH  17  20
ENDBRANCH   3  14
BRANCH  11  22
HETATM   22  O   UNK N   1      30.528  23.423  -1.776  0.00  0.00    -0.358 OA
HETATM   23  H   UNK N   1      30.952  23.101  -1.005  0.00  0.00     0.217 HD
ENDBRANCH  11  22
BRANCH  12  24
HETATM   24  O   UNK N   1      32.287  21.342  -2.100  0.00  0.00    -0.356 OA
HETATM   25  H   UNK N   1      31.975  21.055  -1.265  0.00  0.00     0.218 HD
ENDBRANCH  12  24
TORSDOF 4
ENDMDL
MODEL 2
REMARK VINA RESULT:      -6.6     13.277     16.319
REMARK  4 active torsions:
REMARK  status: ('A' for Active; 'I' for Inactive)
REMARK    1  A    between atoms: O_2  and  C_15 
REMARK    2  A    between atoms: O_3  and  C_18 
REMARK    3  A    between atoms: O_4  and  C_21 
REMARK    4  A    between atoms: C_6  and  C_12 
ROOT
HETATM    1 Cl   UNK N   1      27.924  18.055   5.776  0.00  0.00    -0.081 Cl
HETATM    2  N   UNK N   1      31.936  14.561   5.865  0.00  0.00    -0.420 N 
HETATM    3  C   UNK N   1      32.484  16.063   7.726  0.00  0.00     0.069 C 
HETATM    4  C   UNK N   1      31.210  16.903   7.918  0.00  0.00    -0.037 A 
HETATM    5  C   UNK N   1      32.095  14.643   7.309  0.00  0.00     0.128 C 
HETATM    6  C   UNK N   1      30.281  17.086   6.854  0.00  0.00    -0.025 A 
HETATM    7  C   UNK N   1      30.528  16.504   5.490  0.00  0.00     0.060 C 
HETATM    8  C   UNK N   1      30.587  14.987   5.532  0.00  0.00     0.118 C 
HETATM    9  C   UNK N   1      30.921  17.495   9.154  0.00  0.00     0.048 A 
HETATM   10  C   UNK N   1      29.102  17.833   7.071  0.00  0.00     0.076 A 
HETATM   11  C   UNK N   1      29.767  18.240   9.362  0.00  0.00     0.101 A 
HETATM   12  C   UNK N   1      28.850  18.406   8.326  0.00  0.00     0.121 A 
HETATM   13  H   UNK N   1      32.648  14.258   5.201  0.00  0.00     0.153 HD
ENDROOT
BRANCH   3  14
HETATM   14  C   UNK N   1      33.504  15.958   8.865  0.00  0.00    -0.048 A 
HETATM   15  C   UNK N   1      33.487  14.813   9.683  0.00  0.00     0.011 A 
HETATM   16  C   UNK N   1      34.377  14.689  10.755  0.00  0.00     0.037 A 
HETATM   17  C   UNK N   1      35.302  15.702  11.020  0.00  0.00     0.065 A 
HETATM   18  C   UNK N   1      35.342  16.834  10.208  0.00  0.00     0.037 A 
HETATM   19  C   UNK N   1      34.449  16.959   9.144  0.00  0.00     0.011 A 
BRANCH  17  20
HETATM   20  O   UNK N   1      36.152  15.587  12.053  0.00  0.00    -0.361 OA
HETATM   21  H   UNK N   1      36.268  14.760  12.477  0.00  0.00     0.217 HD
ENDBRANCH  17  20
ENDBRANCH   3  14
BRANCH  11  22
HETATM   22  O   UNK N   1      29.542  18.791  10.566  0.00  0.00    -0.358 OA
HETATM   23  H   UNK N   1      28.712  19.172  10.774  0.00  0.00     0.217 HD
ENDBRANCH  11  22
BRANCH  12  24
HETATM   24  O   UNK N   1      27.729  19.118   8.534  0.00  0.00    -0.356 OA
HETATM   25  H   UNK N   1      27.038  18.769   9.061  0.00  0.00     0.218 HD
ENDBRANCH  12  24
TORSDOF 4
ENDMDL
MODEL 3
REMARK VINA RESULT:      -6.5      1.430      1.863
REMARK  4 active torsions:
REMARK  status: ('A' for Active; 'I' for Inactive)
REMARK    1  A    between atoms: O_2  and  C_15 
REMARK    2  A    between atoms: O_3  and  C_18 
REMARK    3  A    between atoms: O_4  and  C_21 
REMARK    4  A    between atoms: C_6  and  C_12 
ROOT
HETATM    1 Cl   UNK N   1      31.470  19.915  -5.321  0.00  0.00    -0.081 Cl
HETATM    2  N   UNK N   1      28.910  23.739  -7.990  0.00  0.00    -0.420 N 
HETATM    3  C   UNK N   1      28.215  24.140  -5.671  0.00  0.00     0.069 C 
HETATM    4  C   UNK N   1      29.154  23.249  -4.840  0.00  0.00    -0.037 A 
HETATM    5  C   UNK N   1      28.975  24.681  -6.883  0.00  0.00     0.128 C 
HETATM    6  C   UNK N   1      29.778  22.103  -5.410  0.00  0.00    -0.025 A 
HETATM    7  C   UNK N   1      29.515  21.693  -6.832  0.00  0.00     0.060 C 
HETATM    8  C   UNK N   1      29.967  22.758  -7.815  0.00  0.00     0.118 C 
HETATM    9  C   UNK N   1      29.432  23.554  -3.501  0.00  0.00     0.048 A 
HETATM   10  C   UNK N   1      30.664  21.325  -4.631  0.00  0.00     0.076 A 
HETATM   11  C   UNK N   1      30.293  22.780  -2.733  0.00  0.00     0.101 A 
HETATM   12  C   UNK N   1      30.918  21.668  -3.295  0.00  0.00     0.121 A 
HETATM   13  H   UNK N   1      28.237  23.763  -8.757  0.00  0.00     0.153 HD
ENDROOT
BRANCH   3  14
HETATM   14  C   UNK N   1      27.492  25.313  -5.003  0.00  0.00    -0.048 A 
HETATM   15  C   UNK N   1      26.090  25.390  -5.107  0.00  0.00     0.011 A 
HETATM   16  C   UNK N   1      25.390  26.462  -4.542  0.00  0.00     0.037 A 
HETATM   17  C   UNK N   1      26.079  27.465  -3.856  0.00  0.00     0.065 A 
HETATM   18  C   UNK N   1      27.465  27.393  -3.728  0.00  0.00     0.037 A 
HETATM   19  C   UNK N   1      28.161  26.328  -4.299  0.00  0.00     0.011 A 
BRANCH  17  20
HETATM   20  O   UNK N   1      25.409  28.497  -3.319  0.00  0.00    -0.361 OA
HETATM   21  H   UNK N   1      25.506  29.358  -3.676  0.00  0.00     0.217 HD
ENDBRANCH  17  20
ENDBRANCH   3  14
BRANCH  11  22
HETATM   22  O   UNK N   1      30.521  23.115  -1.452  0.00  0.00    -0.358 OA
HETATM   23  H   UNK N   1      31.199  23.722  -1.226  0.00  0.00     0.217 HD
ENDBRANCH  11  22
BRANCH  12  24
HETATM   24  O   UNK N   1      31.759  20.928  -2.552  0.00  0.00    -0.356 OA
HETATM   25  H   UNK N   1      31.807  20.000  -2.674  0.00  0.00     0.218 HD
ENDBRANCH  12  24
TORSDOF 4
ENDMDL
MODEL 4
REMARK VINA RESULT:      -6.5      2.655      3.536
REMARK  4 active torsions:
REMARK  status: ('A' for Active; 'I' for Inactive)
REMARK    1  A    between atoms: O_2  and  C_15 
REMARK    2  A    between atoms: O_3  and  C_18 
REMARK    3  A    between atoms: O_4  and  C_21 
REMARK    4  A    between atoms: C_6  and  C_12 
ROOT
HETATM    1 Cl   UNK N   1      28.879  19.871  -8.104  0.00  0.00    -0.081 Cl
HETATM    2  N   UNK N   1      24.930  23.419  -8.462  0.00  0.00    -0.420 N 
HETATM    3  C   UNK N   1      26.026  24.040  -6.356  0.00  0.00     0.069 C 
HETATM    4  C   UNK N   1      27.336  23.233  -6.364  0.00  0.00    -0.037 A 
HETATM    5  C   UNK N   1      25.685  24.463  -7.786  0.00  0.00     0.128 C 
HETATM    6  C   UNK N   1      27.462  22.039  -7.129  0.00  0.00    -0.025 A 
HETATM    7  C   UNK N   1      26.309  21.494  -7.925  0.00  0.00     0.060 C 
HETATM    8  C   UNK N   1      25.873  22.460  -9.012  0.00  0.00     0.118 C 
HETATM    9  C   UNK N   1      28.448  23.666  -5.630  0.00  0.00     0.048 A 
HETATM   10  C   UNK N   1      28.689  21.340  -7.145  0.00  0.00     0.076 A 
HETATM   11  C   UNK N   1      29.650  22.971  -5.637  0.00  0.00     0.101 A 
HETATM   12  C   UNK N   1      29.779  21.811  -6.398  0.00  0.00     0.121 A 
HETATM   13  H   UNK N   1      23.914  23.368  -8.536  0.00  0.00     0.153 HD
ENDROOT
BRANCH   3  14
HETATM   14  C   UNK N   1      25.897  25.271  -5.454  0.00  0.00    -0.048 A 
HETATM   15  C   UNK N   1      25.290  26.429  -5.976  0.00  0.00     0.011 A 
HETATM   16  C   UNK N   1      25.180  27.588  -5.200  0.00  0.00     0.037 A 
HETATM   17  C   UNK N   1      25.666  27.604  -3.891  0.00  0.00     0.065 A 
HETATM   18  C   UNK N   1      26.254  26.460  -3.354  0.00  0.00     0.037 A 
HETATM   19  C   UNK N   1      26.369  25.308  -4.132  0.00  0.00     0.011 A 
BRANCH  17  20
HETATM   20  O   UNK N   1      25.568  28.719  -3.148  0.00  0.00    -0.361 OA
HETATM   21  H   UNK N   1      26.177  29.421  -3.270  0.00  0.00     0.217 HD
ENDBRANCH  17  20
ENDBRANCH   3  14
BRANCH  11  22
HETATM   22  O   UNK N   1      30.684  23.428  -4.910  0.00  0.00    -0.358 OA
HETATM   23  H   UNK N   1      31.491  23.672  -5.320  0.00  0.00     0.217 HD
ENDBRANCH  11  22
BRANCH  12  24
HETATM   24  O   UNK N   1      30.948  21.146  -6.411  0.00  0.00    -0.356 OA
HETATM   25  H   UNK N   1      31.237  20.683  -5.649  0.00  0.00     0.218 HD
ENDBRANCH  12  24
TORSDOF 4
ENDMDL
MODEL 5
REMARK VINA RESULT:      -6.4     19.528     22.644
REMARK  4 active torsions:
REMARK  status: ('A' for Active; 'I' for Inactive)
REMARK    1  A    between atoms: O_2  and  C_15 
REMARK    2  A    between atoms: O_3  and  C_18 
REMARK    3  A    between atoms: O_4  and  C_21 
REMARK    4  A    between atoms: C_6  and  C_12 
ROOT
HETATM    1 Cl   UNK N   1      36.507  11.678   8.689  0.00  0.00    -0.081 Cl
HETATM    2  N   UNK N   1      37.883  10.267  13.631  0.00  0.00    -0.420 N 
HETATM    3  C   UNK N   1      36.931  12.506  13.953  0.00  0.00     0.069 C 
HETATM    4  C   UNK N   1      36.261  12.825  12.605  0.00  0.00    -0.037 A 
HETATM    5  C   UNK N   1      36.793  11.010  14.244  0.00  0.00     0.128 C 
HETATM    6  C   UNK N   1      36.681  12.187  11.404  0.00  0.00    -0.025 A 
HETATM    7  C   UNK N   1      37.823  11.209  11.394  0.00  0.00     0.060 C 
HETATM    8  C   UNK N   1      37.524   9.991  12.250  0.00  0.00     0.118 C 
HETATM    9  C   UNK N   1      35.204  13.741  12.530  0.00  0.00     0.048 A 
HETATM   10  C   UNK N   1      36.022  12.474  10.188  0.00  0.00     0.076 A 
HETATM   11  C   UNK N   1      34.565  14.031  11.332  0.00  0.00     0.101 A 
HETATM   12  C   UNK N   1      34.965  13.395  10.158  0.00  0.00     0.121 A 
HETATM   13  H   UNK N   1      38.749   9.988  14.091  0.00  0.00     0.153 HD
ENDROOT
BRANCH   3  14
HETATM   14  C   UNK N   1      36.514  13.274  15.210  0.00  0.00    -0.048 A 
HETATM   15  C   UNK N   1      37.126  14.513  15.480  0.00  0.00     0.011 A 
HETATM   16  C   UNK N   1      36.801  15.234  16.633  0.00  0.00     0.037 A 
HETATM   17  C   UNK N   1      35.852  14.734  17.529  0.00  0.00     0.065 A 
HETATM   18  C   UNK N   1      35.224  13.518  17.267  0.00  0.00     0.037 A 
HETATM   19  C   UNK N   1      35.555  12.797  16.119  0.00  0.00     0.011 A 
BRANCH  17  20
HETATM   20  O   UNK N   1      35.544  15.422  18.640  0.00  0.00    -0.361 OA
HETATM   21  H   UNK N   1      36.225  15.777  19.177  0.00  0.00     0.217 HD
ENDBRANCH  17  20
ENDBRANCH   3  14
BRANCH  11  22
HETATM   22  O   UNK N   1      33.560  14.923  11.315  0.00  0.00    -0.358 OA
HETATM   23  H   UNK N   1      33.415  15.471  10.569  0.00  0.00     0.217 HD
ENDBRANCH  11  22
BRANCH  12  24
HETATM   24  O   UNK N   1      34.337  13.670   9.001  0.00  0.00    -0.356 OA
HETATM   25  H   UNK N   1      34.823  13.971   8.259  0.00  0.00     0.218 HD
ENDBRANCH  12  24
TORSDOF 4
ENDMDL
MODEL 6
REMARK VINA RESULT:      -6.3     11.934     15.219
REMARK  4 active torsions:
REMARK  status: ('A' for Active; 'I' for Inactive)
REMARK    1  A    between atoms: O_2  and  C_15 
REMARK    2  A    between atoms: O_3  and  C_18 
REMARK    3  A    between atoms: O_4  and  C_21 
REMARK    4  A    between atoms: C_6  and  C_12 
ROOT
HETATM    1 Cl   UNK N   1      27.327  17.524   4.290  0.00  0.00    -0.081 Cl
HETATM    2  N   UNK N   1      29.124  18.398   9.221  0.00  0.00    -0.420 N 
HETATM    3  C   UNK N   1      30.869  16.969   8.255  0.00  0.00     0.069 C 
HETATM    4  C   UNK N   1      30.537  16.936   6.753  0.00  0.00    -0.037 A 
HETATM    5  C   UNK N   1      30.521  18.349   8.818  0.00  0.00     0.128 C 
HETATM    6  C   UNK N   1      29.216  17.190   6.285  0.00  0.00    -0.025 A 
HETATM    7  C   UNK N   1      28.085  17.459   7.238  0.00  0.00     0.060 C 
HETATM    8  C   UNK N   1      28.325  18.719   8.050  0.00  0.00     0.118 C 
HETATM    9  C   UNK N   1      31.533  16.672   5.804  0.00  0.00     0.048 A 
HETATM   10  C   UNK N   1      28.950  17.188   4.897  0.00  0.00     0.076 A 
HETATM   11  C   UNK N   1      31.267  16.658   4.441  0.00  0.00     0.101 A 
HETATM   12  C   UNK N   1      29.978  16.922   3.981  0.00  0.00     0.121 A 
HETATM   13  H   UNK N   1      28.767  18.236  10.163  0.00  0.00     0.153 HD
ENDROOT
BRANCH   3  14
HETATM   14  C   UNK N   1      32.279  16.606   8.729  0.00  0.00    -0.048 A 
HETATM   15  C   UNK N   1      33.289  17.584   8.657  0.00  0.00     0.011 A 
HETATM   16  C   UNK N   1      34.599  17.287   9.048  0.00  0.00     0.037 A 
HETATM   17  C   UNK N   1      34.917  16.014   9.525  0.00  0.00     0.065 A 
HETATM   18  C   UNK N   1      33.925  15.040   9.619  0.00  0.00     0.037 A 
HETATM   19  C   UNK N   1      32.621  15.336   9.222  0.00  0.00     0.011 A 
BRANCH  17  20
HETATM   20  O   UNK N   1      36.176  15.726   9.893  0.00  0.00    -0.361 OA
HETATM   21  H   UNK N   1      36.809  16.411   9.980  0.00  0.00     0.217 HD
ENDBRANCH  17  20
ENDBRANCH   3  14
BRANCH  11  22
HETATM   22  O   UNK N   1      32.259  16.393   3.575  0.00  0.00    -0.358 OA
HETATM   23  H   UNK N   1      32.730  15.584   3.615  0.00  0.00     0.217 HD
ENDBRANCH  11  22
BRANCH  12  24
HETATM   24  O   UNK N   1      29.726  16.919   2.661  0.00  0.00    -0.356 OA
HETATM   25  H   UNK N   1      29.417  16.141   2.240  0.00  0.00     0.218 HD
ENDBRANCH  12  24
TORSDOF 4
ENDMDL
MODEL 7
REMARK VINA RESULT:      -6.3     11.593     14.314
REMARK  4 active torsions:
REMARK  status: ('A' for Active; 'I' for Inactive)
REMARK    1  A    between atoms: O_2  and  C_15 
REMARK    2  A    between atoms: O_3  and  C_18 
REMARK    3  A    between atoms: O_4  and  C_21 
REMARK    4  A    between atoms: C_6  and  C_12 
ROOT
HETATM    1 Cl   UNK N   1      26.960  16.885   3.305  0.00  0.00    -0.081 Cl
HETATM    2  N   UNK N   1      31.944  15.073   3.731  0.00  0.00    -0.420 N 
HETATM    3  C   UNK N   1      31.739  16.555   5.676  0.00  0.00     0.069 C 
HETATM    4  C   UNK N   1      30.235  16.866   5.752  0.00  0.00    -0.037 A 
HETATM    5  C   UNK N   1      31.933  15.118   5.185  0.00  0.00     0.128 C 
HETATM    6  C   UNK N   1      29.403  16.767   4.601  0.00  0.00    -0.025 A 
HETATM    7  C   UNK N   1      29.965  16.396   3.257  0.00  0.00     0.060 C 
HETATM    8  C   UNK N   1      30.569  15.003   3.268  0.00  0.00     0.118 C 
HETATM    9  C   UNK N   1      29.641  17.239   6.966  0.00  0.00     0.048 A 
HETATM   10  C   UNK N   1      28.018  17.024   4.711  0.00  0.00     0.076 A 
HETATM   11  C   UNK N   1      28.282  17.504   7.068  0.00  0.00     0.101 A 
HETATM   12  C   UNK N   1      27.463  17.391   5.946  0.00  0.00     0.121 A 
HETATM   13  H   UNK N   1      32.775  15.087   3.139  0.00  0.00     0.153 HD
ENDROOT
BRANCH   3  14
HETATM   14  C   UNK N   1      32.621  16.756   6.913  0.00  0.00    -0.048 A 
HETATM   15  C   UNK N   1      32.639  15.752   7.899  0.00  0.00     0.011 A 
HETATM   16  C   UNK N   1      33.403  15.906   9.061  0.00  0.00     0.037 A 
HETATM   17  C   UNK N   1      34.167  17.061   9.249  0.00  0.00     0.065 A 
HETATM   18  C   UNK N   1      34.172  18.056   8.274  0.00  0.00     0.037 A 
HETATM   19  C   UNK N   1      33.405  17.902   7.119  0.00  0.00     0.011 A 
BRANCH  17  20
HETATM   20  O   UNK N   1      34.894  17.213  10.367  0.00  0.00    -0.361 OA
HETATM   21  H   UNK N   1      35.781  16.911  10.397  0.00  0.00     0.217 HD
ENDBRANCH  17  20
ENDBRANCH   3  14
BRANCH  11  22
HETATM   22  O   UNK N   1      27.764  17.863   8.256  0.00  0.00    -0.358 OA
HETATM   23  H   UNK N   1      27.888  18.728   8.593  0.00  0.00     0.217 HD
ENDBRANCH  11  22
BRANCH  12  24
HETATM   24  O   UNK N   1      26.146  17.638   6.052  0.00  0.00    -0.356 OA
HETATM   25  H   UNK N   1      25.700  18.120   5.384  0.00  0.00     0.218 HD
ENDBRANCH  12  24
TORSDOF 4
ENDMDL
MODEL 8
REMARK VINA RESULT:      -6.1      3.400      4.517
REMARK  4 active torsions:
REMARK  status: ('A' for Active; 'I' for Inactive)
REMARK    1  A    between atoms: O_2  and  C_15 
REMARK    2  A    between atoms: O_3  and  C_18 
REMARK    3  A    between atoms: O_4  and  C_21 
REMARK    4  A    between atoms: C_6  and  C_12 
ROOT
HETATM    1 Cl   UNK N   1      28.886  20.162  -7.817  0.00  0.00    -0.081 Cl
HETATM    2  N   UNK N   1      30.068  23.345  -3.721  0.00  0.00    -0.420 N 
HETATM    3  C   UNK N   1      28.440  24.675  -4.988  0.00  0.00     0.069 C 
HETATM    4  C   UNK N   1      27.859  23.682  -6.009  0.00  0.00    -0.037 A 
HETATM    5  C   UNK N   1      28.740  23.938  -3.681  0.00  0.00     0.128 C 
HETATM    6  C   UNK N   1      28.589  22.526  -6.410  0.00  0.00    -0.025 A 
HETATM    7  C   UNK N   1      29.971  22.251  -5.887  0.00  0.00     0.060 C 
HETATM    8  C   UNK N   1      29.970  22.054  -4.381  0.00  0.00     0.118 C 
HETATM    9  C   UNK N   1      26.585  23.881  -6.557  0.00  0.00     0.048 A 
HETATM   10  C   UNK N   1      28.013  21.614  -7.322  0.00  0.00     0.076 A 
HETATM   11  C   UNK N   1      26.027  22.989  -7.464  0.00  0.00     0.101 A 
HETATM   12  C   UNK N   1      26.733  21.850  -7.845  0.00  0.00     0.121 A 
HETATM   13  H   UNK N   1      30.922  23.765  -3.351  0.00  0.00     0.153 HD
ENDROOT
BRANCH   3  14
HETATM   14  C   UNK N   1      27.667  25.951  -4.644  0.00  0.00    -0.048 A 
HETATM   15  C   UNK N   1      27.889  27.105  -5.420  0.00  0.00     0.011 A 
HETATM   16  C   UNK N   1      27.230  28.303  -5.123  0.00  0.00     0.037 A 
HETATM   17  C   UNK N   1      26.333  28.363  -4.053  0.00  0.00     0.065 A 
HETATM   18  C   UNK N   1      26.089  27.225  -3.287  0.00  0.00     0.037 A 
HETATM   19  C   UNK N   1      26.753  26.033  -3.581  0.00  0.00     0.011 A 
BRANCH  17  20
HETATM   20  O   UNK N   1      25.706  29.514  -3.763  0.00  0.00    -0.361 OA
HETATM   21  H   UNK N   1      25.082  29.874  -4.362  0.00  0.00     0.217 HD
ENDBRANCH  17  20
ENDBRANCH   3  14
BRANCH  11  22
HETATM   22  O   UNK N   1      24.803  23.231  -7.963  0.00  0.00    -0.358 OA
HETATM   23  H   UNK N   1      24.313  22.554  -8.385  0.00  0.00     0.217 HD
ENDBRANCH  11  22
BRANCH  12  24
HETATM   24  O   UNK N   1      26.185  20.983  -8.714  0.00  0.00    -0.356 OA
HETATM   25  H   UNK N   1      25.328  20.635  -8.558  0.00  0.00     0.218 HD
ENDBRANCH  12  24
TORSDOF 4
ENDMDL
MODEL 9
REMARK VINA RESULT:      -6.1     13.207     15.715
REMARK  4 active torsions:
REMARK  status: ('A' for Active; 'I' for Inactive)
REMARK    1  A    between atoms: O_2  and  C_15 
REMARK    2  A    between atoms: O_3  and  C_18 
REMARK    3  A    between atoms: O_4  and  C_21 
REMARK    4  A    between atoms: C_6  and  C_12 
ROOT
HETATM    1 Cl   UNK N   1      36.047  13.516  11.138  0.00  0.00    -0.081 Cl
HETATM    2  N   UNK N   1      32.860  12.291   7.056  0.00  0.00    -0.420 N 
HETATM    3  C   UNK N   1      32.396  14.675   7.409  0.00  0.00     0.069 C 
HETATM    4  C   UNK N   1      33.500  15.132   8.378  0.00  0.00    -0.037 A 
HETATM    5  C   UNK N   1      32.962  13.615   6.462  0.00  0.00     0.128 C 
HETATM    6  C   UNK N   1      34.160  14.205   9.233  0.00  0.00    -0.025 A 
HETATM    7  C   UNK N   1      33.778  12.751   9.257  0.00  0.00     0.060 C 
HETATM    8  C   UNK N   1      34.017  12.088   7.912  0.00  0.00     0.118 C 
HETATM    9  C   UNK N   1      33.898  16.475   8.429  0.00  0.00     0.048 A 
HETATM   10  C   UNK N   1      35.196  14.649  10.085  0.00  0.00     0.076 A 
HETATM   11  C   UNK N   1      34.907  16.912   9.276  0.00  0.00     0.101 A 
HETATM   12  C   UNK N   1      35.565  16.002  10.102  0.00  0.00     0.121 A 
HETATM   13  H   UNK N   1      32.107  11.622   6.900  0.00  0.00     0.153 HD
ENDROOT
BRANCH   3  14
HETATM   14  C   UNK N   1      31.647  15.712   6.567  0.00  0.00    -0.048 A 
HETATM   15  C   UNK N   1      30.487  16.304   7.100  0.00  0.00     0.011 A 
HETATM   16  C   UNK N   1      29.751  17.231   6.354  0.00  0.00     0.037 A 
HETATM   17  C   UNK N   1      30.169  17.587   5.069  0.00  0.00     0.065 A 
HETATM   18  C   UNK N   1      31.325  17.022   4.534  0.00  0.00     0.037 A 
HETATM   19  C   UNK N   1      32.053  16.092   5.278  0.00  0.00     0.011 A 
BRANCH  17  20
HETATM   20  O   UNK N   1      29.460  18.471   4.349  0.00  0.00    -0.361 OA
HETATM   21  H   UNK N   1      29.618  19.390   4.444  0.00  0.00     0.217 HD
ENDBRANCH  17  20
ENDBRANCH   3  14
BRANCH  11  22
HETATM   22  O   UNK N   1      35.245  18.212   9.289  0.00  0.00    -0.358 OA
HETATM   23  H   UNK N   1      35.996  18.510   9.764  0.00  0.00     0.217 HD
ENDBRANCH  11  22
BRANCH  12  24
HETATM   24  O   UNK N   1      36.549  16.427  10.914  0.00  0.00    -0.356 OA
HETATM   25  H   UNK N   1      36.398  17.133  11.511  0.00  0.00     0.218 HD
ENDBRANCH  12  24
TORSDOF 4
ENDMDL
