MODEL 1
REMARK VINA RESULT:      -7.1      0.000      0.000
REMARK  3 active torsions:
REMARK  status: ('A' for Active; 'I' for Inactive)
REMARK    1  A    between atoms: N_6  and  C_11 
REMARK    2  A    between atoms: C_11  and  C_18 
REMARK    3  A    between atoms: C_12  and  C_17 
ROOT
HETATM    1 Cl   UNK N   1      20.763  10.801   5.134  0.00  0.00    -0.084 Cl
HETATM    2  O   UNK N   1      20.885  18.678   7.196  0.00  0.00    -0.271 OA
HETATM    3  N   UNK N   1      20.829  16.750   6.054  0.00  0.00    -0.307 N 
HETATM    4  N   UNK N   1      20.777  15.858   9.043  0.00  0.00    -0.380 N 
ATOM      5  HN  UNK N   1      21.109  16.044   9.990  1.00  0.00     0.160 HD
HETATM    6  C   UNK N   1      20.726  15.306   5.964  0.00  0.00     0.050 A 
HETATM    7  C   UNK N   1      20.837  14.369   7.068  0.00  0.00     0.020 A 
HETATM    8  C   UNK N   1      21.053  14.704   8.547  0.00  0.00     0.051 C 
HETATM    9  C   UNK N   1      20.669  17.472   7.198  0.00  0.00     0.242 C 
HETATM   10  C   UNK N   1      20.053  16.901   8.398  0.00  0.00     0.223 C 
HETATM   11  C   UNK N   1      20.624  14.772   4.658  0.00  0.00     0.032 A 
HETATM   12  C   UNK N   1      20.838  12.999   6.742  0.00  0.00     0.040 A 
HETATM   13  C   UNK N   1      20.613  13.412   4.397  0.00  0.00     0.026 A 
HETATM   14  C   UNK N   1      20.725  12.523   5.444  0.00  0.00     0.035 A 
ENDROOT
BRANCH   8  15
HETATM   15  C   UNK N   1      21.451  13.660   9.573  0.00  0.00    -0.009 A 
HETATM   16  C   UNK N   1      22.818  13.361   9.744  0.00  0.00     0.014 A 
HETATM   17  C   UNK N   1      23.248  12.489  10.749  0.00  0.00     0.001 A 
HETATM   18  C   UNK N   1      22.320  11.915  11.618  0.00  0.00     0.000 A 
HETATM   19  C   UNK N   1      20.963  12.194  11.467  0.00  0.00     0.001 A 
HETATM   20  C   UNK N   1      20.534  13.056  10.453  0.00  0.00     0.014 A 
ENDBRANCH   8  15
BRANCH   3  21
HETATM   21  C   UNK N   1      21.060  17.504   4.827  0.00  0.00     0.249 C 
BRANCH  21  22
HETATM   22  C   UNK N   1      22.566  17.642   4.533  0.00  0.00     0.403 C 
HETATM   23  F   UNK N   1      22.912  18.966   4.331  0.00  0.00    -0.169 F 
HETATM   24  F   UNK N   1      22.910  16.918   3.407  0.00  0.00    -0.169 F 
HETATM   25  F   UNK N   1      23.286  17.156   5.607  0.00  0.00    -0.169 F 
ENDBRANCH  21  22
ENDBRANCH   3  21
TORSDOF 3
ENDMDL
MODEL 2
REMARK VINA RESULT:      -7.0      8.809     11.038
REMARK  3 active torsions:
REMARK  status: ('A' for Active; 'I' for Inactive)
REMARK    1  A    between atoms: N_6  and  C_11 
REMARK    2  A    between atoms: C_11  and  C_18 
REMARK    3  A    between atoms: C_12  and  C_17 
ROOT
HETATM    1 Cl   UNK N   1      28.184  18.003   9.422  0.00  0.00    -0.084 Cl
HETATM    2  O   UNK N   1      32.945  16.772   2.930  0.00  0.00    -0.271 OA
HETATM    3  N   UNK N   1      32.174  17.030   5.019  0.00  0.00    -0.307 N 
HETATM    4  N   UNK N   1      29.617  17.220   3.242  0.00  0.00    -0.380 N 
ATOM      5  HN  UNK N   1      29.220  17.539   2.357  1.00  0.00     0.160 HD
HETATM    6  C   UNK N   1      31.108  17.185   5.992  0.00  0.00     0.050 A 
HETATM    7  C   UNK N   1      29.719  17.491   5.699  0.00  0.00     0.020 A 
HETATM    8  C   UNK N   1      29.086  17.684   4.317  0.00  0.00     0.051 C 
HETATM    9  C   UNK N   1      31.986  16.776   3.694  0.00  0.00     0.242 C 
HETATM   10  C   UNK N   1      30.704  16.304   3.166  0.00  0.00     0.223 C 
HETATM   11  C   UNK N   1      31.500  17.144   7.351  0.00  0.00     0.032 A 
HETATM   12  C   UNK N   1      28.874  17.727   6.801  0.00  0.00     0.040 A 
HETATM   13  C   UNK N   1      30.619  17.369   8.396  0.00  0.00     0.026 A 
HETATM   14  C   UNK N   1      29.303  17.667   8.119  0.00  0.00     0.035 A 
ENDROOT
BRANCH   8  15
HETATM   15  C   UNK N   1      27.708  18.290   4.126  0.00  0.00    -0.009 A 
HETATM   16  C   UNK N   1      27.592  19.689   4.000  0.00  0.00     0.014 A 
HETATM   17  C   UNK N   1      26.363  20.291   3.713  0.00  0.00     0.001 A 
HETATM   18  C   UNK N   1      25.228  19.502   3.525  0.00  0.00     0.000 A 
HETATM   19  C   UNK N   1      25.318  18.116   3.646  0.00  0.00     0.001 A 
HETATM   20  C   UNK N   1      26.545  17.518   3.946  0.00  0.00     0.014 A 
ENDBRANCH   8  15
BRANCH   3  21
HETATM   21  C   UNK N   1      33.553  17.089   5.490  0.00  0.00     0.249 C 
BRANCH  21  22
HETATM   22  C   UNK N   1      34.103  15.679   5.778  0.00  0.00     0.403 C 
HETATM   23  F   UNK N   1      34.986  15.280   4.791  0.00  0.00    -0.169 F 
HETATM   24  F   UNK N   1      33.074  14.760   5.848  0.00  0.00    -0.169 F 
HETATM   25  F   UNK N   1      34.769  15.688   6.988  0.00  0.00    -0.169 F 
ENDBRANCH  21  22
ENDBRANCH   3  21
TORSDOF 3
ENDMDL
MODEL 3
REMARK VINA RESULT:      -6.9     16.014     17.535
REMARK  3 active torsions:
REMARK  status: ('A' for Active; 'I' for Inactive)
REMARK    1  A    between atoms: N_6  and  C_11 
REMARK    2  A    between atoms: C_11  and  C_18 
REMARK    3  A    between atoms: C_12  and  C_17 
ROOT
HETATM    1 Cl   UNK N   1      27.699  21.681  -9.143  0.00  0.00    -0.084 Cl
HETATM    2  O   UNK N   1      30.943  23.123  -1.814  0.00  0.00    -0.271 OA
HETATM    3  N   UNK N   1      30.370  22.194  -3.772  0.00  0.00    -0.307 N 
HETATM    4  N   UNK N   1      29.026  25.008  -3.849  0.00  0.00    -0.380 N 
ATOM      5  HN  UNK N   1      28.557  25.740  -3.314  1.00  0.00     0.160 HD
HETATM    6  C   UNK N   1      29.749  22.226  -5.083  0.00  0.00     0.050 A 
HETATM    7  C   UNK N   1      28.841  23.247  -5.576  0.00  0.00     0.020 A 
HETATM    8  C   UNK N   1      28.374  24.504  -4.838  0.00  0.00     0.051 C 
HETATM    9  C   UNK N   1      30.505  23.271  -2.949  0.00  0.00     0.242 C 
HETATM   10  C   UNK N   1      30.337  24.644  -3.431  0.00  0.00     0.223 C 
HETATM   11  C   UNK N   1      29.970  21.092  -5.900  0.00  0.00     0.032 A 
HETATM   12  C   UNK N   1      28.249  23.017  -6.834  0.00  0.00     0.040 A 
HETATM   13  C   UNK N   1      29.371  20.927  -7.138  0.00  0.00     0.026 A 
HETATM   14  C   UNK N   1      28.505  21.891  -7.604  0.00  0.00     0.035 A 
ENDROOT
BRANCH   8  15
HETATM   15  C   UNK N   1      27.205  25.347  -5.313  0.00  0.00    -0.009 A 
HETATM   16  C   UNK N   1      25.909  25.025  -4.864  0.00  0.00     0.014 A 
HETATM   17  C   UNK N   1      24.812  25.832  -5.181  0.00  0.00     0.001 A 
HETATM   18  C   UNK N   1      24.994  26.989  -5.938  0.00  0.00     0.000 A 
HETATM   19  C   UNK N   1      26.267  27.326  -6.396  0.00  0.00     0.001 A 
HETATM   20  C   UNK N   1      27.360  26.511  -6.087  0.00  0.00     0.014 A 
ENDBRANCH   8  15
BRANCH   3  21
HETATM   21  C   UNK N   1      30.949  20.937  -3.312  0.00  0.00     0.249 C 
BRANCH  21  22
HETATM   22  C   UNK N   1      32.469  20.902  -3.559  0.00  0.00     0.403 C 
HETATM   23  F   UNK N   1      33.167  20.962  -2.366  0.00  0.00    -0.169 F 
HETATM   24  F   UNK N   1      32.858  21.964  -4.353  0.00  0.00    -0.169 F 
HETATM   25  F   UNK N   1      32.799  19.726  -4.205  0.00  0.00    -0.169 F 
ENDBRANCH  21  22
ENDBRANCH   3  21
TORSDOF 3
ENDMDL
MODEL 4
REMARK VINA RESULT:      -6.9      8.485      9.572
REMARK  3 active torsions:
REMARK  status: ('A' for Active; 'I' for Inactive)
REMARK    1  A    between atoms: N_6  and  C_11 
REMARK    2  A    between atoms: C_11  and  C_18 
REMARK    3  A    between atoms: C_12  and  C_17 
ROOT
HETATM    1 Cl   UNK N   1      31.596  14.246   3.737  0.00  0.00    -0.084 Cl
HETATM    2  O   UNK N   1      27.286  19.869   7.754  0.00  0.00    -0.271 OA
HETATM    3  N   UNK N   1      28.019  18.400   6.228  0.00  0.00    -0.307 N 
HETATM    4  N   UNK N   1      30.041  18.110   8.586  0.00  0.00    -0.380 N 
ATOM      5  HN  UNK N   1      30.554  18.588   9.328  1.00  0.00     0.160 HD
HETATM    6  C   UNK N   1      28.904  17.344   5.774  0.00  0.00     0.050 A 
HETATM    7  C   UNK N   1      30.137  16.923   6.418  0.00  0.00     0.020 A 
HETATM    8  C   UNK N   1      30.741  17.479   7.711  0.00  0.00     0.051 C 
HETATM    9  C   UNK N   1      27.992  18.901   7.495  0.00  0.00     0.242 C 
HETATM   10  C   UNK N   1      28.622  18.206   8.620  0.00  0.00     0.223 C 
HETATM   11  C   UNK N   1      28.581  16.758   4.528  0.00  0.00     0.032 A 
HETATM   12  C   UNK N   1      30.914  15.965   5.738  0.00  0.00     0.040 A 
HETATM   13  C   UNK N   1      29.377  15.806   3.912  0.00  0.00     0.026 A 
HETATM   14  C   UNK N   1      30.550  15.412   4.519  0.00  0.00     0.035 A 
ENDROOT
BRANCH   8  15
HETATM   15  C   UNK N   1      32.167  17.187   8.139  0.00  0.00    -0.009 A 
HETATM   16  C   UNK N   1      33.155  18.169   7.925  0.00  0.00     0.014 A 
HETATM   17  C   UNK N   1      34.460  17.999   8.399  0.00  0.00     0.001 A 
HETATM   18  C   UNK N   1      34.796  16.850   9.115  0.00  0.00     0.000 A 
HETATM   19  C   UNK N   1      33.836  15.864   9.337  0.00  0.00     0.001 A 
HETATM   20  C   UNK N   1      32.536  16.031   8.851  0.00  0.00     0.014 A 
ENDBRANCH   8  15
BRANCH   3  21
HETATM   21  C   UNK N   1      27.040  18.932   5.288  0.00  0.00     0.249 C 
BRANCH  21  22
HETATM   22  C   UNK N   1      27.589  20.170   4.553  0.00  0.00     0.403 C 
HETATM   23  F   UNK N   1      27.168  21.337   5.165  0.00  0.00    -0.169 F 
HETATM   24  F   UNK N   1      27.167  20.183   3.237  0.00  0.00    -0.169 F 
HETATM   25  F   UNK N   1      28.970  20.136   4.572  0.00  0.00    -0.169 F 
ENDBRANCH  21  22
ENDBRANCH   3  21
TORSDOF 3
ENDMDL
MODEL 5
REMARK VINA RESULT:      -6.8      4.205      6.766
REMARK  3 active torsions:
REMARK  status: ('A' for Active; 'I' for Inactive)
REMARK    1  A    between atoms: N_6  and  C_11 
REMARK    2  A    between atoms: C_11  and  C_18 
REMARK    3  A    between atoms: C_12  and  C_17 
ROOT
HETATM    1 Cl   UNK N   1      23.803  14.318   7.037  0.00  0.00    -0.084 Cl
HETATM    2  O   UNK N   1      22.725  21.014   2.529  0.00  0.00    -0.271 OA
HETATM    3  N   UNK N   1      22.424  19.277   3.914  0.00  0.00    -0.307 N 
HETATM    4  N   UNK N   1      25.441  19.110   3.137  0.00  0.00    -0.380 N 
ATOM      5  HN  UNK N   1      26.137  19.243   2.402  1.00  0.00     0.160 HD
HETATM    6  C   UNK N   1      22.900  18.145   4.686  0.00  0.00     0.050 A 
HETATM    7  C   UNK N   1      24.205  17.517   4.572  0.00  0.00     0.020 A 
HETATM    8  C   UNK N   1      25.352  17.931   3.643  0.00  0.00     0.051 C 
HETATM    9  C   UNK N   1      23.224  20.154   3.246  0.00  0.00     0.242 C 
HETATM   10  C   UNK N   1      24.664  20.245   3.502  0.00  0.00     0.223 C 
HETATM   11  C   UNK N   1      21.952  17.538   5.543  0.00  0.00     0.032 A 
HETATM   12  C   UNK N   1      24.416  16.346   5.325  0.00  0.00     0.040 A 
HETATM   13  C   UNK N   1      22.221  16.392   6.274  0.00  0.00     0.026 A 
HETATM   14  C   UNK N   1      23.457  15.793   6.160  0.00  0.00     0.035 A 
ENDROOT
BRANCH   8  15
HETATM   15  C   UNK N   1      26.554  17.043   3.382  0.00  0.00    -0.009 A 
HETATM   16  C   UNK N   1      26.401  15.924   2.538  0.00  0.00     0.014 A 
HETATM   17  C   UNK N   1      27.498  15.136   2.175  0.00  0.00     0.001 A 
HETATM   18  C   UNK N   1      28.774  15.465   2.633  0.00  0.00     0.000 A 
HETATM   19  C   UNK N   1      28.949  16.565   3.471  0.00  0.00     0.001 A 
HETATM   20  C   UNK N   1      27.849  17.344   3.842  0.00  0.00     0.014 A 
ENDBRANCH   8  15
BRANCH   3  21
HETATM   21  C   UNK N   1      20.991  19.545   3.891  0.00  0.00     0.249 C 
BRANCH  21  22
HETATM   22  C   UNK N   1      20.314  18.849   2.695  0.00  0.00     0.403 C 
HETATM   23  F   UNK N   1      21.040  17.744   2.288  0.00  0.00    -0.169 F 
HETATM   24  F   UNK N   1      20.198  19.719   1.627  0.00  0.00    -0.169 F 
HETATM   25  F   UNK N   1      19.049  18.435   3.064  0.00  0.00    -0.169 F 
ENDBRANCH  21  22
ENDBRANCH   3  21
TORSDOF 3
ENDMDL
MODEL 6
REMARK VINA RESULT:      -6.5     15.850     17.183
REMARK  3 active torsions:
REMARK  status: ('A' for Active; 'I' for Inactive)
REMARK    1  A    between atoms: N_6  and  C_11 
REMARK    2  A    between atoms: C_11  and  C_18 
REMARK    3  A    between atoms: C_12  and  C_17 
ROOT
HETATM    1 Cl   UNK N   1      29.027  20.669  -8.774  0.00  0.00    -0.084 Cl
HETATM    2  O   UNK N   1      26.267  25.910  -3.185  0.00  0.00    -0.271 OA
HETATM    3  N   UNK N   1      26.509  24.647  -5.020  0.00  0.00    -0.307 N 
HETATM    4  N   UNK N   1      28.923  23.831  -3.220  0.00  0.00    -0.380 N 
ATOM      5  HN  UNK N   1      29.625  24.145  -2.548  1.00  0.00     0.160 HD
HETATM    6  C   UNK N   1      27.162  23.609  -5.796  0.00  0.00     0.050 A 
HETATM    7  C   UNK N   1      28.445  22.997  -5.499  0.00  0.00     0.020 A 
HETATM    8  C   UNK N   1      29.357  23.293  -4.304  0.00  0.00     0.051 C 
HETATM    9  C   UNK N   1      26.794  24.943  -3.722  0.00  0.00     0.242 C 
HETATM   10  C   UNK N   1      27.559  24.032  -2.866  0.00  0.00     0.223 C 
HETATM   11  C   UNK N   1      26.530  23.254  -7.011  0.00  0.00     0.032 A 
HETATM   12  C   UNK N   1      28.958  22.099  -6.456  0.00  0.00     0.040 A 
HETATM   13  C   UNK N   1      27.075  22.351  -7.909  0.00  0.00     0.026 A 
HETATM   14  C   UNK N   1      28.296  21.776  -7.632  0.00  0.00     0.035 A 
ENDROOT
BRANCH   8  15
HETATM   15  C   UNK N   1      30.799  22.826  -4.239  0.00  0.00    -0.009 A 
HETATM   16  C   UNK N   1      31.092  21.615  -3.582  0.00  0.00     0.014 A 
HETATM   17  C   UNK N   1      32.386  21.083  -3.588  0.00  0.00     0.001 A 
HETATM   18  C   UNK N   1      33.408  21.743  -4.269  0.00  0.00     0.000 A 
HETATM   19  C   UNK N   1      33.142  22.944  -4.924  0.00  0.00     0.001 A 
HETATM   20  C   UNK N   1      31.851  23.480  -4.907  0.00  0.00     0.014 A 
ENDBRANCH   8  15
BRANCH   3  21
HETATM   21  C   UNK N   1      25.424  25.396  -5.644  0.00  0.00     0.249 C 
BRANCH  21  22
HETATM   22  C   UNK N   1      25.961  26.623  -6.406  0.00  0.00     0.403 C 
HETATM   23  F   UNK N   1      27.344  26.652  -6.386  0.00  0.00    -0.169 F 
HETATM   24  F   UNK N   1      25.486  27.792  -5.843  0.00  0.00    -0.169 F 
HETATM   25  F   UNK N   1      25.540  26.564  -7.720  0.00  0.00    -0.169 F 
ENDBRANCH  21  22
ENDBRANCH   3  21
TORSDOF 3
ENDMDL
MODEL 7
REMARK VINA RESULT:      -6.5     11.362     13.063
REMARK  3 active torsions:
REMARK  status: ('A' for Active; 'I' for Inactive)
REMARK    1  A    between atoms: N_6  and  C_11 
REMARK    2  A    between atoms: C_11  and  C_18 
REMARK    3  A    between atoms: C_12  and  C_17 
ROOT
HETATM    1 Cl   UNK N   1      32.369  11.888   5.382  0.00  0.00    -0.084 Cl
HETATM    2  O   UNK N   1      35.442  17.638  10.261  0.00  0.00    -0.271 OA
HETATM    3  N   UNK N   1      35.019  15.704   9.211  0.00  0.00    -0.307 N 
HETATM    4  N   UNK N   1      33.125  17.751   7.813  0.00  0.00    -0.380 N 
ATOM      5  HN  UNK N   1      32.530  18.573   7.928  1.00  0.00     0.160 HD
HETATM    6  C   UNK N   1      34.371  14.906   8.188  0.00  0.00     0.050 A 
HETATM    7  C   UNK N   1      33.260  15.324   7.351  0.00  0.00     0.020 A 
HETATM    8  C   UNK N   1      32.564  16.689   7.351  0.00  0.00     0.051 C 
HETATM    9  C   UNK N   1      34.953  17.062   9.297  0.00  0.00     0.242 C 
HETATM   10  C   UNK N   1      34.493  17.891   8.179  0.00  0.00     0.223 C 
HETATM   11  C   UNK N   1      34.798  13.561   8.088  0.00  0.00     0.032 A 
HETATM   12  C   UNK N   1      32.694  14.347   6.509  0.00  0.00     0.040 A 
HETATM   13  C   UNK N   1      34.213  12.645   7.229  0.00  0.00     0.026 A 
HETATM   14  C   UNK N   1      33.154  13.040   6.440  0.00  0.00     0.035 A 
ENDROOT
BRANCH   8  15
HETATM   15  C   UNK N   1      31.235  16.931   6.661  0.00  0.00    -0.009 A 
HETATM   16  C   UNK N   1      30.059  16.941   7.436  0.00  0.00     0.014 A 
HETATM   17  C   UNK N   1      28.822  17.268   6.871  0.00  0.00     0.001 A 
HETATM   18  C   UNK N   1      28.742  17.611   5.521  0.00  0.00     0.000 A 
HETATM   19  C   UNK N   1      29.892  17.606   4.734  0.00  0.00     0.001 A 
HETATM   20  C   UNK N   1      31.125  17.267   5.299  0.00  0.00     0.014 A 
ENDBRANCH   8  15
BRANCH   3  21
HETATM   21  C   UNK N   1      35.856  15.022  10.192  0.00  0.00     0.249 C 
BRANCH  21  22
HETATM   22  C   UNK N   1      35.019  14.516  11.382  0.00  0.00     0.403 C 
HETATM   23  F   UNK N   1      35.017  13.134  11.434  0.00  0.00    -0.169 F 
HETATM   24  F   UNK N   1      33.713  14.956  11.281  0.00  0.00    -0.169 F 
HETATM   25  F   UNK N   1      35.558  15.001  12.558  0.00  0.00    -0.169 F 
ENDBRANCH  21  22
ENDBRANCH   3  21
TORSDOF 3
ENDMDL
MODEL 8
REMARK VINA RESULT:      -6.5      3.489      6.340
REMARK  3 active torsions:
REMARK  status: ('A' for Active; 'I' for Inactive)
REMARK    1  A    between atoms: N_6  and  C_11 
REMARK    2  A    between atoms: C_11  and  C_18 
REMARK    3  A    between atoms: C_12  and  C_17 
ROOT
HETATM    1 Cl   UNK N   1      25.409  14.739   4.008  0.00  0.00    -0.084 Cl
HETATM    2  O   UNK N   1      19.550  14.156   9.635  0.00  0.00    -0.271 OA
HETATM    3  N   UNK N   1      21.353  13.787   8.355  0.00  0.00    -0.307 N 
HETATM    4  N   UNK N   1      20.251  16.523   7.336  0.00  0.00    -0.380 N 
ATOM      5  HN  UNK N   1      19.421  17.085   7.144  1.00  0.00     0.160 HD
HETATM    6  C   UNK N   1      22.314  14.171   7.338  0.00  0.00     0.050 A 
HETATM    7  C   UNK N   1      22.189  15.289   6.419  0.00  0.00     0.020 A 
HETATM    8  C   UNK N   1      21.044  16.303   6.347  0.00  0.00     0.051 C 
HETATM    9  C   UNK N   1      20.387  14.604   8.859  0.00  0.00     0.242 C 
HETATM   10  C   UNK N   1      20.419  16.057   8.670  0.00  0.00     0.223 C 
HETATM   11  C   UNK N   1      23.414  13.297   7.165  0.00  0.00     0.032 A 
HETATM   12  C   UNK N   1      23.178  15.405   5.422  0.00  0.00     0.040 A 
HETATM   13  C   UNK N   1      24.367  13.471   6.174  0.00  0.00     0.026 A 
HETATM   14  C   UNK N   1      24.244  14.527   5.298  0.00  0.00     0.035 A 
ENDROOT
BRANCH   8  15
HETATM   15  C   UNK N   1      20.857  17.245   5.172  0.00  0.00    -0.009 A 
HETATM   16  C   UNK N   1      19.975  16.873   4.138  0.00  0.00     0.014 A 
HETATM   17  C   UNK N   1      19.681  17.749   3.088  0.00  0.00     0.001 A 
HETATM   18  C   UNK N   1      20.249  19.023   3.063  0.00  0.00     0.000 A 
HETATM   19  C   UNK N   1      21.126  19.411   4.074  0.00  0.00     0.001 A 
HETATM   20  C   UNK N   1      21.428  18.530   5.116  0.00  0.00     0.014 A 
ENDBRANCH   8  15
BRANCH   3  21
HETATM   21  C   UNK N   1      21.453  12.452   8.932  0.00  0.00     0.249 C 
BRANCH  21  22
HETATM   22  C   UNK N   1      22.218  12.480  10.270  0.00  0.00     0.403 C 
HETATM   23  F   UNK N   1      21.344  12.416  11.341  0.00  0.00    -0.169 F 
HETATM   24  F   UNK N   1      22.967  13.637  10.378  0.00  0.00    -0.169 F 
HETATM   25  F   UNK N   1      23.071  11.396  10.331  0.00  0.00    -0.169 F 
ENDBRANCH  21  22
ENDBRANCH   3  21
TORSDOF 3
ENDMDL
MODEL 9
REMARK VINA RESULT:      -6.4     16.149     17.600
REMARK  3 active torsions:
REMARK  status: ('A' for Active; 'I' for Inactive)
REMARK    1  A    between atoms: N_6  and  C_11 
REMARK    2  A    between atoms: C_11  and  C_18 
REMARK    3  A    between atoms: C_12  and  C_17 
ROOT
HETATM    1 Cl   UNK N   1      31.832  21.864  -2.950  0.00  0.00    -0.084 Cl
HETATM    2  O   UNK N   1      25.259  24.475  -6.987  0.00  0.00    -0.271 OA
HETATM    3  N   UNK N   1      26.819  24.101  -5.421  0.00  0.00    -0.307 N 
HETATM    4  N   UNK N   1      27.898  22.600  -7.934  0.00  0.00    -0.380 N 
ATOM      5  HN  UNK N   1      27.662  22.051  -8.761  1.00  0.00     0.160 HD
HETATM    6  C   UNK N   1      28.093  23.577  -4.968  0.00  0.00     0.050 A 
HETATM    7  C   UNK N   1      28.944  22.648  -5.692  0.00  0.00     0.020 A 
HETATM    8  C   UNK N   1      28.691  22.054  -7.081  0.00  0.00     0.051 C 
HETATM    9  C   UNK N   1      26.398  24.112  -6.717  0.00  0.00     0.242 C 
HETATM   10  C   UNK N   1      27.319  23.897  -7.836  0.00  0.00     0.223 C 
HETATM   11  C   UNK N   1      28.473  23.924  -3.650  0.00  0.00     0.032 A 
HETATM   12  C   UNK N   1      30.079  22.164  -5.013  0.00  0.00     0.040 A 
HETATM   13  C   UNK N   1      29.612  23.428  -3.038  0.00  0.00     0.026 A 
HETATM   14  C   UNK N   1      30.415  22.541  -3.721  0.00  0.00     0.035 A 
ENDROOT
BRANCH   8  15
HETATM   15  C   UNK N   1      29.477  20.874  -7.622  0.00  0.00    -0.009 A 
HETATM   16  C   UNK N   1      28.938  19.579  -7.488  0.00  0.00     0.014 A 
HETATM   17  C   UNK N   1      29.565  18.470  -8.065  0.00  0.00     0.001 A 
HETATM   18  C   UNK N   1      30.735  18.638  -8.804  0.00  0.00     0.000 A 
HETATM   19  C   UNK N   1      31.289  19.909  -8.948  0.00  0.00     0.001 A 
HETATM   20  C   UNK N   1      30.667  21.014  -8.361  0.00  0.00     0.014 A 
ENDBRANCH   8  15
BRANCH   3  21
HETATM   21  C   UNK N   1      25.937  24.720  -4.438  0.00  0.00     0.249 C 
BRANCH  21  22
HETATM   22  C   UNK N   1      26.091  26.253  -4.439  0.00  0.00     0.403 C 
HETATM   23  F   UNK N   1      25.023  26.858  -5.078  0.00  0.00    -0.169 F 
HETATM   24  F   UNK N   1      27.258  26.625  -5.081  0.00  0.00    -0.169 F 
HETATM   25  F   UNK N   1      26.141  26.708  -3.136  0.00  0.00    -0.169 F 
ENDBRANCH  21  22
ENDBRANCH   3  21
TORSDOF 3
ENDMDL
