MODEL 1
REMARK VINA RESULT:      -6.6      0.000      0.000
REMARK  9 active torsions:
REMARK  status: ('A' for Active; 'I' for Inactive)
REMARK    1  A    between atoms: O_1  and  C_15 
REMARK    2  A    between atoms: N_4  and  C_16 
REMARK    3  A    between atoms: N_5  and  C_10 
REMARK    4  A    between atoms: N_5  and  C_17 
REMARK       I    between atoms: N_5  and  C_18 
REMARK    5  A    between atoms: N_6  and  C_19 
REMARK    6  A    between atoms: N_8  and  C_29 
REMARK    7  A    between atoms: C_10  and  C_15 
REMARK    8  A    between atoms: C_16  and  C_19 
REMARK    9  A    between atoms: C_18  and  C_20 
ROOT
HETATM    1  N   UNK N   1      36.256  14.303  11.433  0.00  0.00     0.090 N 
HETATM    2  C   UNK N   1      35.820  11.565  12.314  0.00  0.00     0.065 C 
HETATM    3  C   UNK N   1      34.719  12.650  12.390  0.00  0.00     0.064 C 
HETATM    4  C   UNK N   1      36.762  11.847  11.121  0.00  0.00     0.064 C 
HETATM    5  C   UNK N   1      34.887  13.784  11.380  0.00  0.00     0.275 C 
HETATM    6  C   UNK N   1      37.287  13.293  11.122  0.00  0.00     0.275 C 
ENDROOT
BRANCH   2   7
HETATM    7  N   UNK N   1      36.629  11.387  13.562  0.00  0.00    -0.306 N 
HETATM    8  C   UNK N   1      37.700  10.491  13.512  0.00  0.00     0.224 C 
HETATM    9  O   UNK N   1      37.966   9.909  12.470  0.00  0.00    -0.273 OA
BRANCH   7  10
HETATM   10  C   UNK N   1      36.339  12.141  14.782  0.00  0.00     0.038 A 
HETATM   11  C   UNK N   1      36.847  13.440  14.992  0.00  0.00     0.030 A 
HETATM   12  C   UNK N   1      36.524  14.179  16.132  0.00  0.00     0.002 A 
HETATM   13  C   UNK N   1      35.674  13.639  17.094  0.00  0.00     0.000 A 
HETATM   14  C   UNK N   1      35.155  12.359  16.916  0.00  0.00     0.002 A 
HETATM   15  C   UNK N   1      35.483  11.626  15.774  0.00  0.00     0.030 A 
ENDBRANCH   7  10
BRANCH   8  16
HETATM   16  C   UNK N   1      38.579  10.181  14.691  0.00  0.00     0.099 C 
HETATM   17  C   UNK N   1      38.124   8.921  15.399  0.00  0.00     0.014 C 
ENDBRANCH   8  16
ENDBRANCH   2   7
BRANCH   2  18
HETATM   18  C   UNK N   1      34.989  10.280  12.089  0.00  0.00     0.198 C 
BRANCH  18  19
HETATM   19  O   UNK N   1      34.909   9.892  10.747  0.00  0.00    -0.393 OA
HETATM   20  C   UNK N   1      33.551   9.632  10.546  0.00  0.00     0.201 C 
ENDBRANCH  18  19
ENDBRANCH   2  18
BRANCH   1  21
HETATM   21  C   UNK N   1      36.399  15.464  10.549  0.00  0.00     0.294 C 
BRANCH  21  22
HETATM   22  C   UNK N   1      35.361  16.556  10.835  0.00  0.00     0.181 C 
BRANCH  22  23
HETATM   23  N   UNK N   1      34.835  17.148   9.607  0.00  0.00    -0.226 N 
HETATM   24  N   UNK N   1      35.228  18.286   9.045  0.00  0.00    -0.002 NA
HETATM   25  N   UNK N   1      34.520  18.492   7.936  0.00  0.00    -0.002 NA
HETATM   26  N   UNK N   1      33.667  17.488   7.774  0.00  0.00    -0.228 N 
HETATM   27  C   UNK N   1      33.863  16.654   8.815  0.00  0.00     0.354 A 
HETATM   28  O   UNK N   1      33.253  15.616   9.010  0.00  0.00    -0.244 OA
BRANCH  26  29
HETATM   29  C   UNK N   1      32.714  17.353   6.684  0.00  0.00     0.147 C 
HETATM   30  C   UNK N   1      33.422  17.493   5.350  0.00  0.00     0.028 C 
ENDBRANCH  26  29
ENDBRANCH  22  23
ENDBRANCH  21  22
ENDBRANCH   1  21
TORSDOF 9
ENDMDL
MODEL 2
REMARK VINA RESULT:      -6.6      4.002     10.275
REMARK  9 active torsions:
REMARK  status: ('A' for Active; 'I' for Inactive)
REMARK    1  A    between atoms: O_1  and  C_15 
REMARK    2  A    between atoms: N_4  and  C_16 
REMARK    3  A    between atoms: N_5  and  C_10 
REMARK    4  A    between atoms: N_5  and  C_17 
REMARK       I    between atoms: N_5  and  C_18 
REMARK    5  A    between atoms: N_6  and  C_19 
REMARK    6  A    between atoms: N_8  and  C_29 
REMARK    7  A    between atoms: C_10  and  C_15 
REMARK    8  A    between atoms: C_16  and  C_19 
REMARK    9  A    between atoms: C_18  and  C_20 
ROOT
HETATM    1  N   UNK N   1      31.805  17.562   7.326  0.00  0.00     0.090 N 
HETATM    2  C   UNK N   1      30.380  16.171   5.206  0.00  0.00     0.065 C 
HETATM    3  C   UNK N   1      31.326  17.365   4.930  0.00  0.00     0.064 C 
HETATM    4  C   UNK N   1      30.861  15.388   6.449  0.00  0.00     0.064 C 
HETATM    5  C   UNK N   1      32.407  17.563   5.991  0.00  0.00     0.275 C 
HETATM    6  C   UNK N   1      31.101  16.307   7.660  0.00  0.00     0.275 C 
ENDROOT
BRANCH   2   7
HETATM    7  N   UNK N   1      28.933  16.526   5.364  0.00  0.00    -0.306 N 
HETATM    8  C   UNK N   1      28.012  15.476   5.388  0.00  0.00     0.224 C 
HETATM    9  O   UNK N   1      28.398  14.318   5.313  0.00  0.00    -0.273 OA
BRANCH   7  10
HETATM   10  C   UNK N   1      28.493  17.913   5.520  0.00  0.00     0.038 A 
HETATM   11  C   UNK N   1      28.193  18.727   4.408  0.00  0.00     0.030 A 
HETATM   12  C   UNK N   1      27.720  20.033   4.561  0.00  0.00     0.002 A 
HETATM   13  C   UNK N   1      27.526  20.558   5.835  0.00  0.00     0.000 A 
HETATM   14  C   UNK N   1      27.811  19.779   6.955  0.00  0.00     0.002 A 
HETATM   15  C   UNK N   1      28.285  18.476   6.794  0.00  0.00     0.030 A 
ENDBRANCH   7  10
BRANCH   8  16
HETATM   16  C   UNK N   1      26.527  15.676   5.505  0.00  0.00     0.099 C 
HETATM   17  C   UNK N   1      26.026  15.274   6.877  0.00  0.00     0.014 C 
ENDBRANCH   8  16
ENDBRANCH   2   7
BRANCH   2  18
HETATM   18  C   UNK N   1      30.534  15.335   3.915  0.00  0.00     0.198 C 
BRANCH  18  19
HETATM   19  O   UNK N   1      31.771  14.688   3.809  0.00  0.00    -0.393 OA
HETATM   20  C   UNK N   1      31.459  13.438   3.269  0.00  0.00     0.201 C 
ENDBRANCH  18  19
ENDBRANCH   2  18
BRANCH   1  21
HETATM   21  C   UNK N   1      32.815  17.863   8.346  0.00  0.00     0.294 C 
BRANCH  21  22
HETATM   22  C   UNK N   1      34.122  17.091   8.129  0.00  0.00     0.181 C 
BRANCH  22  23
HETATM   23  N   UNK N   1      34.667  16.570   9.380  0.00  0.00    -0.226 N 
HETATM   24  N   UNK N   1      35.526  17.185  10.186  0.00  0.00    -0.002 NA
HETATM   25  N   UNK N   1      35.784  16.398  11.230  0.00  0.00    -0.002 NA
HETATM   26  N   UNK N   1      35.095  15.272  11.104  0.00  0.00    -0.228 N 
HETATM   27  C   UNK N   1      34.401  15.380   9.953  0.00  0.00     0.354 A 
HETATM   28  O   UNK N   1      33.653  14.530   9.499  0.00  0.00    -0.244 OA
BRANCH  26  29
HETATM   29  C   UNK N   1      35.115  14.156  12.037  0.00  0.00     0.147 C 
HETATM   30  C   UNK N   1      36.060  14.453  13.186  0.00  0.00     0.028 C 
ENDBRANCH  26  29
ENDBRANCH  22  23
ENDBRANCH  21  22
ENDBRANCH   1  21
TORSDOF 9
ENDMDL
MODEL 3
REMARK VINA RESULT:      -6.5      4.343     10.603
REMARK  9 active torsions:
REMARK  status: ('A' for Active; 'I' for Inactive)
REMARK    1  A    between atoms: O_1  and  C_15 
REMARK    2  A    between atoms: N_4  and  C_16 
REMARK    3  A    between atoms: N_5  and  C_10 
REMARK    4  A    between atoms: N_5  and  C_17 
REMARK       I    between atoms: N_5  and  C_18 
REMARK    5  A    between atoms: N_6  and  C_19 
REMARK    6  A    between atoms: N_8  and  C_29 
REMARK    7  A    between atoms: C_10  and  C_15 
REMARK    8  A    between atoms: C_16  and  C_19 
REMARK    9  A    between atoms: C_18  and  C_20 
ROOT
HETATM    1  N   UNK N   1      31.684  17.410   7.048  0.00  0.00     0.090 N 
HETATM    2  C   UNK N   1      30.102  16.056   5.016  0.00  0.00     0.065 C 
HETATM    3  C   UNK N   1      31.040  17.243   4.689  0.00  0.00     0.064 C 
HETATM    4  C   UNK N   1      30.659  15.256   6.216  0.00  0.00     0.064 C 
HETATM    5  C   UNK N   1      32.193  17.420   5.675  0.00  0.00     0.275 C 
HETATM    6  C   UNK N   1      30.991  16.159   7.417  0.00  0.00     0.275 C 
ENDROOT
BRANCH   2   7
HETATM    7  N   UNK N   1      28.674  16.424   5.277  0.00  0.00    -0.306 N 
HETATM    8  C   UNK N   1      27.762  15.380   5.449  0.00  0.00     0.224 C 
HETATM    9  O   UNK N   1      28.144  14.218   5.415  0.00  0.00    -0.273 OA
BRANCH   7  10
HETATM   10  C   UNK N   1      28.244  17.819   5.381  0.00  0.00     0.038 A 
HETATM   11  C   UNK N   1      28.199  18.493   6.618  0.00  0.00     0.030 A 
HETATM   12  C   UNK N   1      27.841  19.841   6.708  0.00  0.00     0.002 A 
HETATM   13  C   UNK N   1      27.525  20.555   5.555  0.00  0.00     0.000 A 
HETATM   14  C   UNK N   1      27.561  19.918   4.317  0.00  0.00     0.002 A 
HETATM   15  C   UNK N   1      27.918  18.571   4.236  0.00  0.00     0.030 A 
ENDBRANCH   7  10
BRANCH   8  16
HETATM   16  C   UNK N   1      26.292  15.590   5.682  0.00  0.00     0.099 C 
HETATM   17  C   UNK N   1      25.888  15.147   7.073  0.00  0.00     0.014 C 
ENDBRANCH   8  16
ENDBRANCH   2   7
BRANCH   2  18
HETATM   18  C   UNK N   1      30.160  15.232   3.710  0.00  0.00     0.198 C 
BRANCH  18  19
HETATM   19  O   UNK N   1      29.628  15.900   2.601  0.00  0.00    -0.393 OA
HETATM   20  C   UNK N   1      28.844  14.936   1.963  0.00  0.00     0.201 C 
ENDBRANCH  18  19
ENDBRANCH   2  18
BRANCH   1  21
HETATM   21  C   UNK N   1      32.764  17.690   7.999  0.00  0.00     0.294 C 
BRANCH  21  22
HETATM   22  C   UNK N   1      33.990  16.794   7.783  0.00  0.00     0.181 C 
BRANCH  22  23
HETATM   23  N   UNK N   1      34.310  16.005   8.969  0.00  0.00    -0.226 N 
HETATM   24  N   UNK N   1      33.938  14.752   9.212  0.00  0.00    -0.002 NA
HETATM   25  N   UNK N   1      34.427  14.373  10.392  0.00  0.00    -0.002 NA
HETATM   26  N   UNK N   1      35.116  15.377  10.918  0.00  0.00    -0.228 N 
HETATM   27  C   UNK N   1      35.042  16.392  10.033  0.00  0.00     0.354 A 
HETATM   28  O   UNK N   1      35.555  17.489  10.176  0.00  0.00    -0.244 OA
BRANCH  26  29
HETATM   29  C   UNK N   1      35.795  15.357  12.204  0.00  0.00     0.147 C 
HETATM   30  C   UNK N   1      36.067  13.927  12.630  0.00  0.00     0.028 C 
ENDBRANCH  26  29
ENDBRANCH  22  23
ENDBRANCH  21  22
ENDBRANCH   1  21
TORSDOF 9
ENDMDL
MODEL 4
REMARK VINA RESULT:      -6.4     12.826     16.366
REMARK  9 active torsions:
REMARK  status: ('A' for Active; 'I' for Inactive)
REMARK    1  A    between atoms: O_1  and  C_15 
REMARK    2  A    between atoms: N_4  and  C_16 
REMARK    3  A    between atoms: N_5  and  C_10 
REMARK    4  A    between atoms: N_5  and  C_17 
REMARK       I    between atoms: N_5  and  C_18 
REMARK    5  A    between atoms: N_6  and  C_19 
REMARK    6  A    between atoms: N_8  and  C_29 
REMARK    7  A    between atoms: C_10  and  C_15 
REMARK    8  A    between atoms: C_16  and  C_19 
REMARK    9  A    between atoms: C_18  and  C_20 
ROOT
HETATM    1  N   UNK N   1      21.132  15.997   5.712  0.00  0.00     0.090 N 
HETATM    2  C   UNK N   1      22.372  18.084   4.109  0.00  0.00     0.065 C 
HETATM    3  C   UNK N   1      21.363  17.069   3.520  0.00  0.00     0.064 C 
HETATM    4  C   UNK N   1      22.051  18.348   5.599  0.00  0.00     0.064 C 
HETATM    5  C   UNK N   1      20.393  16.484   4.545  0.00  0.00     0.275 C 
HETATM    6  C   UNK N   1      21.909  17.045   6.404  0.00  0.00     0.275 C 
ENDROOT
BRANCH   2   7
HETATM    7  N   UNK N   1      23.814  17.707   3.965  0.00  0.00    -0.306 N 
HETATM    8  C   UNK N   1      24.101  16.393   3.588  0.00  0.00     0.224 C 
HETATM    9  O   UNK N   1      23.192  15.607   3.358  0.00  0.00    -0.273 OA
BRANCH   7  10
HETATM   10  C   UNK N   1      24.889  18.676   4.179  0.00  0.00     0.038 A 
HETATM   11  C   UNK N   1      25.543  18.799   5.422  0.00  0.00     0.030 A 
HETATM   12  C   UNK N   1      26.606  19.687   5.609  0.00  0.00     0.002 A 
HETATM   13  C   UNK N   1      27.050  20.473   4.548  0.00  0.00     0.000 A 
HETATM   14  C   UNK N   1      26.427  20.373   3.306  0.00  0.00     0.002 A 
HETATM   15  C   UNK N   1      25.364  19.486   3.129  0.00  0.00     0.030 A 
ENDBRANCH   7  10
BRANCH   8  16
HETATM   16  C   UNK N   1      25.497  15.857   3.438  0.00  0.00     0.099 C 
HETATM   17  C   UNK N   1      25.838  15.615   1.982  0.00  0.00     0.014 C 
ENDBRANCH   8  16
ENDBRANCH   2   7
BRANCH   2  18
HETATM   18  C   UNK N   1      22.110  19.337   3.242  0.00  0.00     0.198 C 
BRANCH  18  19
HETATM   19  O   UNK N   1      21.150  20.202   3.781  0.00  0.00    -0.393 OA
HETATM   20  C   UNK N   1      20.307  20.491   2.705  0.00  0.00     0.201 C 
ENDBRANCH  18  19
ENDBRANCH   2  18
BRANCH   1  21
HETATM   21  C   UNK N   1      20.226  15.332   6.654  0.00  0.00     0.294 C 
BRANCH  21  22
HETATM   22  C   UNK N   1      20.496  15.725   8.111  0.00  0.00     0.181 C 
BRANCH  22  23
HETATM   23  N   UNK N   1      20.625  14.558   8.980  0.00  0.00    -0.226 N 
HETATM   24  N   UNK N   1      19.692  14.066   9.789  0.00  0.00    -0.002 NA
HETATM   25  N   UNK N   1      20.178  12.995  10.414  0.00  0.00    -0.002 NA
HETATM   26  N   UNK N   1      21.426  12.788  10.013  0.00  0.00    -0.228 N 
HETATM   27  C   UNK N   1      21.703  13.762   9.122  0.00  0.00     0.354 A 
HETATM   28  O   UNK N   1      22.765  13.901   8.539  0.00  0.00    -0.244 OA
BRANCH  26  29
HETATM   29  C   UNK N   1      22.299  11.719  10.473  0.00  0.00     0.147 C 
HETATM   30  C   UNK N   1      22.979  12.121  11.767  0.00  0.00     0.028 C 
ENDBRANCH  26  29
ENDBRANCH  22  23
ENDBRANCH  21  22
ENDBRANCH   1  21
TORSDOF 9
ENDMDL
MODEL 5
REMARK VINA RESULT:      -6.3     17.445     22.558
REMARK  9 active torsions:
REMARK  status: ('A' for Active; 'I' for Inactive)
REMARK    1  A    between atoms: O_1  and  C_15 
REMARK    2  A    between atoms: N_4  and  C_16 
REMARK    3  A    between atoms: N_5  and  C_10 
REMARK    4  A    between atoms: N_5  and  C_17 
REMARK       I    between atoms: N_5  and  C_18 
REMARK    5  A    between atoms: N_6  and  C_19 
REMARK    6  A    between atoms: N_8  and  C_29 
REMARK    7  A    between atoms: C_10  and  C_15 
REMARK    8  A    between atoms: C_16  and  C_19 
REMARK    9  A    between atoms: C_18  and  C_20 
ROOT
HETATM    1  N   UNK N   1      29.024  23.977  -4.079  0.00  0.00     0.090 N 
HETATM    2  C   UNK N   1      26.850  25.471  -5.306  0.00  0.00     0.065 C 
HETATM    3  C   UNK N   1      26.607  24.314  -4.306  0.00  0.00     0.064 C 
HETATM    4  C   UNK N   1      28.183  26.183  -4.979  0.00  0.00     0.064 C 
HETATM    5  C   UNK N   1      27.764  24.070  -3.339  0.00  0.00     0.275 C 
HETATM    6  C   UNK N   1      29.355  25.195  -4.845  0.00  0.00     0.275 C 
ENDROOT
BRANCH   2   7
HETATM    7  N   UNK N   1      26.831  25.080  -6.752  0.00  0.00    -0.306 N 
HETATM    8  C   UNK N   1      26.908  26.106  -7.696  0.00  0.00     0.224 C 
HETATM    9  O   UNK N   1      27.018  27.269  -7.333  0.00  0.00    -0.273 OA
BRANCH   7  10
HETATM   10  C   UNK N   1      26.766  23.679  -7.170  0.00  0.00     0.038 A 
HETATM   11  C   UNK N   1      25.539  23.042  -7.446  0.00  0.00     0.030 A 
HETATM   12  C   UNK N   1      25.482  21.722  -7.898  0.00  0.00     0.002 A 
HETATM   13  C   UNK N   1      26.658  21.003  -8.095  0.00  0.00     0.000 A 
HETATM   14  C   UNK N   1      27.887  21.604  -7.834  0.00  0.00     0.002 A 
HETATM   15  C   UNK N   1      27.935  22.923  -7.381  0.00  0.00     0.030 A 
ENDBRANCH   7  10
BRANCH   8  16
HETATM   16  C   UNK N   1      26.864  25.874  -9.181  0.00  0.00     0.099 C 
HETATM   17  C   UNK N   1      25.458  26.041  -9.721  0.00  0.00     0.014 C 
ENDBRANCH   8  16
ENDBRANCH   2   7
BRANCH   2  18
HETATM   18  C   UNK N   1      25.636  26.389  -5.036  0.00  0.00     0.198 C 
BRANCH  18  19
HETATM   19  O   UNK N   1      25.709  27.074  -3.818  0.00  0.00    -0.393 OA
HETATM   20  C   UNK N   1      25.675  28.422  -4.180  0.00  0.00     0.201 C 
ENDBRANCH  18  19
ENDBRANCH   2  18
BRANCH   1  21
HETATM   21  C   UNK N   1      30.126  23.632  -3.175  0.00  0.00     0.294 C 
BRANCH  21  22
HETATM   22  C   UNK N   1      30.140  22.145  -2.801  0.00  0.00     0.181 C 
BRANCH  22  23
HETATM   23  N   UNK N   1      31.443  21.530  -3.042  0.00  0.00    -0.226 N 
HETATM   24  N   UNK N   1      32.496  21.563  -2.232  0.00  0.00    -0.002 NA
HETATM   25  N   UNK N   1      33.498  20.885  -2.792  0.00  0.00    -0.002 NA
HETATM   26  N   UNK N   1      33.098  20.410  -3.964  0.00  0.00    -0.228 N 
HETATM   27  C   UNK N   1      31.820  20.813  -4.119  0.00  0.00     0.354 A 
HETATM   28  O   UNK N   1      31.118  20.569  -5.086  0.00  0.00    -0.244 OA
BRANCH  26  29
HETATM   29  C   UNK N   1      33.908  19.624  -4.882  0.00  0.00     0.147 C 
HETATM   30  C   UNK N   1      34.314  18.316  -4.231  0.00  0.00     0.028 C 
ENDBRANCH  26  29
ENDBRANCH  22  23
ENDBRANCH  21  22
ENDBRANCH   1  21
TORSDOF 9
ENDMDL
MODEL 6
REMARK VINA RESULT:      -6.2      2.728      8.736
REMARK  9 active torsions:
REMARK  status: ('A' for Active; 'I' for Inactive)
REMARK    1  A    between atoms: O_1  and  C_15 
REMARK    2  A    between atoms: N_4  and  C_16 
REMARK    3  A    between atoms: N_5  and  C_10 
REMARK    4  A    between atoms: N_5  and  C_17 
REMARK       I    between atoms: N_5  and  C_18 
REMARK    5  A    between atoms: N_6  and  C_19 
REMARK    6  A    between atoms: N_8  and  C_29 
REMARK    7  A    between atoms: C_10  and  C_15 
REMARK    8  A    between atoms: C_16  and  C_19 
REMARK    9  A    between atoms: C_18  and  C_20 
ROOT
HETATM    1  N   UNK N   1      34.467  15.352  10.029  0.00  0.00     0.090 N 
HETATM    2  C   UNK N   1      33.422  14.653   7.406  0.00  0.00     0.065 C 
HETATM    3  C   UNK N   1      34.934  14.635   7.732  0.00  0.00     0.064 C 
HETATM    4  C   UNK N   1      32.601  14.319   8.673  0.00  0.00     0.064 C 
HETATM    5  C   UNK N   1      35.253  14.426   9.212  0.00  0.00     0.275 C 
HETATM    6  C   UNK N   1      33.007  15.189   9.876  0.00  0.00     0.275 C 
ENDROOT
BRANCH   2   7
HETATM    7  N   UNK N   1      32.914  15.925   6.800  0.00  0.00    -0.306 N 
HETATM    8  C   UNK N   1      33.588  16.417   5.679  0.00  0.00     0.224 C 
HETATM    9  O   UNK N   1      34.533  15.798   5.209  0.00  0.00    -0.273 OA
BRANCH   7  10
HETATM   10  C   UNK N   1      31.741  16.618   7.333  0.00  0.00     0.038 A 
HETATM   11  C   UNK N   1      31.858  17.657   8.280  0.00  0.00     0.030 A 
HETATM   12  C   UNK N   1      30.741  18.354   8.746  0.00  0.00     0.002 A 
HETATM   13  C   UNK N   1      29.473  18.035   8.269  0.00  0.00     0.000 A 
HETATM   14  C   UNK N   1      29.323  17.016   7.331  0.00  0.00     0.002 A 
HETATM   15  C   UNK N   1      30.444  16.322   6.871  0.00  0.00     0.030 A 
ENDBRANCH   7  10
BRANCH   8  16
HETATM   16  C   UNK N   1      33.219  17.697   4.983  0.00  0.00     0.099 C 
HETATM   17  C   UNK N   1      32.407  17.428   3.733  0.00  0.00     0.014 C 
ENDBRANCH   8  16
ENDBRANCH   2   7
BRANCH   2  18
HETATM   18  C   UNK N   1      33.309  13.532   6.347  0.00  0.00     0.198 C 
BRANCH  18  19
HETATM   19  O   UNK N   1      32.058  12.906   6.323  0.00  0.00    -0.393 OA
HETATM   20  C   UNK N   1      31.597  13.111   5.020  0.00  0.00     0.201 C 
ENDBRANCH  18  19
ENDBRANCH   2  18
BRANCH   1  21
HETATM   21  C   UNK N   1      34.844  15.239  11.441  0.00  0.00     0.294 C 
BRANCH  21  22
HETATM   22  C   UNK N   1      35.331  13.833  11.812  0.00  0.00     0.181 C 
BRANCH  22  23
HETATM   23  N   UNK N   1      35.629  13.712  13.237  0.00  0.00    -0.226 N 
HETATM   24  N   UNK N   1      36.532  14.409  13.919  0.00  0.00    -0.002 NA
HETATM   25  N   UNK N   1      36.510  14.023  15.194  0.00  0.00    -0.002 NA
HETATM   26  N   UNK N   1      35.593  13.075  15.343  0.00  0.00    -0.228 N 
HETATM   27  C   UNK N   1      35.047  12.882  14.125  0.00  0.00     0.354 A 
HETATM   28  O   UNK N   1      34.166  12.079  13.868  0.00  0.00    -0.244 OA
BRANCH  26  29
HETATM   29  C   UNK N   1      35.274  12.392  16.587  0.00  0.00     0.147 C 
HETATM   30  C   UNK N   1      35.135  13.397  17.714  0.00  0.00     0.028 C 
ENDBRANCH  26  29
ENDBRANCH  22  23
ENDBRANCH  21  22
ENDBRANCH   1  21
TORSDOF 9
ENDMDL
MODEL 7
REMARK VINA RESULT:      -6.2     17.275     22.394
REMARK  9 active torsions:
REMARK  status: ('A' for Active; 'I' for Inactive)
REMARK    1  A    between atoms: O_1  and  C_15 
REMARK    2  A    between atoms: N_4  and  C_16 
REMARK    3  A    between atoms: N_5  and  C_10 
REMARK    4  A    between atoms: N_5  and  C_17 
REMARK       I    between atoms: N_5  and  C_18 
REMARK    5  A    between atoms: N_6  and  C_19 
REMARK    6  A    between atoms: N_8  and  C_29 
REMARK    7  A    between atoms: C_10  and  C_15 
REMARK    8  A    between atoms: C_16  and  C_19 
REMARK    9  A    between atoms: C_18  and  C_20 
ROOT
HETATM    1  N   UNK N   1      29.558  24.248  -4.039  0.00  0.00     0.090 N 
HETATM    2  C   UNK N   1      27.594  24.549  -6.164  0.00  0.00     0.065 C 
HETATM    3  C   UNK N   1      29.116  24.487  -6.438  0.00  0.00     0.064 C 
HETATM    4  C   UNK N   1      27.247  23.715  -4.909  0.00  0.00     0.064 C 
HETATM    5  C   UNK N   1      29.915  23.746  -5.367  0.00  0.00     0.275 C 
HETATM    6  C   UNK N   1      28.130  24.080  -3.703  0.00  0.00     0.275 C 
ENDROOT
BRANCH   2   7
HETATM    7  N   UNK N   1      27.026  25.928  -6.023  0.00  0.00    -0.306 N 
HETATM    8  C   UNK N   1      25.665  26.036  -5.730  0.00  0.00     0.224 C 
HETATM    9  O   UNK N   1      24.989  25.029  -5.567  0.00  0.00    -0.273 OA
BRANCH   7  10
HETATM   10  C   UNK N   1      27.861  27.122  -6.156  0.00  0.00     0.038 A 
HETATM   11  C   UNK N   1      27.903  27.872  -7.349  0.00  0.00     0.030 A 
HETATM   12  C   UNK N   1      28.658  29.042  -7.456  0.00  0.00     0.002 A 
HETATM   13  C   UNK N   1      29.388  29.500  -6.362  0.00  0.00     0.000 A 
HETATM   14  C   UNK N   1      29.366  28.784  -5.168  0.00  0.00     0.002 A 
HETATM   15  C   UNK N   1      28.611  27.614  -5.070  0.00  0.00     0.030 A 
ENDBRANCH   7  10
BRANCH   8  16
HETATM   16  C   UNK N   1      24.945  27.348  -5.595  0.00  0.00     0.099 C 
HETATM   17  C   UNK N   1      25.238  27.999  -4.258  0.00  0.00     0.014 C 
ENDBRANCH   8  16
ENDBRANCH   2   7
BRANCH   2  18
HETATM   18  C   UNK N   1      27.011  23.913  -7.447  0.00  0.00     0.198 C 
BRANCH  18  19
HETATM   19  O   UNK N   1      26.511  22.620  -7.255  0.00  0.00    -0.393 OA
HETATM   20  C   UNK N   1      25.401  22.553  -8.100  0.00  0.00     0.201 C 
ENDBRANCH  18  19
ENDBRANCH   2  18
BRANCH   1  21
HETATM   21  C   UNK N   1      30.398  23.625  -3.011  0.00  0.00     0.294 C 
BRANCH  21  22
HETATM   22  C   UNK N   1      30.318  22.094  -3.032  0.00  0.00     0.181 C 
BRANCH  22  23
HETATM   23  N   UNK N   1      31.638  21.476  -3.134  0.00  0.00    -0.226 N 
HETATM   24  N   UNK N   1      32.639  21.597  -2.269  0.00  0.00    -0.002 NA
HETATM   25  N   UNK N   1      33.678  20.884  -2.701  0.00  0.00    -0.002 NA
HETATM   26  N   UNK N   1      33.355  20.299  -3.847  0.00  0.00    -0.228 N 
HETATM   27  C   UNK N   1      32.086  20.669  -4.117  0.00  0.00     0.354 A 
HETATM   28  O   UNK N   1      31.447  20.329  -5.098  0.00  0.00    -0.244 OA
BRANCH  26  29
HETATM   29  C   UNK N   1      34.226  19.443  -4.637  0.00  0.00     0.147 C 
HETATM   30  C   UNK N   1      34.207  18.029  -4.089  0.00  0.00     0.028 C 
ENDBRANCH  26  29
ENDBRANCH  22  23
ENDBRANCH  21  22
ENDBRANCH   1  21
TORSDOF 9
ENDMDL
MODEL 8
REMARK VINA RESULT:      -6.1      2.772      9.372
REMARK  9 active torsions:
REMARK  status: ('A' for Active; 'I' for Inactive)
REMARK    1  A    between atoms: O_1  and  C_15 
REMARK    2  A    between atoms: N_4  and  C_16 
REMARK    3  A    between atoms: N_5  and  C_10 
REMARK    4  A    between atoms: N_5  and  C_17 
REMARK       I    between atoms: N_5  and  C_18 
REMARK    5  A    between atoms: N_6  and  C_19 
REMARK    6  A    between atoms: N_8  and  C_29 
REMARK    7  A    between atoms: C_10  and  C_15 
REMARK    8  A    between atoms: C_16  and  C_19 
REMARK    9  A    between atoms: C_18  and  C_20 
ROOT
HETATM    1  N   UNK N   1      34.226  14.147   8.251  0.00  0.00     0.090 N 
HETATM    2  C   UNK N   1      32.717  16.574   7.707  0.00  0.00     0.065 C 
HETATM    3  C   UNK N   1      32.182  15.448   8.624  0.00  0.00     0.064 C 
HETATM    4  C   UNK N   1      34.261  16.629   7.779  0.00  0.00     0.064 C 
HETATM    5  C   UNK N   1      33.274  14.595   9.269  0.00  0.00     0.275 C 
HETATM    6  C   UNK N   1      34.905  15.251   7.545  0.00  0.00     0.275 C 
ENDROOT
BRANCH   2   7
HETATM    7  N   UNK N   1      32.284  16.490   6.275  0.00  0.00    -0.306 N 
HETATM    8  C   UNK N   1      32.946  17.306   5.355  0.00  0.00     0.224 C 
HETATM    9  O   UNK N   1      33.863  18.029   5.721  0.00  0.00    -0.273 OA
BRANCH   7  10
HETATM   10  C   UNK N   1      31.231  15.572   5.841  0.00  0.00     0.038 A 
HETATM   11  C   UNK N   1      29.875  15.957   5.811  0.00  0.00     0.030 A 
HETATM   12  C   UNK N   1      28.878  15.097   5.345  0.00  0.00     0.002 A 
HETATM   13  C   UNK N   1      29.214  13.826   4.885  0.00  0.00     0.000 A 
HETATM   14  C   UNK N   1      30.545  13.416   4.899  0.00  0.00     0.002 A 
HETATM   15  C   UNK N   1      31.536  14.281   5.369  0.00  0.00     0.030 A 
ENDBRANCH   7  10
BRANCH   8  16
HETATM   16  C   UNK N   1      32.601  17.360   3.893  0.00  0.00     0.099 C 
HETATM   17  C   UNK N   1      33.366  16.313   3.109  0.00  0.00     0.014 C 
ENDBRANCH   8  16
ENDBRANCH   2   7
BRANCH   2  18
HETATM   18  C   UNK N   1      32.075  17.832   8.335  0.00  0.00     0.198 C 
BRANCH  18  19
HETATM   19  O   UNK N   1      30.873  17.574   9.003  0.00  0.00    -0.393 OA
HETATM   20  C   UNK N   1      30.275  18.831   9.130  0.00  0.00     0.201 C 
ENDBRANCH  18  19
ENDBRANCH   2  18
BRANCH   1  21
HETATM   21  C   UNK N   1      35.215  13.237   8.838  0.00  0.00     0.294 C 
BRANCH  21  22
HETATM   22  C   UNK N   1      34.632  12.379   9.967  0.00  0.00     0.181 C 
BRANCH  22  23
HETATM   23  N   UNK N   1      35.484  12.377  11.153  0.00  0.00    -0.226 N 
HETATM   24  N   UNK N   1      36.505  11.562  11.394  0.00  0.00    -0.002 NA
HETATM   25  N   UNK N   1      37.041  11.871  12.574  0.00  0.00    -0.002 NA
HETATM   26  N   UNK N   1      36.370  12.887  13.102  0.00  0.00    -0.228 N 
HETATM   27  C   UNK N   1      35.401  13.201  12.218  0.00  0.00     0.354 A 
HETATM   28  O   UNK N   1      34.577  14.088  12.362  0.00  0.00    -0.244 OA
BRANCH  26  29
HETATM   29  C   UNK N   1      36.645  13.508  14.388  0.00  0.00     0.147 C 
HETATM   30  C   UNK N   1      35.848  12.821  15.481  0.00  0.00     0.028 C 
ENDBRANCH  26  29
ENDBRANCH  22  23
ENDBRANCH  21  22
ENDBRANCH   1  21
TORSDOF 9
ENDMDL
MODEL 9
REMARK VINA RESULT:      -6.0      5.386      9.011
REMARK  9 active torsions:
REMARK  status: ('A' for Active; 'I' for Inactive)
REMARK    1  A    between atoms: O_1  and  C_15 
REMARK    2  A    between atoms: N_4  and  C_16 
REMARK    3  A    between atoms: N_5  and  C_10 
REMARK    4  A    between atoms: N_5  and  C_17 
REMARK       I    between atoms: N_5  and  C_18 
REMARK    5  A    between atoms: N_6  and  C_19 
REMARK    6  A    between atoms: N_8  and  C_29 
REMARK    7  A    between atoms: C_10  and  C_15 
REMARK    8  A    between atoms: C_16  and  C_19 
REMARK    9  A    between atoms: C_18  and  C_20 
ROOT
HETATM    1  N   UNK N   1      30.597  17.850   8.432  0.00  0.00     0.090 N 
HETATM    2  C   UNK N   1      33.086  16.372   8.136  0.00  0.00     0.065 C 
HETATM    3  C   UNK N   1      32.973  17.884   7.828  0.00  0.00     0.064 C 
HETATM    4  C   UNK N   1      32.088  15.982   9.252  0.00  0.00     0.064 C 
HETATM    5  C   UNK N   1      31.849  18.594   8.581  0.00  0.00     0.275 C 
HETATM    6  C   UNK N   1      30.660  16.470   8.954  0.00  0.00     0.275 C 
ENDROOT
BRANCH   2   7
HETATM    7  N   UNK N   1      32.902  15.465   6.959  0.00  0.00    -0.306 N 
HETATM    8  C   UNK N   1      33.038  14.092   7.178  0.00  0.00     0.224 C 
HETATM    9  O   UNK N   1      33.267  13.668   8.302  0.00  0.00    -0.273 OA
BRANCH   7  10
HETATM   10  C   UNK N   1      32.562  15.982   5.633  0.00  0.00     0.038 A 
HETATM   11  C   UNK N   1      33.551  16.253   4.665  0.00  0.00     0.030 A 
HETATM   12  C   UNK N   1      33.221  16.695   3.382  0.00  0.00     0.002 A 
HETATM   13  C   UNK N   1      31.886  16.870   3.028  0.00  0.00     0.000 A 
HETATM   14  C   UNK N   1      30.884  16.608   3.961  0.00  0.00     0.002 A 
HETATM   15  C   UNK N   1      31.222  16.169   5.242  0.00  0.00     0.030 A 
ENDBRANCH   7  10
BRANCH   8  16
HETATM   16  C   UNK N   1      32.917  13.061   6.090  0.00  0.00     0.099 C 
HETATM   17  C   UNK N   1      34.280  12.658   5.562  0.00  0.00     0.014 C 
ENDBRANCH   8  16
ENDBRANCH   2   7
BRANCH   2  18
HETATM   18  C   UNK N   1      34.550  16.251   8.617  0.00  0.00     0.198 C 
BRANCH  18  19
HETATM   19  O   UNK N   1      34.911  17.214   9.566  0.00  0.00    -0.393 OA
HETATM   20  C   UNK N   1      35.493  16.477  10.599  0.00  0.00     0.201 C 
ENDBRANCH  18  19
ENDBRANCH   2  18
BRANCH   1  21
HETATM   21  C   UNK N   1      29.489  18.578   9.056  0.00  0.00     0.294 C 
BRANCH  21  22
HETATM   22  C   UNK N   1      28.116  18.034   8.643  0.00  0.00     0.181 C 
BRANCH  22  23
HETATM   23  N   UNK N   1      27.910  18.102   7.198  0.00  0.00    -0.226 N 
HETATM   24  N   UNK N   1      27.854  17.075   6.356  0.00  0.00    -0.002 NA
HETATM   25  N   UNK N   1      27.648  17.533   5.123  0.00  0.00    -0.002 NA
HETATM   26  N   UNK N   1      27.569  18.857   5.159  0.00  0.00    -0.228 N 
HETATM   27  C   UNK N   1      27.733  19.210   6.451  0.00  0.00     0.354 A 
HETATM   28  O   UNK N   1      27.727  20.354   6.874  0.00  0.00    -0.244 OA
BRANCH  26  29
HETATM   29  C   UNK N   1      27.358  19.727   4.012  0.00  0.00     0.147 C 
HETATM   30  C   UNK N   1      25.923  19.621   3.533  0.00  0.00     0.028 C 
ENDBRANCH  26  29
ENDBRANCH  22  23
ENDBRANCH  21  22
ENDBRANCH   1  21
TORSDOF 9
ENDMDL
