REMARK  8 active torsions:
REMARK  status: ('A' for Active; 'I' for Inactive)
REMARK    1  A    between atoms: O_1  and  C_16 
REMARK    2  A    between atoms: O_1  and  C_17 
REMARK    3  A    between atoms: N_3  and  C_18 
REMARK    4  A    between atoms: N_3  and  C_19 
REMARK    5  A    between atoms: N_3  and  C_20 
REMARK    6  A    between atoms: C_4  and  C_5 
REMARK    7  A    between atoms: C_4  and  C_16 
REMARK    8  A    between atoms: C_17  and  C_18 
ROOT
HETATM    1  C   UNK N   1       5.826  -1.211   0.198  0.00  0.00     0.051 C 
HETATM    2  C   UNK N   1       5.581  -1.935  -1.146  0.00  0.00     0.020 C 
HETATM    3  C   UNK N   1       5.801  -2.222   1.363  0.00  0.00     0.020 C 
HETATM    4  C   UNK N   1       6.454  -3.167  -1.346  0.00  0.00     0.001 C 
HETATM    5  C   UNK N   1       6.665  -3.458   1.114  0.00  0.00     0.001 C 
HETATM    6  C   UNK N   1       6.249  -4.132  -0.187  0.00  0.00     0.000 C 
ENDROOT
BRANCH   1   7
HETATM    7  C   UNK N   1       7.155  -0.388   0.183  0.00  0.00     0.004 C 
HETATM    8  C   UNK N   1       7.180   0.683  -0.920  0.00  0.00     0.006 C 
HETATM    9  C   UNK N   1       8.403   1.579  -0.754  0.00  0.00     0.000 C 
HETATM   10  C   UNK N   1       9.678   0.745  -0.836  0.00  0.00     0.000 C 
HETATM   11  C   UNK N   1       9.666  -0.348   0.230  0.00  0.00     0.000 C 
HETATM   12  C   UNK N   1       8.431  -1.232   0.075  0.00  0.00     0.006 C 
ENDBRANCH   1   7
BRANCH   1  13
HETATM   13  C   UNK N   1       4.620  -0.318   0.389  0.00  0.00     0.268 C 
HETATM   14  O   UNK N   1       4.740   0.898   0.494  0.00  0.00    -0.264 OA
BRANCH  13  15
HETATM   15  O   UNK N   1       3.386  -0.879   0.375  0.00  0.00    -0.319 OA
BRANCH  15  16
HETATM   16  C   UNK N   1       2.350  -0.293  -0.310  0.00  0.00     0.209 C 
BRANCH  16  17
HETATM   17  C   UNK N   1       1.391   0.418   0.617  0.00  0.00     0.299 C 
BRANCH  17  18
HETATM   18  N   UNK N   1       1.153   1.745   0.077  0.00  0.00     0.089 N 
BRANCH  18  19
HETATM   19  C   UNK N   1      -0.200   2.138   0.435  0.00  0.00     0.268 C 
HETATM   20  C   UNK N   1      -0.706   3.192  -0.534  0.00  0.00     0.037 C 
ENDBRANCH  18  19
BRANCH  18  21
HETATM   21  C   UNK N   1       2.084   2.647   0.740  0.00  0.00     0.268 C 
HETATM   22  C   UNK N   1       2.619   3.658  -0.255  0.00  0.00     0.037 C 
ENDBRANCH  18  21
ENDBRANCH  17  18
ENDBRANCH  16  17
ENDBRANCH  15  16
ENDBRANCH  13  15
ENDBRANCH   1  13
TORSDOF 8
