MODEL 1
REMARK VINA RESULT:      -5.5      0.000      0.000
REMARK  8 active torsions:
REMARK  status: ('A' for Active; 'I' for Inactive)
REMARK    1  A    between atoms: O_1  and  C_16 
REMARK    2  A    between atoms: O_1  and  C_17 
REMARK    3  A    between atoms: N_3  and  C_18 
REMARK    4  A    between atoms: N_3  and  C_19 
REMARK    5  A    between atoms: N_3  and  C_20 
REMARK    6  A    between atoms: C_4  and  C_5 
REMARK    7  A    between atoms: C_4  and  C_16 
REMARK    8  A    between atoms: C_17  and  C_18 
ROOT
HETATM    1  C   UNK N   1      26.435  27.370  -5.178  0.00  0.00     0.051 C 
HETATM    2  C   UNK N   1      25.579  28.266  -4.254  0.00  0.00     0.020 C 
HETATM    3  C   UNK N   1      27.331  28.239  -6.086  0.00  0.00     0.020 C 
HETATM    4  C   UNK N   1      26.379  29.340  -3.529  0.00  0.00     0.001 C 
HETATM    5  C   UNK N   1      28.095  29.323  -5.327  0.00  0.00     0.001 C 
HETATM    6  C   UNK N   1      27.123  30.196  -4.544  0.00  0.00     0.000 C 
ENDROOT
BRANCH   1   7
HETATM    7  C   UNK N   1      27.278  26.333  -4.367  0.00  0.00     0.004 C 
HETATM    8  C   UNK N   1      28.575  25.926  -5.086  0.00  0.00     0.006 C 
HETATM    9  C   UNK N   1      29.443  25.079  -4.162  0.00  0.00     0.000 C 
HETATM   10  C   UNK N   1      28.688  23.822  -3.740  0.00  0.00     0.000 C 
HETATM   11  C   UNK N   1      27.379  24.197  -3.050  0.00  0.00     0.000 C 
HETATM   12  C   UNK N   1      26.519  25.062  -3.968  0.00  0.00     0.006 C 
ENDBRANCH   1   7
BRANCH   1  13
HETATM   13  C   UNK N   1      25.443  26.688  -6.094  0.00  0.00     0.268 C 
HETATM   14  O   UNK N   1      24.253  26.623  -5.805  0.00  0.00    -0.264 OA
BRANCH  13  15
HETATM   15  O   UNK N   1      25.881  26.202  -7.281  0.00  0.00    -0.319 OA
BRANCH  15  16
HETATM   16  C   UNK N   1      25.670  24.891  -7.631  0.00  0.00     0.209 C 
BRANCH  16  17
HETATM   17  C   UNK N   1      26.969  24.139  -7.811  0.00  0.00     0.299 C 
BRANCH  17  18
HETATM   18  N   UNK N   1      26.932  22.975  -6.943  0.00  0.00     0.089 N 
BRANCH  18  19
HETATM   19  C   UNK N   1      25.567  22.478  -6.919  0.00  0.00     0.268 C 
HETATM   20  C   UNK N   1      25.439  21.271  -7.832  0.00  0.00     0.037 C 
ENDBRANCH  18  19
BRANCH  18  21
HETATM   21  C   UNK N   1      27.779  21.962  -7.556  0.00  0.00     0.268 C 
HETATM   22  C   UNK N   1      29.052  21.797  -6.748  0.00  0.00     0.037 C 
ENDBRANCH  18  21
ENDBRANCH  17  18
ENDBRANCH  16  17
ENDBRANCH  15  16
ENDBRANCH  13  15
ENDBRANCH   1  13
TORSDOF 8
ENDMDL
MODEL 2
REMARK VINA RESULT:      -5.5      2.409      4.680
REMARK  8 active torsions:
REMARK  status: ('A' for Active; 'I' for Inactive)
REMARK    1  A    between atoms: O_1  and  C_16 
REMARK    2  A    between atoms: O_1  and  C_17 
REMARK    3  A    between atoms: N_3  and  C_18 
REMARK    4  A    between atoms: N_3  and  C_19 
REMARK    5  A    between atoms: N_3  and  C_20 
REMARK    6  A    between atoms: C_4  and  C_5 
REMARK    7  A    between atoms: C_4  and  C_16 
REMARK    8  A    between atoms: C_17  and  C_18 
ROOT
HETATM    1  C   UNK N   1      27.021  25.136  -4.941  0.00  0.00     0.051 C 
HETATM    2  C   UNK N   1      28.125  26.216  -5.020  0.00  0.00     0.020 C 
HETATM    3  C   UNK N   1      25.637  25.796  -4.772  0.00  0.00     0.020 C 
HETATM    4  C   UNK N   1      27.820  27.332  -6.011  0.00  0.00     0.001 C 
HETATM    5  C   UNK N   1      25.379  26.929  -5.764  0.00  0.00     0.001 C 
HETATM    6  C   UNK N   1      26.484  27.973  -5.663  0.00  0.00     0.000 C 
ENDROOT
BRANCH   1   7
HETATM    7  C   UNK N   1      27.053  24.180  -6.177  0.00  0.00     0.004 C 
HETATM    8  C   UNK N   1      25.865  23.204  -6.206  0.00  0.00     0.006 C 
HETATM    9  C   UNK N   1      25.841  22.445  -7.528  0.00  0.00     0.000 C 
HETATM   10  C   UNK N   1      27.138  21.661  -7.706  0.00  0.00     0.000 C 
HETATM   11  C   UNK N   1      28.338  22.603  -7.651  0.00  0.00     0.000 C 
HETATM   12  C   UNK N   1      28.350  23.377  -6.335  0.00  0.00     0.006 C 
ENDBRANCH   1   7
BRANCH   1  13
HETATM   13  C   UNK N   1      27.293  24.390  -3.653  0.00  0.00     0.268 C 
HETATM   14  O   UNK N   1      26.375  23.954  -2.966  0.00  0.00    -0.264 OA
BRANCH  13  15
HETATM   15  O   UNK N   1      28.579  24.149  -3.299  0.00  0.00    -0.319 OA
BRANCH  15  16
HETATM   16  C   UNK N   1      28.885  23.223  -2.333  0.00  0.00     0.209 C 
BRANCH  16  17
HETATM   17  C   UNK N   1      30.336  22.805  -2.391  0.00  0.00     0.299 C 
BRANCH  17  18
HETATM   18  N   UNK N   1      30.662  22.522  -3.778  0.00  0.00     0.089 N 
BRANCH  18  19
HETATM   19  C   UNK N   1      31.974  23.084  -4.053  0.00  0.00     0.268 C 
HETATM   20  C   UNK N   1      31.826  24.419  -4.761  0.00  0.00     0.037 C 
ENDBRANCH  18  19
BRANCH  18  21
HETATM   21  C   UNK N   1      30.746  21.074  -3.907  0.00  0.00     0.268 C 
HETATM   22  C   UNK N   1      30.703  20.684  -5.372  0.00  0.00     0.037 C 
ENDBRANCH  18  21
ENDBRANCH  17  18
ENDBRANCH  16  17
ENDBRANCH  15  16
ENDBRANCH  13  15
ENDBRANCH   1  13
TORSDOF 8
ENDMDL
MODEL 3
REMARK VINA RESULT:      -5.4     22.971     25.403
REMARK  8 active torsions:
REMARK  status: ('A' for Active; 'I' for Inactive)
REMARK    1  A    between atoms: O_1  and  C_16 
REMARK    2  A    between atoms: O_1  and  C_17 
REMARK    3  A    between atoms: N_3  and  C_18 
REMARK    4  A    between atoms: N_3  and  C_19 
REMARK    5  A    between atoms: N_3  and  C_20 
REMARK    6  A    between atoms: C_4  and  C_5 
REMARK    7  A    between atoms: C_4  and  C_16 
REMARK    8  A    between atoms: C_17  and  C_18 
ROOT
HETATM    1  C   UNK N   1      35.729  12.971  15.494  0.00  0.00     0.051 C 
HETATM    2  C   UNK N   1      34.799  13.159  16.715  0.00  0.00     0.020 C 
HETATM    3  C   UNK N   1      36.512  14.271  15.213  0.00  0.00     0.020 C 
HETATM    4  C   UNK N   1      35.495  13.766  17.927  0.00  0.00     0.001 C 
HETATM    5  C   UNK N   1      37.171  14.865  16.457  0.00  0.00     0.001 C 
HETATM    6  C   UNK N   1      36.127  15.096  17.541  0.00  0.00     0.000 C 
ENDROOT
BRANCH   1   7
HETATM    7  C   UNK N   1      36.691  11.752  15.676  0.00  0.00     0.004 C 
HETATM    8  C   UNK N   1      37.383  11.339  14.367  0.00  0.00     0.006 C 
HETATM    9  C   UNK N   1      38.451  10.287  14.647  0.00  0.00     0.000 C 
HETATM   10  C   UNK N   1      37.819   9.057  15.289  0.00  0.00     0.000 C 
HETATM   11  C   UNK N   1      37.097   9.443  16.578  0.00  0.00     0.000 C 
HETATM   12  C   UNK N   1      36.041  10.511  16.299  0.00  0.00     0.006 C 
ENDBRANCH   1   7
BRANCH   1  13
HETATM   13  C   UNK N   1      34.799  12.777  14.318  0.00  0.00     0.268 C 
HETATM   14  O   UNK N   1      33.936  11.905  14.327  0.00  0.00    -0.264 OA
BRANCH  13  15
HETATM   15  O   UNK N   1      34.889  13.631  13.268  0.00  0.00    -0.319 OA
BRANCH  15  16
HETATM   16  C   UNK N   1      35.088  13.165  11.992  0.00  0.00     0.209 C 
BRANCH  16  17
HETATM   17  C   UNK N   1      36.471  13.497  11.480  0.00  0.00     0.299 C 
BRANCH  17  18
HETATM   18  N   UNK N   1      36.322  14.404  10.355  0.00  0.00     0.089 N 
BRANCH  18  19
HETATM   19  C   UNK N   1      36.379  15.764  10.865  0.00  0.00     0.268 C 
HETATM   20  C   UNK N   1      35.192  16.559  10.352  0.00  0.00     0.037 C 
ENDBRANCH  18  19
BRANCH  18  21
HETATM   21  C   UNK N   1      37.468  14.192   9.483  0.00  0.00     0.268 C 
HETATM   22  C   UNK N   1      38.529  13.390  10.212  0.00  0.00     0.037 C 
ENDBRANCH  18  21
ENDBRANCH  17  18
ENDBRANCH  16  17
ENDBRANCH  15  16
ENDBRANCH  13  15
ENDBRANCH   1  13
TORSDOF 8
ENDMDL
MODEL 4
REMARK VINA RESULT:      -5.4      2.835      5.658
REMARK  8 active torsions:
REMARK  status: ('A' for Active; 'I' for Inactive)
REMARK    1  A    between atoms: O_1  and  C_16 
REMARK    2  A    between atoms: O_1  and  C_17 
REMARK    3  A    between atoms: N_3  and  C_18 
REMARK    4  A    between atoms: N_3  and  C_19 
REMARK    5  A    between atoms: N_3  and  C_20 
REMARK    6  A    between atoms: C_4  and  C_5 
REMARK    7  A    between atoms: C_4  and  C_16 
REMARK    8  A    between atoms: C_17  and  C_18 
ROOT
HETATM    1  C   UNK N   1      26.465  27.170  -4.944  0.00  0.00     0.051 C 
HETATM    2  C   UNK N   1      27.277  27.907  -6.033  0.00  0.00     0.020 C 
HETATM    3  C   UNK N   1      25.217  26.506  -5.564  0.00  0.00     0.020 C 
HETATM    4  C   UNK N   1      27.548  27.063  -7.272  0.00  0.00     0.001 C 
HETATM    5  C   UNK N   1      25.523  25.692  -6.821  0.00  0.00     0.001 C 
HETATM    6  C   UNK N   1      26.230  26.566  -7.849  0.00  0.00     0.000 C 
ENDROOT
BRANCH   1   7
HETATM    7  C   UNK N   1      27.338  26.132  -4.167  0.00  0.00     0.004 C 
HETATM    8  C   UNK N   1      28.673  25.833  -4.869  0.00  0.00     0.006 C 
HETATM    9  C   UNK N   1      29.560  24.979  -3.968  0.00  0.00     0.000 C 
HETATM   10  C   UNK N   1      28.860  23.664  -3.639  0.00  0.00     0.000 C 
HETATM   11  C   UNK N   1      27.516  23.932  -2.968  0.00  0.00     0.000 C 
HETATM   12  C   UNK N   1      26.636  24.803  -3.862  0.00  0.00     0.006 C 
ENDBRANCH   1   7
BRANCH   1  13
HETATM   13  C   UNK N   1      25.951  28.261  -4.030  0.00  0.00     0.268 C 
HETATM   14  O   UNK N   1      25.316  27.994  -3.016  0.00  0.00    -0.264 OA
BRANCH  13  15
HETATM   15  O   UNK N   1      26.264  29.549  -4.315  0.00  0.00    -0.319 OA
BRANCH  15  16
HETATM   16  C   UNK N   1      26.635  30.423  -3.323  0.00  0.00     0.209 C 
BRANCH  16  17
HETATM   17  C   UNK N   1      28.137  30.530  -3.198  0.00  0.00     0.299 C 
BRANCH  17  18
HETATM   18  N   UNK N   1      28.573  29.546  -2.222  0.00  0.00     0.089 N 
BRANCH  18  19
HETATM   19  C   UNK N   1      29.655  28.777  -2.813  0.00  0.00     0.268 C 
HETATM   20  C   UNK N   1      30.107  29.430  -4.107  0.00  0.00     0.037 C 
ENDBRANCH  18  19
BRANCH  18  21
HETATM   21  C   UNK N   1      29.101  30.283  -1.083  0.00  0.00     0.268 C 
HETATM   22  C   UNK N   1      28.339  29.907   0.173  0.00  0.00     0.037 C 
ENDBRANCH  18  21
ENDBRANCH  17  18
ENDBRANCH  16  17
ENDBRANCH  15  16
ENDBRANCH  13  15
ENDBRANCH   1  13
TORSDOF 8
ENDMDL
MODEL 5
REMARK VINA RESULT:      -5.3     13.259     16.019
REMARK  8 active torsions:
REMARK  status: ('A' for Active; 'I' for Inactive)
REMARK    1  A    between atoms: O_1  and  C_16 
REMARK    2  A    between atoms: O_1  and  C_17 
REMARK    3  A    between atoms: N_3  and  C_18 
REMARK    4  A    between atoms: N_3  and  C_19 
REMARK    5  A    between atoms: N_3  and  C_20 
REMARK    6  A    between atoms: C_4  and  C_5 
REMARK    7  A    between atoms: C_4  and  C_16 
REMARK    8  A    between atoms: C_17  and  C_18 
ROOT
HETATM    1  C   UNK N   1      31.842  17.262   7.927  0.00  0.00     0.051 C 
HETATM    2  C   UNK N   1      32.079  15.909   8.638  0.00  0.00     0.020 C 
HETATM    3  C   UNK N   1      32.955  18.264   8.298  0.00  0.00     0.020 C 
HETATM    4  C   UNK N   1      33.498  15.378   8.486  0.00  0.00     0.001 C 
HETATM    5  C   UNK N   1      34.363  17.686   8.162  0.00  0.00     0.001 C 
HETATM    6  C   UNK N   1      34.489  16.416   8.993  0.00  0.00     0.000 C 
ENDROOT
BRANCH   1   7
HETATM    7  C   UNK N   1      31.718  17.092   6.378  0.00  0.00     0.004 C 
HETATM    8  C   UNK N   1      31.295  15.672   5.966  0.00  0.00     0.006 C 
HETATM    9  C   UNK N   1      30.995  15.627   4.472  0.00  0.00     0.000 C 
HETATM   10  C   UNK N   1      32.232  16.033   3.676  0.00  0.00     0.000 C 
HETATM   11  C   UNK N   1      32.693  17.429   4.088  0.00  0.00     0.000 C 
HETATM   12  C   UNK N   1      32.974  17.479   5.588  0.00  0.00     0.006 C 
ENDBRANCH   1   7
BRANCH   1  13
HETATM   13  C   UNK N   1      30.566  17.805   8.532  0.00  0.00     0.268 C 
HETATM   14  O   UNK N   1      30.541  18.901   9.083  0.00  0.00    -0.264 OA
BRANCH  13  15
HETATM   15  O   UNK N   1      29.424  17.088   8.397  0.00  0.00    -0.319 OA
BRANCH  15  16
HETATM   16  C   UNK N   1      28.258  17.685   7.985  0.00  0.00     0.209 C 
BRANCH  16  17
HETATM   17  C   UNK N   1      28.105  17.648   6.482  0.00  0.00     0.299 C 
BRANCH  17  18
HETATM   18  N   UNK N   1      28.341  18.990   5.979  0.00  0.00     0.089 N 
BRANCH  18  19
HETATM   19  C   UNK N   1      27.800  19.065   4.632  0.00  0.00     0.268 C 
HETATM   20  C   UNK N   1      27.923  17.715   3.949  0.00  0.00     0.037 C 
ENDBRANCH  18  19
BRANCH  18  21
HETATM   21  C   UNK N   1      27.587  19.901   6.829  0.00  0.00     0.268 C 
HETATM   22  C   UNK N   1      27.408  21.232   6.126  0.00  0.00     0.037 C 
ENDBRANCH  18  21
ENDBRANCH  17  18
ENDBRANCH  16  17
ENDBRANCH  15  16
ENDBRANCH  13  15
ENDBRANCH   1  13
TORSDOF 8
ENDMDL
MODEL 6
REMARK VINA RESULT:      -5.2     13.320     16.035
REMARK  8 active torsions:
REMARK  status: ('A' for Active; 'I' for Inactive)
REMARK    1  A    between atoms: O_1  and  C_16 
REMARK    2  A    between atoms: O_1  and  C_17 
REMARK    3  A    between atoms: N_3  and  C_18 
REMARK    4  A    between atoms: N_3  and  C_19 
REMARK    5  A    between atoms: N_3  and  C_20 
REMARK    6  A    between atoms: C_4  and  C_5 
REMARK    7  A    between atoms: C_4  and  C_16 
REMARK    8  A    between atoms: C_17  and  C_18 
ROOT
HETATM    1  C   UNK N   1      31.961  16.873   8.000  0.00  0.00     0.051 C 
HETATM    2  C   UNK N   1      32.510  15.830   9.001  0.00  0.00     0.020 C 
HETATM    3  C   UNK N   1      32.773  18.182   8.091  0.00  0.00     0.020 C 
HETATM    4  C   UNK N   1      34.022  15.654   8.934  0.00  0.00     0.001 C 
HETATM    5  C   UNK N   1      34.286  17.963   8.050  0.00  0.00     0.001 C 
HETATM    6  C   UNK N   1      34.703  16.997   9.152  0.00  0.00     0.000 C 
ENDROOT
BRANCH   1   7
HETATM    7  C   UNK N   1      31.930  16.319   6.539  0.00  0.00     0.004 C 
HETATM    8  C   UNK N   1      31.890  17.434   5.480  0.00  0.00     0.006 C 
HETATM    9  C   UNK N   1      32.067  16.840   4.087  0.00  0.00     0.000 C 
HETATM   10  C   UNK N   1      30.954  15.837   3.800  0.00  0.00     0.000 C 
HETATM   11  C   UNK N   1      30.951  14.734   4.855  0.00  0.00     0.000 C 
HETATM   12  C   UNK N   1      30.794  15.330   6.252  0.00  0.00     0.006 C 
ENDBRANCH   1   7
BRANCH   1  13
HETATM   13  C   UNK N   1      30.572  17.204   8.500  0.00  0.00     0.268 C 
HETATM   14  O   UNK N   1      30.083  16.612   9.457  0.00  0.00    -0.264 OA
BRANCH  13  15
HETATM   15  O   UNK N   1      29.894  18.221   7.913  0.00  0.00    -0.319 OA
BRANCH  15  16
HETATM   16  C   UNK N   1      28.560  18.099   7.609  0.00  0.00     0.209 C 
BRANCH  16  17
HETATM   17  C   UNK N   1      27.966  19.409   7.145  0.00  0.00     0.299 C 
BRANCH  17  18
HETATM   18  N   UNK N   1      27.279  19.164   5.889  0.00  0.00     0.089 N 
BRANCH  18  19
HETATM   19  C   UNK N   1      26.542  20.368   5.540  0.00  0.00     0.268 C 
HETATM   20  C   UNK N   1      27.085  21.552   6.320  0.00  0.00     0.037 C 
ENDBRANCH  18  19
BRANCH  18  21
HETATM   21  C   UNK N   1      28.305  18.945   4.879  0.00  0.00     0.268 C 
HETATM   22  C   UNK N   1      27.878  17.832   3.943  0.00  0.00     0.037 C 
ENDBRANCH  18  21
ENDBRANCH  17  18
ENDBRANCH  16  17
ENDBRANCH  15  16
ENDBRANCH  13  15
ENDBRANCH   1  13
TORSDOF 8
ENDMDL
MODEL 7
REMARK VINA RESULT:      -5.2     27.153     29.688
REMARK  8 active torsions:
REMARK  status: ('A' for Active; 'I' for Inactive)
REMARK    1  A    between atoms: O_1  and  C_16 
REMARK    2  A    between atoms: O_1  and  C_17 
REMARK    3  A    between atoms: N_3  and  C_18 
REMARK    4  A    between atoms: N_3  and  C_19 
REMARK    5  A    between atoms: N_3  and  C_20 
REMARK    6  A    between atoms: C_4  and  C_5 
REMARK    7  A    between atoms: C_4  and  C_16 
REMARK    8  A    between atoms: C_17  and  C_18 
ROOT
HETATM    1  C   UNK N   1      35.811  10.441  19.819  0.00  0.00     0.051 C 
HETATM    2  C   UNK N   1      36.770  10.778  20.983  0.00  0.00     0.020 C 
HETATM    3  C   UNK N   1      36.560   9.667  18.715  0.00  0.00     0.020 C 
HETATM    4  C   UNK N   1      37.581   9.585  21.473  0.00  0.00     0.001 C 
HETATM    5  C   UNK N   1      37.386   8.496  19.247  0.00  0.00     0.001 C 
HETATM    6  C   UNK N   1      38.360   8.985  20.311  0.00  0.00     0.000 C 
ENDROOT
BRANCH   1   7
HETATM    7  C   UNK N   1      34.549   9.660  20.310  0.00  0.00     0.004 C 
HETATM    8  C   UNK N   1      33.735   9.057  19.154  0.00  0.00     0.006 C 
HETATM    9  C   UNK N   1      32.643   8.143  19.701  0.00  0.00     0.000 C 
HETATM   10  C   UNK N   1      31.709   8.933  20.614  0.00  0.00     0.000 C 
HETATM   11  C   UNK N   1      32.497   9.570  21.756  0.00  0.00     0.000 C 
HETATM   12  C   UNK N   1      33.603  10.468  21.206  0.00  0.00     0.006 C 
ENDBRANCH   1   7
BRANCH   1  13
HETATM   13  C   UNK N   1      35.438  11.779  19.217  0.00  0.00     0.268 C 
HETATM   14  O   UNK N   1      35.508  12.812  19.874  0.00  0.00    -0.264 OA
BRANCH  13  15
HETATM   15  O   UNK N   1      35.087  11.829  17.909  0.00  0.00    -0.319 OA
BRANCH  15  16
HETATM   16  C   UNK N   1      35.335  12.947  17.152  0.00  0.00     0.209 C 
BRANCH  16  17
HETATM   17  C   UNK N   1      34.493  12.978  15.897  0.00  0.00     0.299 C 
BRANCH  17  18
HETATM   18  N   UNK N   1      35.324  12.527  14.794  0.00  0.00     0.089 N 
BRANCH  18  19
HETATM   19  C   UNK N   1      34.487  11.755  13.890  0.00  0.00     0.268 C 
HETATM   20  C   UNK N   1      33.681  10.736  14.674  0.00  0.00     0.037 C 
ENDBRANCH  18  19
BRANCH  18  21
HETATM   21  C   UNK N   1      35.782  13.718  14.093  0.00  0.00     0.268 C 
HETATM   22  C   UNK N   1      36.563  13.319  12.856  0.00  0.00     0.037 C 
ENDBRANCH  18  21
ENDBRANCH  17  18
ENDBRANCH  16  17
ENDBRANCH  15  16
ENDBRANCH  13  15
ENDBRANCH   1  13
TORSDOF 8
ENDMDL
MODEL 8
REMARK VINA RESULT:      -5.1     15.637     18.268
REMARK  8 active torsions:
REMARK  status: ('A' for Active; 'I' for Inactive)
REMARK    1  A    between atoms: O_1  and  C_16 
REMARK    2  A    between atoms: O_1  and  C_17 
REMARK    3  A    between atoms: N_3  and  C_18 
REMARK    4  A    between atoms: N_3  and  C_19 
REMARK    5  A    between atoms: N_3  and  C_20 
REMARK    6  A    between atoms: C_4  and  C_5 
REMARK    7  A    between atoms: C_4  and  C_16 
REMARK    8  A    between atoms: C_17  and  C_18 
ROOT
HETATM    1  C   UNK N   1      32.061  16.316   6.362  0.00  0.00     0.051 C 
HETATM    2  C   UNK N   1      31.458  15.477   5.211  0.00  0.00     0.020 C 
HETATM    3  C   UNK N   1      33.281  17.115   5.860  0.00  0.00     0.020 C 
HETATM    4  C   UNK N   1      31.224  16.271   3.932  0.00  0.00     0.001 C 
HETATM    5  C   UNK N   1      33.017  17.875   4.560  0.00  0.00     0.001 C 
HETATM    6  C   UNK N   1      32.529  16.914   3.484  0.00  0.00     0.000 C 
ENDROOT
BRANCH   1   7
HETATM    7  C   UNK N   1      30.995  17.251   7.021  0.00  0.00     0.004 C 
HETATM    8  C   UNK N   1      31.338  17.612   8.476  0.00  0.00     0.006 C 
HETATM    9  C   UNK N   1      30.380  18.680   8.992  0.00  0.00     0.000 C 
HETATM   10  C   UNK N   1      28.943  18.169   8.927  0.00  0.00     0.000 C 
HETATM   11  C   UNK N   1      28.585  17.773   7.497  0.00  0.00     0.000 C 
HETATM   12  C   UNK N   1      29.558  16.719   6.974  0.00  0.00     0.006 C 
ENDBRANCH   1   7
BRANCH   1  13
HETATM   13  C   UNK N   1      32.597  15.302   7.348  0.00  0.00     0.268 C 
HETATM   14  O   UNK N   1      31.935  14.323   7.677  0.00  0.00    -0.264 OA
BRANCH  13  15
HETATM   15  O   UNK N   1      33.861  15.454   7.816  0.00  0.00    -0.319 OA
BRANCH  15  16
HETATM   16  C   UNK N   1      34.120  15.453   9.164  0.00  0.00     0.209 C 
BRANCH  16  17
HETATM   17  C   UNK N   1      35.123  14.388   9.545  0.00  0.00     0.299 C 
BRANCH  17  18
HETATM   18  N   UNK N   1      36.289  15.054  10.098  0.00  0.00     0.089 N 
BRANCH  18  19
HETATM   19  C   UNK N   1      35.884  15.724  11.323  0.00  0.00     0.268 C 
HETATM   20  C   UNK N   1      35.940  14.751  12.487  0.00  0.00     0.037 C 
ENDBRANCH  18  19
BRANCH  18  21
HETATM   21  C   UNK N   1      37.250  14.015  10.439  0.00  0.00     0.268 C 
HETATM   22  C   UNK N   1      38.437  14.080   9.497  0.00  0.00     0.037 C 
ENDBRANCH  18  21
ENDBRANCH  17  18
ENDBRANCH  16  17
ENDBRANCH  15  16
ENDBRANCH  13  15
ENDBRANCH   1  13
TORSDOF 8
ENDMDL
MODEL 9
REMARK VINA RESULT:      -5.1     12.409     14.983
REMARK  8 active torsions:
REMARK  status: ('A' for Active; 'I' for Inactive)
REMARK    1  A    between atoms: O_1  and  C_16 
REMARK    2  A    between atoms: O_1  and  C_17 
REMARK    3  A    between atoms: N_3  and  C_18 
REMARK    4  A    between atoms: N_3  and  C_19 
REMARK    5  A    between atoms: N_3  and  C_20 
REMARK    6  A    between atoms: C_4  and  C_5 
REMARK    7  A    between atoms: C_4  and  C_16 
REMARK    8  A    between atoms: C_17  and  C_18 
ROOT
HETATM    1  C   UNK N   1      27.719  18.370   5.179  0.00  0.00     0.051 C 
HETATM    2  C   UNK N   1      27.343  19.312   4.013  0.00  0.00     0.020 C 
HETATM    3  C   UNK N   1      28.143  19.191   6.415  0.00  0.00     0.020 C 
HETATM    4  C   UNK N   1      26.378  20.422   4.408  0.00  0.00     0.001 C 
HETATM    5  C   UNK N   1      27.166  20.313   6.764  0.00  0.00     0.001 C 
HETATM    6  C   UNK N   1      26.967  21.224   5.560  0.00  0.00     0.000 C 
ENDROOT
BRANCH   1   7
HETATM    7  C   UNK N   1      26.562  17.376   5.522  0.00  0.00     0.004 C 
HETATM    8  C   UNK N   1      27.037  16.172   6.351  0.00  0.00     0.006 C 
HETATM    9  C   UNK N   1      25.839  15.354   6.824  0.00  0.00     0.000 C 
HETATM   10  C   UNK N   1      25.042  14.853   5.623  0.00  0.00     0.000 C 
HETATM   11  C   UNK N   1      24.582  16.028   4.764  0.00  0.00     0.000 C 
HETATM   12  C   UNK N   1      25.781  16.857   4.309  0.00  0.00     0.006 C 
ENDBRANCH   1   7
BRANCH   1  13
HETATM   13  C   UNK N   1      28.959  17.641   4.712  0.00  0.00     0.268 C 
HETATM   14  O   UNK N   1      29.005  17.109   3.608  0.00  0.00    -0.264 OA
BRANCH  13  15
HETATM   15  O   UNK N   1      30.054  17.640   5.511  0.00  0.00    -0.319 OA
BRANCH  15  16
HETATM   16  C   UNK N   1      30.803  16.502   5.685  0.00  0.00     0.209 C 
BRANCH  16  17
HETATM   17  C   UNK N   1      31.056  16.212   7.146  0.00  0.00     0.299 C 
BRANCH  17  18
HETATM   18  N   UNK N   1      30.994  17.471   7.867  0.00  0.00     0.089 N 
BRANCH  18  19
HETATM   19  C   UNK N   1      30.190  17.264   9.061  0.00  0.00     0.268 C 
HETATM   20  C   UNK N   1      29.764  18.604   9.636  0.00  0.00     0.037 C 
ENDBRANCH  18  19
BRANCH  18  21
HETATM   21  C   UNK N   1      32.352  17.794   8.278  0.00  0.00     0.268 C 
HETATM   22  C   UNK N   1      33.082  16.528   8.684  0.00  0.00     0.037 C 
ENDBRANCH  18  21
ENDBRANCH  17  18
ENDBRANCH  16  17
ENDBRANCH  15  16
ENDBRANCH  13  15
ENDBRANCH   1  13
TORSDOF 8
ENDMDL
