MODEL 1
REMARK VINA RESULT:      -7.4      0.000      0.000
REMARK  5 active torsions:
REMARK  status: ('A' for Active; 'I' for Inactive)
REMARK    1  A    between atoms: N_2  and  C_10 
REMARK    2  A    between atoms: N_3  and  C_13 
REMARK    3  A    between atoms: N_3  and  C_14 
REMARK    4  A    between atoms: C_10  and  C_13 
REMARK    5  A    between atoms: C_17  and  C_19 
ROOT
HETATM    1  N   UNK N   1      36.770  15.064  13.802  0.00  0.00    -0.285 N 
ATOM      2  HN  UNK N   1      37.309  15.927  13.740  1.00  0.00     0.188 HD
HETATM    3  N   UNK N   1      36.618  14.474  14.991  0.00  0.00    -0.298 N 
ATOM      4  HN  UNK N   1      37.056  14.891  15.813  1.00  0.00     0.187 HD
HETATM    5  C   UNK N   1      36.222  14.540  12.672  0.00  0.00     0.121 A 
HETATM    6  C   UNK N   1      35.499  13.345  12.752  0.00  0.00    -0.015 A 
HETATM    7  C   UNK N   1      35.325  12.743  13.997  0.00  0.00     0.042 A 
HETATM    8  C   UNK N   1      35.894  13.332  15.132  0.00  0.00     0.059 A 
HETATM    9  C   UNK N   1      34.861  12.741  11.548  0.00  0.00     0.052 C 
ENDROOT
BRANCH   5  10
HETATM   10  N   UNK N   1      36.336  15.236  11.442  0.00  0.00    -0.373 N 
HETATM   11  H   UNK N   1      37.155  15.149  10.902  0.00  0.00     0.161 HD
BRANCH  10  12
HETATM   12  C   UNK N   1      35.257  16.074  10.981  0.00  0.00     0.151 C 
BRANCH  12  13
HETATM   13  C   UNK N   1      35.255  16.241   9.467  0.00  0.00     0.292 C 
BRANCH  13  14
HETATM   14  N   UNK N   1      33.968  15.940   8.831  0.00  0.00     0.094 N 
HETATM   15  C   UNK N   1      33.147  17.159   8.900  0.00  0.00     0.298 C 
HETATM   16  C   UNK N   1      33.544  18.204   7.830  0.00  0.00     0.198 C 
HETATM   17  O   UNK N   1      34.628  17.767   7.047  0.00  0.00    -0.388 OA
HETATM   18  C   UNK N   1      34.191  16.595   6.416  0.00  0.00     0.198 C 
HETATM   19  C   UNK N   1      34.114  15.457   7.441  0.00  0.00     0.298 C 
ENDBRANCH  13  14
ENDBRANCH  12  13
ENDBRANCH  10  12
ENDBRANCH   5  10
BRANCH   8  20
HETATM   20  C   UNK N   1      35.651  12.781  16.482  0.00  0.00    -0.008 A 
HETATM   21  C   UNK N   1      35.302  13.623  17.550  0.00  0.00     0.014 A 
HETATM   22  C   UNK N   1      35.142  13.100  18.837  0.00  0.00     0.001 A 
HETATM   23  C   UNK N   1      35.330  11.733  19.066  0.00  0.00     0.000 A 
HETATM   24  C   UNK N   1      35.672  10.888  18.007  0.00  0.00     0.001 A 
HETATM   25  C   UNK N   1      35.838  11.411  16.722  0.00  0.00     0.014 A 
ENDBRANCH   8  20
TORSDOF 5
ENDMDL
MODEL 2
REMARK VINA RESULT:      -7.3      0.215      1.054
REMARK  5 active torsions:
REMARK  status: ('A' for Active; 'I' for Inactive)
REMARK    1  A    between atoms: N_2  and  C_10 
REMARK    2  A    between atoms: N_3  and  C_13 
REMARK    3  A    between atoms: N_3  and  C_14 
REMARK    4  A    between atoms: C_10  and  C_13 
REMARK    5  A    between atoms: C_17  and  C_19 
ROOT
HETATM    1  N   UNK N   1      36.795  14.931  13.563  0.00  0.00    -0.285 N 
ATOM      2  HN  UNK N   1      37.301  15.810  13.459  1.00  0.00     0.188 HD
HETATM    3  N   UNK N   1      36.682  14.383  14.776  0.00  0.00    -0.298 N 
ATOM      4  HN  UNK N   1      37.115  14.849  15.574  1.00  0.00     0.187 HD
HETATM    5  C   UNK N   1      36.251  14.343  12.463  0.00  0.00     0.121 A 
HETATM    6  C   UNK N   1      35.574  13.126  12.601  0.00  0.00    -0.015 A 
HETATM    7  C   UNK N   1      35.441  12.568  13.870  0.00  0.00     0.042 A 
HETATM    8  C   UNK N   1      36.003  13.222  14.973  0.00  0.00     0.059 A 
HETATM    9  C   UNK N   1      34.943  12.451  11.431  0.00  0.00     0.052 C 
ENDROOT
BRANCH   5  10
HETATM   10  N   UNK N   1      36.322  14.993  11.205  0.00  0.00    -0.373 N 
HETATM   11  H   UNK N   1      37.081  14.817  10.603  0.00  0.00     0.161 HD
BRANCH  10  12
HETATM   12  C   UNK N   1      35.287  15.915  10.807  0.00  0.00     0.151 C 
BRANCH  12  13
HETATM   13  C   UNK N   1      35.255  16.139   9.300  0.00  0.00     0.292 C 
BRANCH  13  14
HETATM   14  N   UNK N   1      33.941  15.915   8.688  0.00  0.00     0.094 N 
HETATM   15  C   UNK N   1      33.151  17.142   8.880  0.00  0.00     0.298 C 
HETATM   16  C   UNK N   1      33.536  18.259   7.882  0.00  0.00     0.198 C 
HETATM   17  O   UNK N   1      34.583  17.863   7.030  0.00  0.00    -0.388 OA
HETATM   18  C   UNK N   1      34.099  16.754   6.325  0.00  0.00     0.198 C 
HETATM   19  C   UNK N   1      34.029  15.540   7.260  0.00  0.00     0.298 C 
ENDBRANCH  13  14
ENDBRANCH  12  13
ENDBRANCH  10  12
ENDBRANCH   5  10
BRANCH   8  20
HETATM   20  C   UNK N   1      35.800  12.717  16.347  0.00  0.00    -0.008 A 
HETATM   21  C   UNK N   1      35.941  11.351  16.640  0.00  0.00     0.014 A 
HETATM   22  C   UNK N   1      35.679  10.875  17.929  0.00  0.00     0.001 A 
HETATM   23  C   UNK N   1      35.275  11.760  18.933  0.00  0.00     0.000 A 
HETATM   24  C   UNK N   1      35.138  13.122  18.652  0.00  0.00     0.001 A 
HETATM   25  C   UNK N   1      35.393  13.597  17.362  0.00  0.00     0.014 A 
ENDBRANCH   8  20
TORSDOF 5
ENDMDL
MODEL 3
REMARK VINA RESULT:      -6.9      2.727      8.803
REMARK  5 active torsions:
REMARK  status: ('A' for Active; 'I' for Inactive)
REMARK    1  A    between atoms: N_2  and  C_10 
REMARK    2  A    between atoms: N_3  and  C_13 
REMARK    3  A    between atoms: N_3  and  C_14 
REMARK    4  A    between atoms: C_10  and  C_13 
REMARK    5  A    between atoms: C_17  and  C_19 
ROOT
HETATM    1  N   UNK N   1      34.691  16.782  10.412  0.00  0.00    -0.285 N 
ATOM      2  HN  UNK N   1      34.586  17.347  11.254  1.00  0.00     0.188 HD
HETATM    3  N   UNK N   1      33.892  17.015   9.367  0.00  0.00    -0.298 N 
ATOM      4  HN  UNK N   1      33.182  17.745   9.436  1.00  0.00     0.187 HD
HETATM    5  C   UNK N   1      35.642  15.810  10.378  0.00  0.00     0.121 A 
HETATM    6  C   UNK N   1      35.774  15.020   9.230  0.00  0.00    -0.015 A 
HETATM    7  C   UNK N   1      34.952  15.279   8.135  0.00  0.00     0.042 A 
HETATM    8  C   UNK N   1      34.002  16.303   8.214  0.00  0.00     0.059 A 
HETATM    9  C   UNK N   1      36.812  13.956   9.135  0.00  0.00     0.052 C 
ENDROOT
BRANCH   5  10
HETATM   10  N   UNK N   1      36.524  15.645  11.475  0.00  0.00    -0.373 N 
HETATM   11  H   UNK N   1      37.479  15.864  11.375  0.00  0.00     0.161 HD
BRANCH  10  12
HETATM   12  C   UNK N   1      36.028  15.155  12.737  0.00  0.00     0.151 C 
BRANCH  12  13
HETATM   13  C   UNK N   1      35.259  13.847  12.592  0.00  0.00     0.292 C 
BRANCH  13  14
HETATM   14  N   UNK N   1      35.952  12.679  13.147  0.00  0.00     0.094 N 
HETATM   15  C   UNK N   1      36.501  13.073  14.454  0.00  0.00     0.298 C 
HETATM   16  C   UNK N   1      35.428  13.089  15.568  0.00  0.00     0.198 C 
HETATM   17  O   UNK N   1      34.154  12.755  15.074  0.00  0.00    -0.388 OA
HETATM   18  C   UNK N   1      34.275  11.456  14.562  0.00  0.00     0.198 C 
HETATM   19  C   UNK N   1      35.078  11.491  13.256  0.00  0.00     0.298 C 
ENDBRANCH  13  14
ENDBRANCH  12  13
ENDBRANCH  10  12
ENDBRANCH   5  10
BRANCH   8  20
HETATM   20  C   UNK N   1      33.180  16.676   7.043  0.00  0.00    -0.008 A 
HETATM   21  C   UNK N   1      33.781  17.109   5.850  0.00  0.00     0.014 A 
HETATM   22  C   UNK N   1      32.991  17.524   4.773  0.00  0.00     0.001 A 
HETATM   23  C   UNK N   1      31.598  17.509   4.880  0.00  0.00     0.000 A 
HETATM   24  C   UNK N   1      30.991  17.073   6.061  0.00  0.00     0.001 A 
HETATM   25  C   UNK N   1      31.780  16.665   7.140  0.00  0.00     0.014 A 
ENDBRANCH   8  20
TORSDOF 5
ENDMDL
MODEL 4
REMARK VINA RESULT:      -6.9      1.897      2.538
REMARK  5 active torsions:
REMARK  status: ('A' for Active; 'I' for Inactive)
REMARK    1  A    between atoms: N_2  and  C_10 
REMARK    2  A    between atoms: N_3  and  C_13 
REMARK    3  A    between atoms: N_3  and  C_14 
REMARK    4  A    between atoms: C_10  and  C_13 
REMARK    5  A    between atoms: C_17  and  C_19 
ROOT
HETATM    1  N   UNK N   1      35.260  13.373  13.298  0.00  0.00    -0.285 N 
ATOM      2  HN  UNK N   1      35.531  14.221  12.800  1.00  0.00     0.188 HD
HETATM    3  N   UNK N   1      35.405  13.322  14.624  0.00  0.00    -0.298 N 
ATOM      4  HN  UNK N   1      35.796  14.127  15.114  1.00  0.00     0.187 HD
HETATM    5  C   UNK N   1      34.761  12.321  12.595  0.00  0.00     0.121 A 
HETATM    6  C   UNK N   1      34.408  11.149  13.274  0.00  0.00    -0.015 A 
HETATM    7  C   UNK N   1      34.541  11.107  14.660  0.00  0.00     0.042 A 
HETATM    8  C   UNK N   1      35.043  12.223  15.338  0.00  0.00     0.059 A 
HETATM    9  C   UNK N   1      33.837   9.976  12.554  0.00  0.00     0.052 C 
ENDROOT
BRANCH   5  10
HETATM   10  N   UNK N   1      34.546  12.441  11.198  0.00  0.00    -0.373 N 
HETATM   11  H   UNK N   1      33.631  12.405  10.837  0.00  0.00     0.161 HD
BRANCH  10  12
HETATM   12  C   UNK N   1      35.666  12.611  10.306  0.00  0.00     0.151 C 
BRANCH  12  13
HETATM   13  C   UNK N   1      35.286  13.351   9.029  0.00  0.00     0.292 C 
BRANCH  13  14
HETATM   14  N   UNK N   1      35.911  14.670   8.891  0.00  0.00     0.094 N 
HETATM   15  C   UNK N   1      34.953  15.539   8.189  0.00  0.00     0.298 C 
HETATM   16  C   UNK N   1      33.831  16.059   9.119  0.00  0.00     0.198 C 
HETATM   17  O   UNK N   1      33.958  15.556  10.426  0.00  0.00    -0.388 OA
HETATM   18  C   UNK N   1      35.199  16.014  10.889  0.00  0.00     0.198 C 
HETATM   19  C   UNK N   1      36.326  15.248  10.187  0.00  0.00     0.298 C 
ENDBRANCH  13  14
ENDBRANCH  12  13
ENDBRANCH  10  12
ENDBRANCH   5  10
BRANCH   8  20
HETATM   20  C   UNK N   1      35.108  12.256  16.814  0.00  0.00    -0.008 A 
HETATM   21  C   UNK N   1      35.064  13.475  17.510  0.00  0.00     0.014 A 
HETATM   22  C   UNK N   1      35.196  13.498  18.902  0.00  0.00     0.001 A 
HETATM   23  C   UNK N   1      35.370  12.304  19.609  0.00  0.00     0.000 A 
HETATM   24  C   UNK N   1      35.408  11.086  18.925  0.00  0.00     0.001 A 
HETATM   25  C   UNK N   1      35.284  11.063  17.533  0.00  0.00     0.014 A 
ENDBRANCH   8  20
TORSDOF 5
ENDMDL
MODEL 5
REMARK VINA RESULT:      -6.6      9.872     13.702
REMARK  5 active torsions:
REMARK  status: ('A' for Active; 'I' for Inactive)
REMARK    1  A    between atoms: N_2  and  C_10 
REMARK    2  A    between atoms: N_3  and  C_13 
REMARK    3  A    between atoms: N_3  and  C_14 
REMARK    4  A    between atoms: C_10  and  C_13 
REMARK    5  A    between atoms: C_17  and  C_19 
ROOT
HETATM    1  N   UNK N   1      25.670  16.975   5.653  0.00  0.00    -0.285 N 
ATOM      2  HN  UNK N   1      24.989  16.225   5.772  1.00  0.00     0.188 HD
HETATM    3  N   UNK N   1      26.724  17.034   6.471  0.00  0.00    -0.298 N 
ATOM      4  HN  UNK N   1      26.823  16.335   7.207  1.00  0.00     0.187 HD
HETATM    5  C   UNK N   1      25.482  17.892   4.666  0.00  0.00     0.121 A 
HETATM    6  C   UNK N   1      26.404  18.934   4.514  0.00  0.00    -0.015 A 
HETATM    7  C   UNK N   1      27.513  18.981   5.356  0.00  0.00     0.042 A 
HETATM    8  C   UNK N   1      27.670  18.003   6.344  0.00  0.00     0.059 A 
HETATM    9  C   UNK N   1      26.256  19.952   3.436  0.00  0.00     0.052 C 
ENDROOT
BRANCH   5  10
HETATM   10  N   UNK N   1      24.395  17.751   3.767  0.00  0.00    -0.373 N 
HETATM   11  H   UNK N   1      24.559  17.482   2.834  0.00  0.00     0.161 HD
BRANCH  10  12
HETATM   12  C   UNK N   1      23.047  18.004   4.215  0.00  0.00     0.151 C 
BRANCH  12  13
HETATM   13  C   UNK N   1      22.493  19.318   3.679  0.00  0.00     0.292 C 
BRANCH  13  14
HETATM   14  N   UNK N   1      21.037  19.450   3.802  0.00  0.00     0.094 N 
HETATM   15  C   UNK N   1      20.641  20.659   3.062  0.00  0.00     0.298 C 
HETATM   16  C   UNK N   1      20.590  20.429   1.532  0.00  0.00     0.198 C 
HETATM   17  O   UNK N   1      20.968  19.119   1.187  0.00  0.00    -0.388 OA
HETATM   18  C   UNK N   1      20.041  18.278   1.816  0.00  0.00     0.198 C 
HETATM   19  C   UNK N   1      20.310  18.254   3.326  0.00  0.00     0.298 C 
ENDBRANCH  13  14
ENDBRANCH  12  13
ENDBRANCH  10  12
ENDBRANCH   5  10
BRANCH   8  20
HETATM   20  C   UNK N   1      28.881  17.958   7.191  0.00  0.00    -0.008 A 
HETATM   21  C   UNK N   1      28.933  18.654   8.409  0.00  0.00     0.014 A 
HETATM   22  C   UNK N   1      30.107  18.661   9.168  0.00  0.00     0.001 A 
HETATM   23  C   UNK N   1      31.237  17.973   8.716  0.00  0.00     0.000 A 
HETATM   24  C   UNK N   1      31.192  17.273   7.508  0.00  0.00     0.001 A 
HETATM   25  C   UNK N   1      30.021  17.271   6.745  0.00  0.00     0.014 A 
ENDBRANCH   8  20
TORSDOF 5
ENDMDL
MODEL 6
REMARK VINA RESULT:      -6.6      1.737      2.919
REMARK  5 active torsions:
REMARK  status: ('A' for Active; 'I' for Inactive)
REMARK    1  A    between atoms: N_2  and  C_10 
REMARK    2  A    between atoms: N_3  and  C_13 
REMARK    3  A    between atoms: N_3  and  C_14 
REMARK    4  A    between atoms: C_10  and  C_13 
REMARK    5  A    between atoms: C_17  and  C_19 
ROOT
HETATM    1  N   UNK N   1      35.606  12.567  14.014  0.00  0.00    -0.285 N 
ATOM      2  HN  UNK N   1      35.375  12.246  13.075  1.00  0.00     0.188 HD
HETATM    3  N   UNK N   1      35.244  11.824  15.064  0.00  0.00    -0.298 N 
ATOM      4  HN  UNK N   1      34.732  10.956  14.907  1.00  0.00     0.187 HD
HETATM    5  C   UNK N   1      36.276  13.740  14.169  0.00  0.00     0.121 A 
HETATM    6  C   UNK N   1      36.576  14.193  15.459  0.00  0.00    -0.015 A 
HETATM    7  C   UNK N   1      36.215  13.406  16.551  0.00  0.00     0.042 A 
HETATM    8  C   UNK N   1      35.544  12.197  16.337  0.00  0.00     0.059 A 
HETATM    9  C   UNK N   1      37.326  15.461  15.683  0.00  0.00     0.052 C 
ENDROOT
BRANCH   5  10
HETATM   10  N   UNK N   1      36.714  14.461  13.029  0.00  0.00    -0.373 N 
HETATM   11  H   UNK N   1      37.459  15.100  13.108  0.00  0.00     0.161 HD
BRANCH  10  12
HETATM   12  C   UNK N   1      36.069  14.262  11.755  0.00  0.00     0.151 C 
BRANCH  12  13
HETATM   13  C   UNK N   1      35.285  15.488  11.301  0.00  0.00     0.292 C 
BRANCH  13  14
HETATM   14  N   UNK N   1      35.578  15.913   9.929  0.00  0.00     0.094 N 
HETATM   15  C   UNK N   1      35.472  14.725   9.067  0.00  0.00     0.298 C 
HETATM   16  C   UNK N   1      34.005  14.354   8.744  0.00  0.00     0.198 C 
HETATM   17  O   UNK N   1      33.095  15.220   9.376  0.00  0.00    -0.388 OA
HETATM   18  C   UNK N   1      33.375  16.497   8.873  0.00  0.00     0.198 C 
HETATM   19  C   UNK N   1      34.695  17.005   9.465  0.00  0.00     0.298 C 
ENDBRANCH  13  14
ENDBRANCH  12  13
ENDBRANCH  10  12
ENDBRANCH   5  10
BRANCH   8  20
HETATM   20  C   UNK N   1      35.231  11.287  17.459  0.00  0.00    -0.008 A 
HETATM   21  C   UNK N   1      34.737   9.994  17.221  0.00  0.00     0.014 A 
HETATM   22  C   UNK N   1      34.380   9.168  18.290  0.00  0.00     0.001 A 
HETATM   23  C   UNK N   1      34.515   9.625  19.604  0.00  0.00     0.000 A 
HETATM   24  C   UNK N   1      35.012  10.907  19.851  0.00  0.00     0.001 A 
HETATM   25  C   UNK N   1      35.363  11.737  18.782  0.00  0.00     0.014 A 
ENDBRANCH   8  20
TORSDOF 5
ENDMDL
MODEL 7
REMARK VINA RESULT:      -6.6     13.100     15.385
REMARK  5 active torsions:
REMARK  status: ('A' for Active; 'I' for Inactive)
REMARK    1  A    between atoms: N_2  and  C_10 
REMARK    2  A    between atoms: N_3  and  C_13 
REMARK    3  A    between atoms: N_3  and  C_14 
REMARK    4  A    between atoms: C_10  and  C_13 
REMARK    5  A    between atoms: C_17  and  C_19 
ROOT
HETATM    1  N   UNK N   1      21.514  14.654   6.544  0.00  0.00    -0.285 N 
ATOM      2  HN  UNK N   1      21.768  14.561   5.561  1.00  0.00     0.188 HD
HETATM    3  N   UNK N   1      22.128  13.891   7.452  0.00  0.00    -0.298 N 
ATOM      4  HN  UNK N   1      22.831  13.220   7.143  1.00  0.00     0.187 HD
HETATM    5  C   UNK N   1      20.556  15.553   6.899  0.00  0.00     0.121 A 
HETATM    6  C   UNK N   1      20.191  15.668   8.245  0.00  0.00    -0.015 A 
HETATM    7  C   UNK N   1      20.848  14.885   9.192  0.00  0.00     0.042 A 
HETATM    8  C   UNK N   1      21.839  13.988   8.776  0.00  0.00     0.059 A 
HETATM    9  C   UNK N   1      19.163  16.651   8.690  0.00  0.00     0.052 C 
ENDROOT
BRANCH   5  10
HETATM   10  N   UNK N   1      19.984  16.402   5.919  0.00  0.00    -0.373 N 
HETATM   11  H   UNK N   1      20.277  17.340   5.848  0.00  0.00     0.161 HD
BRANCH  10  12
HETATM   12  C   UNK N   1      18.970  15.897   5.026  0.00  0.00     0.151 C 
BRANCH  12  13
HETATM   13  C   UNK N   1      19.525  15.555   3.648  0.00  0.00     0.292 C 
BRANCH  13  14
HETATM   14  N   UNK N   1      20.584  16.459   3.187  0.00  0.00     0.094 N 
HETATM   15  C   UNK N   1      21.673  15.625   2.654  0.00  0.00     0.298 C 
HETATM   16  C   UNK N   1      21.373  15.091   1.233  0.00  0.00     0.198 C 
HETATM   17  O   UNK N   1      20.105  15.497   0.778  0.00  0.00    -0.388 OA
HETATM   18  C   UNK N   1      20.142  16.898   0.753  0.00  0.00     0.198 C 
HETATM   19  C   UNK N   1      20.108  17.439   2.187  0.00  0.00     0.298 C 
ENDBRANCH  13  14
ENDBRANCH  12  13
ENDBRANCH  10  12
ENDBRANCH   5  10
BRANCH   8  20
HETATM   20  C   UNK N   1      22.627  13.212   9.756  0.00  0.00    -0.008 A 
HETATM   21  C   UNK N   1      22.012  12.629  10.876  0.00  0.00     0.014 A 
HETATM   22  C   UNK N   1      22.779  11.957  11.832  0.00  0.00     0.001 A 
HETATM   23  C   UNK N   1      24.165  11.861  11.676  0.00  0.00     0.000 A 
HETATM   24  C   UNK N   1      24.785  12.432  10.562  0.00  0.00     0.001 A 
HETATM   25  C   UNK N   1      24.020  13.111   9.609  0.00  0.00     0.014 A 
ENDBRANCH   8  20
TORSDOF 5
ENDMDL
MODEL 8
REMARK VINA RESULT:      -6.6      6.864     11.086
REMARK  5 active torsions:
REMARK  status: ('A' for Active; 'I' for Inactive)
REMARK    1  A    between atoms: N_2  and  C_10 
REMARK    2  A    between atoms: N_3  and  C_13 
REMARK    3  A    between atoms: N_3  and  C_14 
REMARK    4  A    between atoms: C_10  and  C_13 
REMARK    5  A    between atoms: C_17  and  C_19 
ROOT
HETATM    1  N   UNK N   1      30.264  16.603   6.705  0.00  0.00    -0.285 N 
ATOM      2  HN  UNK N   1      30.861  15.835   6.397  1.00  0.00     0.188 HD
HETATM    3  N   UNK N   1      29.388  17.132   5.848  0.00  0.00    -0.298 N 
ATOM      4  HN  UNK N   1      29.341  16.768   4.896  1.00  0.00     0.187 HD
HETATM    5  C   UNK N   1      30.380  17.063   7.980  0.00  0.00     0.121 A 
HETATM    6  C   UNK N   1      29.576  18.129   8.399  0.00  0.00    -0.015 A 
HETATM    7  C   UNK N   1      28.649  18.666   7.508  0.00  0.00     0.042 A 
HETATM    8  C   UNK N   1      28.557  18.144   6.213  0.00  0.00     0.059 A 
HETATM    9  C   UNK N   1      29.649  18.657   9.791  0.00  0.00     0.052 C 
ENDROOT
BRANCH   5  10
HETATM   10  N   UNK N   1      31.264  16.424   8.886  0.00  0.00    -0.373 N 
HETATM   11  H   UNK N   1      30.914  15.779   9.543  0.00  0.00     0.161 HD
BRANCH  10  12
HETATM   12  C   UNK N   1      32.675  16.718   8.849  0.00  0.00     0.151 C 
BRANCH  12  13
HETATM   13  C   UNK N   1      33.448  15.756   7.955  0.00  0.00     0.292 C 
BRANCH  13  14
HETATM   14  N   UNK N   1      34.461  16.401   7.114  0.00  0.00     0.094 N 
HETATM   15  C   UNK N   1      34.897  15.412   6.114  0.00  0.00     0.298 C 
HETATM   16  C   UNK N   1      33.887  15.258   4.952  0.00  0.00     0.198 C 
HETATM   17  O   UNK N   1      32.757  16.077   5.128  0.00  0.00    -0.388 OA
HETATM   18  C   UNK N   1      33.241  17.391   5.154  0.00  0.00     0.198 C 
HETATM   19  C   UNK N   1      33.974  17.643   6.478  0.00  0.00     0.298 C 
ENDBRANCH  13  14
ENDBRANCH  12  13
ENDBRANCH  10  12
ENDBRANCH   5  10
BRANCH   8  20
HETATM   20  C   UNK N   1      27.521  18.617   5.270  0.00  0.00    -0.008 A 
HETATM   21  C   UNK N   1      26.416  17.811   4.952  0.00  0.00     0.014 A 
HETATM   22  C   UNK N   1      25.479  18.240   4.007  0.00  0.00     0.001 A 
HETATM   23  C   UNK N   1      25.639  19.476   3.373  0.00  0.00     0.000 A 
HETATM   24  C   UNK N   1      26.733  20.286   3.688  0.00  0.00     0.001 A 
HETATM   25  C   UNK N   1      27.674  19.855   4.628  0.00  0.00     0.014 A 
ENDBRANCH   8  20
TORSDOF 5
ENDMDL
MODEL 9
REMARK VINA RESULT:      -6.5      3.278      8.782
REMARK  5 active torsions:
REMARK  status: ('A' for Active; 'I' for Inactive)
REMARK    1  A    between atoms: N_2  and  C_10 
REMARK    2  A    between atoms: N_3  and  C_13 
REMARK    3  A    between atoms: N_3  and  C_14 
REMARK    4  A    between atoms: C_10  and  C_13 
REMARK    5  A    between atoms: C_17  and  C_19 
ROOT
HETATM    1  N   UNK N   1      32.643  14.921  10.372  0.00  0.00    -0.285 N 
ATOM      2  HN  UNK N   1      32.597  14.477  11.289  1.00  0.00     0.188 HD
HETATM    3  N   UNK N   1      31.596  15.627   9.936  0.00  0.00    -0.298 N 
ATOM      4  HN  UNK N   1      30.765  15.699  10.524  1.00  0.00     0.187 HD
HETATM    5  C   UNK N   1      33.768  14.779   9.621  0.00  0.00     0.121 A 
HETATM    6  C   UNK N   1      33.825  15.370   8.354  0.00  0.00    -0.015 A 
HETATM    7  C   UNK N   1      32.739  16.123   7.911  0.00  0.00     0.042 A 
HETATM    8  C   UNK N   1      31.612  16.253   8.730  0.00  0.00     0.059 A 
HETATM    9  C   UNK N   1      35.042  15.263   7.501  0.00  0.00     0.052 C 
ENDROOT
BRANCH   5  10
HETATM   10  N   UNK N   1      34.889  14.090  10.149  0.00  0.00    -0.373 N 
HETATM   11  H   UNK N   1      35.111  13.188   9.822  0.00  0.00     0.161 HD
BRANCH  10  12
HETATM   12  C   UNK N   1      35.703  14.706  11.168  0.00  0.00     0.151 C 
BRANCH  12  13
HETATM   13  C   UNK N   1      35.358  14.211  12.567  0.00  0.00     0.292 C 
BRANCH  13  14
HETATM   14  N   UNK N   1      35.924  12.899  12.897  0.00  0.00     0.094 N 
HETATM   15  C   UNK N   1      36.702  13.054  14.136  0.00  0.00     0.298 C 
HETATM   16  C   UNK N   1      35.809  13.097  15.398  0.00  0.00     0.198 C 
HETATM   17  O   UNK N   1      34.442  13.010  15.076  0.00  0.00    -0.388 OA
HETATM   18  C   UNK N   1      34.282  11.776  14.432  0.00  0.00     0.198 C 
HETATM   19  C   UNK N   1      34.894  11.846  13.027  0.00  0.00     0.298 C 
ENDBRANCH  13  14
ENDBRANCH  12  13
ENDBRANCH  10  12
ENDBRANCH   5  10
BRANCH   8  20
HETATM   20  C   UNK N   1      30.481  17.122   8.342  0.00  0.00    -0.008 A 
HETATM   21  C   UNK N   1      29.790  17.878   9.303  0.00  0.00     0.014 A 
HETATM   22  C   UNK N   1      28.679  18.642   8.934  0.00  0.00     0.001 A 
HETATM   23  C   UNK N   1      28.251  18.659   7.604  0.00  0.00     0.000 A 
HETATM   24  C   UNK N   1      28.936  17.916   6.639  0.00  0.00     0.001 A 
HETATM   25  C   UNK N   1      30.043  17.145   7.008  0.00  0.00     0.014 A 
ENDBRANCH   8  20
TORSDOF 5
ENDMDL
