REMARK  5 active torsions:
REMARK  status: ('A' for Active; 'I' for Inactive)
REMARK    1  A    between atoms: N_2  and  C_10 
REMARK    2  A    between atoms: N_3  and  C_13 
REMARK    3  A    between atoms: N_3  and  C_14 
REMARK    4  A    between atoms: C_10  and  C_13 
REMARK    5  A    between atoms: C_17  and  C_19 
ROOT
HETATM    1  N   UNK N   1       4.093   0.280  -0.254  0.00  0.00    -0.285 N 
ATOM      2  HN  UNK N   1       4.001  -0.708  -0.489  1.00  0.00     0.188 HD
HETATM    3  N   UNK N   1       5.313   0.807  -0.119  0.00  0.00    -0.298 N 
ATOM      4  HN  UNK N   1       6.130   0.208  -0.241  1.00  0.00     0.187 HD
HETATM    5  C   UNK N   1       2.971   1.030  -0.085  0.00  0.00     0.121 A 
HETATM    6  C   UNK N   1       3.095   2.381   0.258  0.00  0.00    -0.015 A 
HETATM    7  C   UNK N   1       4.369   2.932   0.378  0.00  0.00     0.042 A 
HETATM    8  C   UNK N   1       5.492   2.122   0.176  0.00  0.00     0.059 A 
HETATM    9  C   UNK N   1       1.898   3.251   0.434  0.00  0.00     0.052 C 
ENDROOT
BRANCH   5  10
HETATM   10  N   UNK N   1       1.695   0.456  -0.315  0.00  0.00    -0.373 N 
HETATM   11  H   UNK N   1       0.886   0.904   0.024  0.00  0.00     0.161 HD
BRANCH  10  12
HETATM   12  C   UNK N   1       1.579  -0.784  -1.042  0.00  0.00     0.151 C 
BRANCH  12  13
HETATM   13  C   UNK N   1       0.791  -1.838  -0.274  0.00  0.00     0.292 C 
BRANCH  13  14
HETATM   14  N   UNK N   1       1.412  -2.250   0.989  0.00  0.00     0.094 N 
HETATM   15  C   UNK N   1       0.692  -3.442   1.465  0.00  0.00     0.298 C 
HETATM   16  C   UNK N   1       1.118  -4.730   0.721  0.00  0.00     0.198 C 
HETATM   17  O   UNK N   1       2.079  -4.468  -0.272  0.00  0.00    -0.388 OA
HETATM   18  C   UNK N   1       3.184  -3.931   0.402  0.00  0.00     0.198 C 
HETATM   19  C   UNK N   1       2.863  -2.503   0.860  0.00  0.00     0.298 C 
ENDBRANCH  13  14
ENDBRANCH  12  13
ENDBRANCH  10  12
ENDBRANCH   5  10
BRANCH   8  20
HETATM   20  C   UNK N   1       6.857   2.688   0.196  0.00  0.00    -0.008 A 
HETATM   21  C   UNK N   1       7.062   4.068   0.355  0.00  0.00     0.014 A 
HETATM   22  C   UNK N   1       8.354   4.600   0.303  0.00  0.00     0.001 A 
HETATM   23  C   UNK N   1       9.450   3.758   0.093  0.00  0.00     0.000 A 
HETATM   24  C   UNK N   1       9.256   2.383  -0.060  0.00  0.00     0.001 A 
HETATM   25  C   UNK N   1       7.964   1.851  -0.015  0.00  0.00     0.014 A 
ENDBRANCH   8  20
TORSDOF 5
