MODEL 1
REMARK VINA RESULT:      -6.1      0.000      0.000
REMARK  5 active torsions:
REMARK  status: ('A' for Active; 'I' for Inactive)
REMARK    1  A    between atoms: N_4  and  C_9 
REMARK    2  A    between atoms: C_9  and  C_10 
REMARK    3  A    between atoms: C_10  and  C_11 
REMARK    4  A    between atoms: C_11  and  C_16 
REMARK    5  A    between atoms: C_16  and  C_20 
ROOT
HETATM    1  O   UNK N   1      28.106  19.377   8.107  0.00  0.00    -0.265 OA
HETATM    2  O   UNK N   1      30.209  16.066   5.816  0.00  0.00    -0.246 OA
HETATM    3  N   UNK N   1      29.189  17.681   7.055  0.00  0.00    -0.264 N 
HETATM    4  N   UNK N   1      28.903  17.488   4.663  0.00  0.00    -0.287 N 
HETATM    5  N   UNK N   1      27.031  20.270   5.581  0.00  0.00    -0.340 N 
HETATM    6  N   UNK N   1      27.494  19.187   3.675  0.00  0.00    -0.336 N 
ATOM      7  HN  UNK N   1      27.521  18.921   2.690  1.00  0.00     0.168 HD
HETATM    8  C   UNK N   1      27.826  19.226   5.860  0.00  0.00     0.149 A 
HETATM    9  C   UNK N   1      28.354  18.788   7.067  0.00  0.00     0.282 A 
HETATM   10  C   UNK N   1      28.104  18.580   4.711  0.00  0.00     0.145 A 
HETATM   11  C   UNK N   1      29.465  17.033   5.843  0.00  0.00     0.332 A 
HETATM   12  C   UNK N   1      26.837  20.235   4.241  0.00  0.00     0.184 A 
HETATM   13  C   UNK N   1      29.174  16.827   3.393  0.00  0.00     0.163 C 
HETATM   14  C   UNK N   1      26.491  21.259   6.499  0.00  0.00     0.157 C 
ENDROOT
BRANCH   3  15
HETATM   15  C   UNK N   1      29.812  17.262   8.318  0.00  0.00     0.137 C 
BRANCH  15  16
HETATM   16  C   UNK N   1      31.077  18.033   8.648  0.00  0.00     0.021 C 
BRANCH  16  17
HETATM   17  C   UNK N   1      32.236  17.101   8.354  0.00  0.00     0.009 C 
BRANCH  17  18
HETATM   18  C   UNK N   1      33.315  17.815   7.571  0.00  0.00     0.078 C 
BRANCH  18  19
HETATM   19  C   UNK N   1      34.472  18.086   8.468  0.00  0.00     0.123 C 
HETATM   20  O   UNK N   1      35.093  19.131   8.366  0.00  0.00    -0.298 OA
HETATM   21  C   UNK N   1      34.876  17.077   9.483  0.00  0.00     0.091 C 
ENDBRANCH  18  19
ENDBRANCH  17  18
ENDBRANCH  16  17
ENDBRANCH  15  16
ENDBRANCH   3  15
TORSDOF 5
ENDMDL
MODEL 2
REMARK VINA RESULT:      -5.9      5.347      7.801
REMARK  5 active torsions:
REMARK  status: ('A' for Active; 'I' for Inactive)
REMARK    1  A    between atoms: N_4  and  C_9 
REMARK    2  A    between atoms: C_9  and  C_10 
REMARK    3  A    between atoms: C_10  and  C_11 
REMARK    4  A    between atoms: C_11  and  C_16 
REMARK    5  A    between atoms: C_16  and  C_20 
ROOT
HETATM    1  O   UNK N   1      23.244  17.062   4.481  0.00  0.00    -0.265 OA
HETATM    2  O   UNK N   1      23.191  21.306   2.864  0.00  0.00    -0.246 OA
HETATM    3  N   UNK N   1      23.317  19.195   3.706  0.00  0.00    -0.264 N 
HETATM    4  N   UNK N   1      21.441  19.972   2.397  0.00  0.00    -0.287 N 
HETATM    5  N   UNK N   1      20.650  16.700   3.266  0.00  0.00    -0.340 N 
HETATM    6  N   UNK N   1      19.674  18.348   2.104  0.00  0.00    -0.336 N 
ATOM      7  HN  UNK N   1      19.005  18.879   1.545  1.00  0.00     0.168 HD
HETATM    8  C   UNK N   1      21.464  17.766   3.262  0.00  0.00     0.149 A 
HETATM    9  C   UNK N   1      22.710  17.956   3.845  0.00  0.00     0.282 A 
HETATM   10  C   UNK N   1      20.872  18.755   2.565  0.00  0.00     0.145 A 
HETATM   11  C   UNK N   1      22.674  20.207   2.981  0.00  0.00     0.332 A 
HETATM   12  C   UNK N   1      19.558  17.071   2.555  0.00  0.00     0.184 A 
HETATM   13  C   UNK N   1      20.756  21.009   1.636  0.00  0.00     0.163 C 
HETATM   14  C   UNK N   1      20.860  15.412   3.906  0.00  0.00     0.157 C 
ENDROOT
BRANCH   3  15
HETATM   15  C   UNK N   1      24.600  19.424   4.388  0.00  0.00     0.137 C 
BRANCH  15  16
HETATM   16  C   UNK N   1      25.805  19.162   3.503  0.00  0.00     0.021 C 
BRANCH  16  17
HETATM   17  C   UNK N   1      26.783  20.291   3.766  0.00  0.00     0.009 C 
BRANCH  17  18
HETATM   18  C   UNK N   1      27.911  19.828   4.660  0.00  0.00     0.078 C 
BRANCH  18  19
HETATM   19  C   UNK N   1      27.669  20.314   6.046  0.00  0.00     0.123 C 
HETATM   20  O   UNK N   1      27.964  19.614   7.000  0.00  0.00    -0.298 OA
HETATM   21  C   UNK N   1      27.056  21.652   6.266  0.00  0.00     0.091 C 
ENDBRANCH  18  19
ENDBRANCH  17  18
ENDBRANCH  16  17
ENDBRANCH  15  16
ENDBRANCH   3  15
TORSDOF 5
ENDMDL
MODEL 3
REMARK VINA RESULT:      -5.8      4.216      6.484
REMARK  5 active torsions:
REMARK  status: ('A' for Active; 'I' for Inactive)
REMARK    1  A    between atoms: N_4  and  C_9 
REMARK    2  A    between atoms: C_9  and  C_10 
REMARK    3  A    between atoms: C_10  and  C_11 
REMARK    4  A    between atoms: C_11  and  C_16 
REMARK    5  A    between atoms: C_16  and  C_20 
ROOT
HETATM    1  O   UNK N   1      25.248  17.621   5.038  0.00  0.00    -0.265 OA
HETATM    2  O   UNK N   1      24.175  21.115   2.342  0.00  0.00    -0.246 OA
HETATM    3  N   UNK N   1      24.815  19.380   3.669  0.00  0.00    -0.264 N 
HETATM    4  N   UNK N   1      22.499  19.880   3.194  0.00  0.00    -0.287 N 
HETATM    5  N   UNK N   1      22.417  17.147   5.341  0.00  0.00    -0.340 N 
HETATM    6  N   UNK N   1      20.907  18.429   4.292  0.00  0.00    -0.336 N 
ATOM      7  HN  UNK N   1      20.023  18.817   3.963  1.00  0.00     0.168 HD
HETATM    8  C   UNK N   1      23.064  18.072   4.617  0.00  0.00     0.149 A 
HETATM    9  C   UNK N   1      24.423  18.315   4.466  0.00  0.00     0.282 A 
HETATM   10  C   UNK N   1      22.153  18.841   3.991  0.00  0.00     0.145 A 
HETATM   11  C   UNK N   1      23.844  20.167   3.035  0.00  0.00     0.332 A 
HETATM   12  C   UNK N   1      21.098  17.378   5.134  0.00  0.00     0.184 A 
HETATM   13  C   UNK N   1      21.473  20.684   2.541  0.00  0.00     0.163 C 
HETATM   14  C   UNK N   1      22.983  16.116   6.193  0.00  0.00     0.157 C 
ENDROOT
BRANCH   3  15
HETATM   15  C   UNK N   1      26.249  19.687   3.570  0.00  0.00     0.137 C 
BRANCH  15  16
HETATM   16  C   UNK N   1      26.708  20.736   4.566  0.00  0.00     0.021 C 
BRANCH  16  17
HETATM   17  C   UNK N   1      27.848  20.113   5.349  0.00  0.00     0.009 C 
BRANCH  17  18
HETATM   18  C   UNK N   1      27.532  20.083   6.828  0.00  0.00     0.078 C 
BRANCH  18  19
HETATM   19  C   UNK N   1      28.107  18.848   7.426  0.00  0.00     0.123 C 
HETATM   20  O   UNK N   1      28.245  18.761   8.635  0.00  0.00    -0.298 OA
HETATM   21  C   UNK N   1      28.521  17.721   6.547  0.00  0.00     0.091 C 
ENDBRANCH  18  19
ENDBRANCH  17  18
ENDBRANCH  16  17
ENDBRANCH  15  16
ENDBRANCH   3  15
TORSDOF 5
ENDMDL
MODEL 4
REMARK VINA RESULT:      -5.7      9.097     10.433
REMARK  5 active torsions:
REMARK  status: ('A' for Active; 'I' for Inactive)
REMARK    1  A    between atoms: N_4  and  C_9 
REMARK    2  A    between atoms: C_9  and  C_10 
REMARK    3  A    between atoms: C_10  and  C_11 
REMARK    4  A    between atoms: C_11  and  C_16 
REMARK    5  A    between atoms: C_16  and  C_20 
ROOT
HETATM    1  O   UNK N   1      21.437  15.215   3.879  0.00  0.00    -0.265 OA
HETATM    2  O   UNK N   1      21.169  19.622   4.944  0.00  0.00    -0.246 OA
HETATM    3  N   UNK N   1      21.350  17.396   4.504  0.00  0.00    -0.264 N 
HETATM    4  N   UNK N   1      20.596  18.999   2.860  0.00  0.00    -0.287 N 
HETATM    5  N   UNK N   1      20.444  15.916   1.261  0.00  0.00    -0.340 N 
HETATM    6  N   UNK N   1      19.988  18.043   0.724  0.00  0.00    -0.336 N 
ATOM      7  HN  UNK N   1      19.703  18.875   0.206  1.00  0.00     0.168 HD
HETATM    8  C   UNK N   1      20.717  16.696   2.317  0.00  0.00     0.149 A 
HETATM    9  C   UNK N   1      21.190  16.373   3.582  0.00  0.00     0.282 A 
HETATM   10  C   UNK N   1      20.440  17.972   1.991  0.00  0.00     0.145 A 
HETATM   11  C   UNK N   1      21.046  18.715   4.137  0.00  0.00     0.332 A 
HETATM   12  C   UNK N   1      19.997  16.753   0.294  0.00  0.00     0.184 A 
HETATM   13  C   UNK N   1      20.279  20.363   2.457  0.00  0.00     0.163 C 
HETATM   14  C   UNK N   1      20.571  14.473   1.153  0.00  0.00     0.157 C 
ENDROOT
BRANCH   3  15
HETATM   15  C   UNK N   1      21.775  17.048   5.867  0.00  0.00     0.137 C 
BRANCH  15  16
HETATM   16  C   UNK N   1      20.614  16.784   6.808  0.00  0.00     0.021 C 
BRANCH  16  17
HETATM   17  C   UNK N   1      20.929  15.483   7.522  0.00  0.00     0.009 C 
BRANCH  17  18
HETATM   18  C   UNK N   1      20.746  15.632   9.016  0.00  0.00     0.078 C 
BRANCH  18  19
HETATM   19  C   UNK N   1      20.536  14.288   9.620  0.00  0.00     0.123 C 
HETATM   20  O   UNK N   1      19.407  13.904   9.879  0.00  0.00    -0.298 OA
HETATM   21  C   UNK N   1      21.705  13.416   9.915  0.00  0.00     0.091 C 
ENDBRANCH  18  19
ENDBRANCH  17  18
ENDBRANCH  16  17
ENDBRANCH  15  16
ENDBRANCH   3  15
TORSDOF 5
ENDMDL
MODEL 5
REMARK VINA RESULT:      -5.7      4.288      6.235
REMARK  5 active torsions:
REMARK  status: ('A' for Active; 'I' for Inactive)
REMARK    1  A    between atoms: N_4  and  C_9 
REMARK    2  A    between atoms: C_9  and  C_10 
REMARK    3  A    between atoms: C_10  and  C_11 
REMARK    4  A    between atoms: C_11  and  C_16 
REMARK    5  A    between atoms: C_16  and  C_20 
ROOT
HETATM    1  O   UNK N   1      23.893  20.949   2.668  0.00  0.00    -0.265 OA
HETATM    2  O   UNK N   1      25.595  17.570   5.182  0.00  0.00    -0.246 OA
HETATM    3  N   UNK N   1      24.838  19.309   3.922  0.00  0.00    -0.264 N 
HETATM    4  N   UNK N   1      23.373  17.617   4.833  0.00  0.00    -0.287 N 
HETATM    5  N   UNK N   1      21.297  19.741   3.028  0.00  0.00    -0.340 N 
HETATM    6  N   UNK N   1      21.042  17.880   4.249  0.00  0.00    -0.336 N 
ATOM      7  HN  UNK N   1      20.626  17.077   4.721  1.00  0.00     0.168 HD
HETATM    8  C   UNK N   1      22.495  19.369   3.503  0.00  0.00     0.149 A 
HETATM    9  C   UNK N   1      23.751  19.937   3.334  0.00  0.00     0.282 A 
HETATM   10  C   UNK N   1      22.337  18.249   4.234  0.00  0.00     0.145 A 
HETATM   11  C   UNK N   1      24.644  18.140   4.671  0.00  0.00     0.332 A 
HETATM   12  C   UNK N   1      20.418  18.820   3.491  0.00  0.00     0.184 A 
HETATM   13  C   UNK N   1      23.150  16.405   5.612  0.00  0.00     0.163 C 
HETATM   14  C   UNK N   1      20.980  20.876   2.178  0.00  0.00     0.157 C 
ENDROOT
BRANCH   3  15
HETATM   15  C   UNK N   1      26.179  19.863   3.680  0.00  0.00     0.137 C 
BRANCH  15  16
HETATM   16  C   UNK N   1      26.605  20.879   4.724  0.00  0.00     0.021 C 
BRANCH  16  17
HETATM   17  C   UNK N   1      27.825  20.300   5.414  0.00  0.00     0.009 C 
BRANCH  17  18
HETATM   18  C   UNK N   1      27.547  20.053   6.879  0.00  0.00     0.078 C 
BRANCH  18  19
HETATM   19  C   UNK N   1      28.226  18.797   7.301  0.00  0.00     0.123 C 
HETATM   20  O   UNK N   1      28.702  18.048   6.464  0.00  0.00    -0.298 OA
HETATM   21  C   UNK N   1      28.316  18.452   8.746  0.00  0.00     0.091 C 
ENDBRANCH  18  19
ENDBRANCH  17  18
ENDBRANCH  16  17
ENDBRANCH  15  16
ENDBRANCH   3  15
TORSDOF 5
ENDMDL
MODEL 6
REMARK VINA RESULT:      -5.7      1.676      2.984
REMARK  5 active torsions:
REMARK  status: ('A' for Active; 'I' for Inactive)
REMARK    1  A    between atoms: N_4  and  C_9 
REMARK    2  A    between atoms: C_9  and  C_10 
REMARK    3  A    between atoms: C_10  and  C_11 
REMARK    4  A    between atoms: C_11  and  C_16 
REMARK    5  A    between atoms: C_16  and  C_20 
ROOT
HETATM    1  O   UNK N   1      29.971  17.547   4.361  0.00  0.00    -0.265 OA
HETATM    2  O   UNK N   1      31.101  16.836   8.702  0.00  0.00    -0.246 OA
HETATM    3  N   UNK N   1      30.627  17.147   6.497  0.00  0.00    -0.264 N 
HETATM    4  N   UNK N   1      29.269  18.069   8.272  0.00  0.00    -0.287 N 
HETATM    5  N   UNK N   1      27.686  19.021   5.327  0.00  0.00    -0.340 N 
HETATM    6  N   UNK N   1      27.326  19.297   7.522  0.00  0.00    -0.336 N 
ATOM      7  HN  UNK N   1      26.913  19.579   8.411  1.00  0.00     0.168 HD
HETATM    8  C   UNK N   1      28.673  18.417   6.006  0.00  0.00     0.149 A 
HETATM    9  C   UNK N   1      29.774  17.701   5.555  0.00  0.00     0.282 A 
HETATM   10  C   UNK N   1      28.451  18.583   7.323  0.00  0.00     0.145 A 
HETATM   11  C   UNK N   1      30.367  17.331   7.862  0.00  0.00     0.332 A 
HETATM   12  C   UNK N   1      26.869  19.554   6.268  0.00  0.00     0.184 A 
HETATM   13  C   UNK N   1      28.983  18.275   9.686  0.00  0.00     0.163 C 
HETATM   14  C   UNK N   1      27.496  19.090   3.889  0.00  0.00     0.157 C 
ENDROOT
BRANCH   3  15
HETATM   15  C   UNK N   1      31.749  16.323   6.025  0.00  0.00     0.137 C 
BRANCH  15  16
HETATM   16  C   UNK N   1      32.973  17.136   5.649  0.00  0.00     0.021 C 
BRANCH  16  17
HETATM   17  C   UNK N   1      34.054  16.770   6.648  0.00  0.00     0.009 C 
BRANCH  17  18
HETATM   18  C   UNK N   1      34.204  17.847   7.698  0.00  0.00     0.078 C 
BRANCH  18  19
HETATM   19  C   UNK N   1      34.708  17.236   8.958  0.00  0.00     0.123 C 
HETATM   20  O   UNK N   1      35.357  17.905   9.745  0.00  0.00    -0.298 OA
HETATM   21  C   UNK N   1      34.427  15.805   9.252  0.00  0.00     0.091 C 
ENDBRANCH  18  19
ENDBRANCH  17  18
ENDBRANCH  16  17
ENDBRANCH  15  16
ENDBRANCH   3  15
TORSDOF 5
ENDMDL
MODEL 7
REMARK VINA RESULT:      -5.6      5.303      7.414
REMARK  5 active torsions:
REMARK  status: ('A' for Active; 'I' for Inactive)
REMARK    1  A    between atoms: N_4  and  C_9 
REMARK    2  A    between atoms: C_9  and  C_10 
REMARK    3  A    between atoms: C_10  and  C_11 
REMARK    4  A    between atoms: C_11  and  C_16 
REMARK    5  A    between atoms: C_16  and  C_20 
ROOT
HETATM    1  O   UNK N   1      23.024  20.394   3.212  0.00  0.00    -0.265 OA
HETATM    2  O   UNK N   1      23.436  16.628   5.716  0.00  0.00    -0.246 OA
HETATM    3  N   UNK N   1      23.321  18.550   4.503  0.00  0.00    -0.264 N 
HETATM    4  N   UNK N   1      21.521  16.940   4.578  0.00  0.00    -0.287 N 
HETATM    5  N   UNK N   1      20.418  19.435   2.423  0.00  0.00    -0.340 N 
HETATM    6  N   UNK N   1      19.608  17.500   3.210  0.00  0.00    -0.336 N 
ATOM      7  HN  UNK N   1      18.996  16.702   3.386  1.00  0.00     0.168 HD
HETATM    8  C   UNK N   1      21.321  18.895   3.256  0.00  0.00     0.149 A 
HETATM    9  C   UNK N   1      22.578  19.343   3.640  0.00  0.00     0.282 A 
HETATM   10  C   UNK N   1      20.830  17.732   3.724  0.00  0.00     0.145 A 
HETATM   11  C   UNK N   1      22.787  17.341   4.969  0.00  0.00     0.332 A 
HETATM   12  C   UNK N   1      19.376  18.570   2.404  0.00  0.00     0.184 A 
HETATM   13  C   UNK N   1      20.946  15.688   5.054  0.00  0.00     0.163 C 
HETATM   14  C   UNK N   1      20.518  20.674   1.671  0.00  0.00     0.157 C 
ENDROOT
BRANCH   3  15
HETATM   15  C   UNK N   1      24.683  18.982   4.849  0.00  0.00     0.137 C 
BRANCH  15  16
HETATM   16  C   UNK N   1      25.699  18.690   3.761  0.00  0.00     0.021 C 
BRANCH  16  17
HETATM   17  C   UNK N   1      26.640  19.879   3.723  0.00  0.00     0.009 C 
BRANCH  17  18
HETATM   18  C   UNK N   1      27.876  19.613   4.553  0.00  0.00     0.078 C 
BRANCH  18  19
HETATM   19  C   UNK N   1      27.684  20.182   5.915  0.00  0.00     0.123 C 
HETATM   20  O   UNK N   1      27.960  19.518   6.900  0.00  0.00    -0.298 OA
HETATM   21  C   UNK N   1      27.145  21.560   6.073  0.00  0.00     0.091 C 
ENDBRANCH  18  19
ENDBRANCH  17  18
ENDBRANCH  16  17
ENDBRANCH  15  16
ENDBRANCH   3  15
TORSDOF 5
ENDMDL
MODEL 8
REMARK VINA RESULT:      -5.6     10.789     13.638
REMARK  5 active torsions:
REMARK  status: ('A' for Active; 'I' for Inactive)
REMARK    1  A    between atoms: N_4  and  C_9 
REMARK    2  A    between atoms: C_9  and  C_10 
REMARK    3  A    between atoms: C_10  and  C_11 
REMARK    4  A    between atoms: C_11  and  C_16 
REMARK    5  A    between atoms: C_16  and  C_20 
ROOT
HETATM    1  O   UNK N   1      28.368  22.994  -5.968  0.00  0.00    -0.265 OA
HETATM    2  O   UNK N   1      30.864  23.432  -2.199  0.00  0.00    -0.246 OA
HETATM    3  N   UNK N   1      29.546  23.286  -4.050  0.00  0.00    -0.264 N 
HETATM    4  N   UNK N   1      31.395  21.785  -3.636  0.00  0.00    -0.287 N 
HETATM    5  N   UNK N   1      30.096  20.804  -6.708  0.00  0.00    -0.340 N 
HETATM    6  N   UNK N   1      31.777  20.152  -5.377  0.00  0.00    -0.336 N 
ATOM      7  HN  UNK N   1      32.582  19.648  -5.006  1.00  0.00     0.168 HD
HETATM    8  C   UNK N   1      30.103  21.576  -5.611  0.00  0.00     0.149 A 
HETATM    9  C   UNK N   1      29.282  22.635  -5.245  0.00  0.00     0.282 A 
HETATM   10  C   UNK N   1      31.116  21.183  -4.816  0.00  0.00     0.145 A 
HETATM   11  C   UNK N   1      30.612  22.858  -3.246  0.00  0.00     0.332 A 
HETATM   12  C   UNK N   1      31.126  19.938  -6.552  0.00  0.00     0.184 A 
HETATM   13  C   UNK N   1      32.505  21.322  -2.814  0.00  0.00     0.163 C 
HETATM   14  C   UNK N   1      29.197  20.871  -7.848  0.00  0.00     0.157 C 
ENDROOT
BRANCH   3  15
HETATM   15  C   UNK N   1      28.730  24.456  -3.697  0.00  0.00     0.137 C 
BRANCH  15  16
HETATM   16  C   UNK N   1      27.393  24.090  -3.078  0.00  0.00     0.021 C 
BRANCH  16  17
HETATM   17  C   UNK N   1      26.346  24.915  -3.801  0.00  0.00     0.009 C 
BRANCH  17  18
HETATM   18  C   UNK N   1      26.859  26.309  -4.082  0.00  0.00     0.078 C 
BRANCH  18  19
HETATM   19  C   UNK N   1      25.709  27.253  -4.133  0.00  0.00     0.123 C 
HETATM   20  O   UNK N   1      25.425  27.925  -3.155  0.00  0.00    -0.298 OA
HETATM   21  C   UNK N   1      24.900  27.370  -5.377  0.00  0.00     0.091 C 
ENDBRANCH  18  19
ENDBRANCH  17  18
ENDBRANCH  16  17
ENDBRANCH  15  16
ENDBRANCH   3  15
TORSDOF 5
ENDMDL
MODEL 9
REMARK VINA RESULT:      -5.6      2.295      6.971
REMARK  5 active torsions:
REMARK  status: ('A' for Active; 'I' for Inactive)
REMARK    1  A    between atoms: N_4  and  C_9 
REMARK    2  A    between atoms: C_9  and  C_10 
REMARK    3  A    between atoms: C_10  and  C_11 
REMARK    4  A    between atoms: C_11  and  C_16 
REMARK    5  A    between atoms: C_16  and  C_20 
ROOT
HETATM    1  O   UNK N   1      29.995  16.697   4.812  0.00  0.00    -0.265 OA
HETATM    2  O   UNK N   1      27.854  19.224   7.921  0.00  0.00    -0.246 OA
HETATM    3  N   UNK N   1      28.845  17.974   6.297  0.00  0.00    -0.264 N 
HETATM    4  N   UNK N   1      29.724  18.139   8.542  0.00  0.00    -0.287 N 
HETATM    5  N   UNK N   1      31.965  16.101   6.836  0.00  0.00    -0.340 N 
HETATM    6  N   UNK N   1      31.780  16.921   8.913  0.00  0.00    -0.336 N 
ATOM      7  HN  UNK N   1      31.963  17.133   9.894  1.00  0.00     0.168 HD
HETATM    8  C   UNK N   1      30.848  16.841   6.910  0.00  0.00     0.149 A 
HETATM    9  C   UNK N   1      29.896  17.140   5.945  0.00  0.00     0.282 A 
HETATM   10  C   UNK N   1      30.743  17.334   8.158  0.00  0.00     0.145 A 
HETATM   11  C   UNK N   1      28.765  18.477   7.603  0.00  0.00     0.332 A 
HETATM   12  C   UNK N   1      32.525  16.160   8.068  0.00  0.00     0.184 A 
HETATM   13  C   UNK N   1      29.658  18.649   9.906  0.00  0.00     0.163 C 
HETATM   14  C   UNK N   1      32.497  15.390   5.686  0.00  0.00     0.157 C 
ENDROOT
BRANCH   3  15
HETATM   15  C   UNK N   1      27.878  18.356   5.257  0.00  0.00     0.137 C 
BRANCH  15  16
HETATM   16  C   UNK N   1      28.184  19.698   4.618  0.00  0.00     0.021 C 
BRANCH  16  17
HETATM   17  C   UNK N   1      26.891  20.490   4.646  0.00  0.00     0.009 C 
BRANCH  17  18
HETATM   18  C   UNK N   1      25.710  19.584   4.914  0.00  0.00     0.078 C 
BRANCH  18  19
HETATM   19  C   UNK N   1      24.714  19.740   3.820  0.00  0.00     0.123 C 
HETATM   20  O   UNK N   1      23.605  19.243   3.927  0.00  0.00    -0.298 OA
HETATM   21  C   UNK N   1      25.075  20.498   2.591  0.00  0.00     0.091 C 
ENDBRANCH  18  19
ENDBRANCH  17  18
ENDBRANCH  16  17
ENDBRANCH  15  16
ENDBRANCH   3  15
TORSDOF 5
ENDMDL
