MODEL 1
REMARK VINA RESULT:      -5.3      0.000      0.000
REMARK  11 active torsions:
REMARK  status: ('A' for Active; 'I' for Inactive)
REMARK    1  A    between atoms: O_1  and  C_9 
REMARK    2  A    between atoms: O_1  and  C_13 
REMARK    3  A    between atoms: O_2  and  C_14 
REMARK    4  A    between atoms: O_2  and  C_18 
REMARK    5  A    between atoms: N_4  and  C_6 
REMARK    6  A    between atoms: N_4  and  C_7 
REMARK    7  A    between atoms: N_4  and  C_8 
REMARK    8  A    between atoms: N_5  and  C_15 
REMARK    9  A    between atoms: C_6  and  C_9 
REMARK   10  A    between atoms: C_12  and  C_13 
REMARK   11  A    between atoms: C_18  and  C_20 
ROOT
HETATM    1  C   UNK N   1      32.680  17.466   7.268  0.00  0.00     0.041 A 
HETATM    2  C   UNK N   1      29.868  17.540   7.490  0.00  0.00     0.095 A 
HETATM    3  C   UNK N   1      30.673  17.921   8.575  0.00  0.00     0.060 A 
HETATM    4  C   UNK N   1      32.065  17.890   8.456  0.00  0.00     0.049 A 
HETATM    5  C   UNK N   1      31.870  17.069   6.195  0.00  0.00     0.020 A 
HETATM    6  C   UNK N   1      30.479  17.110   6.301  0.00  0.00     0.040 A 
ENDROOT
BRANCH   1   7
HETATM    7  C   UNK N   1      34.171  17.460   7.184  0.00  0.00     0.293 C 
HETATM    8  O   UNK N   1      34.776  18.460   7.544  0.00  0.00    -0.259 OA
BRANCH   7   9
HETATM    9  O   UNK N   1      34.903  16.411   6.722  0.00  0.00    -0.316 OA
BRANCH   9  10
HETATM   10  C   UNK N   1      34.905  15.129   7.222  0.00  0.00     0.209 C 
BRANCH  10  11
HETATM   11  C   UNK N   1      35.335  15.141   8.685  0.00  0.00     0.299 C 
BRANCH  11  12
HETATM   12  N   UNK N   1      34.247  14.715   9.557  0.00  0.00     0.089 N 
BRANCH  12  13
HETATM   13  C   UNK N   1      34.322  13.265   9.640  0.00  0.00     0.268 C 
HETATM   14  C   UNK N   1      34.999  12.848  10.933  0.00  0.00     0.037 C 
ENDBRANCH  12  13
BRANCH  12  15
HETATM   15  C   UNK N   1      34.520  15.239  10.890  0.00  0.00     0.268 C 
HETATM   16  C   UNK N   1      35.289  16.543  10.782  0.00  0.00     0.037 C 
ENDBRANCH  12  15
ENDBRANCH  11  12
ENDBRANCH  10  11
ENDBRANCH   9  10
ENDBRANCH   7   9
ENDBRANCH   1   7
BRANCH   3  17
HETATM   17  N   UNK N   1      30.088  18.362   9.778  0.00  0.00    -0.397 N 
HETATM   18  H   UNK N   1      29.761  17.724  10.455  0.00  0.00     0.156 HD
HETATM   19  H   UNK N   1      30.005  19.329   9.948  0.00  0.00     0.156 HD
ENDBRANCH   3  17
BRANCH   2  20
HETATM   20  O   UNK N   1      28.519  17.605   7.601  0.00  0.00    -0.349 OA
BRANCH  20  21
HETATM   21  C   UNK N   1      27.738  18.315   6.715  0.00  0.00     0.175 C 
BRANCH  21  22
HETATM   22  C   UNK N   1      27.808  19.797   7.004  0.00  0.00     0.022 C 
HETATM   23  C   UNK N   1      26.903  20.521   6.030  0.00  0.00     0.007 C 
ENDBRANCH  21  22
ENDBRANCH  20  21
ENDBRANCH   2  20
TORSDOF 11
ENDMDL
MODEL 2
REMARK VINA RESULT:      -5.3      8.154     11.775
REMARK  11 active torsions:
REMARK  status: ('A' for Active; 'I' for Inactive)
REMARK    1  A    between atoms: O_1  and  C_9 
REMARK    2  A    between atoms: O_1  and  C_13 
REMARK    3  A    between atoms: O_2  and  C_14 
REMARK    4  A    between atoms: O_2  and  C_18 
REMARK    5  A    between atoms: N_4  and  C_6 
REMARK    6  A    between atoms: N_4  and  C_7 
REMARK    7  A    between atoms: N_4  and  C_8 
REMARK    8  A    between atoms: N_5  and  C_15 
REMARK    9  A    between atoms: C_6  and  C_9 
REMARK   10  A    between atoms: C_12  and  C_13 
REMARK   11  A    between atoms: C_18  and  C_20 
ROOT
HETATM    1  C   UNK N   1      35.670  12.878  17.060  0.00  0.00     0.041 A 
HETATM    2  C   UNK N   1      35.107  11.440  19.422  0.00  0.00     0.095 A 
HETATM    3  C   UNK N   1      35.026  12.841  19.410  0.00  0.00     0.060 A 
HETATM    4  C   UNK N   1      35.298  13.548  18.235  0.00  0.00     0.049 A 
HETATM    5  C   UNK N   1      35.767  11.479  17.083  0.00  0.00     0.020 A 
HETATM    6  C   UNK N   1      35.484  10.767  18.248  0.00  0.00     0.040 A 
ENDROOT
BRANCH   1   7
HETATM    7  C   UNK N   1      35.942  13.674  15.825  0.00  0.00     0.293 C 
HETATM    8  O   UNK N   1      36.877  14.461  15.838  0.00  0.00    -0.259 OA
BRANCH   7   9
HETATM    9  O   UNK N   1      35.206  13.584  14.685  0.00  0.00    -0.316 OA
BRANCH   9  10
HETATM   10  C   UNK N   1      35.644  13.836  13.404  0.00  0.00     0.209 C 
BRANCH  10  11
HETATM   11  C   UNK N   1      35.681  12.539  12.603  0.00  0.00     0.299 C 
BRANCH  11  12
HETATM   12  N   UNK N   1      35.746  11.378  13.483  0.00  0.00     0.089 N 
BRANCH  12  13
HETATM   13  C   UNK N   1      34.598  10.545  13.159  0.00  0.00     0.268 C 
HETATM   14  C   UNK N   1      33.590  10.577  14.293  0.00  0.00     0.037 C 
ENDBRANCH  12  13
BRANCH  12  15
HETATM   15  C   UNK N   1      36.942  10.623  13.129  0.00  0.00     0.268 C 
HETATM   16  C   UNK N   1      38.026  10.865  14.163  0.00  0.00     0.037 C 
ENDBRANCH  12  15
ENDBRANCH  11  12
ENDBRANCH  10  11
ENDBRANCH   9  10
ENDBRANCH   7   9
ENDBRANCH   1   7
BRANCH   3  17
HETATM   17  N   UNK N   1      34.644  13.544  20.570  0.00  0.00    -0.397 N 
HETATM   18  H   UNK N   1      34.977  13.286  21.461  0.00  0.00     0.156 HD
HETATM   19  H   UNK N   1      34.032  14.312  20.489  0.00  0.00     0.156 HD
ENDBRANCH   3  17
BRANCH   2  20
HETATM   20  O   UNK N   1      34.808  10.760  20.555  0.00  0.00    -0.349 OA
BRANCH  20  21
HETATM   21  C   UNK N   1      34.234   9.508  20.535  0.00  0.00     0.175 C 
BRANCH  21  22
HETATM   22  C   UNK N   1      32.897   9.517  21.240  0.00  0.00     0.022 C 
HETATM   23  C   UNK N   1      32.861  10.695  22.191  0.00  0.00     0.007 C 
ENDBRANCH  21  22
ENDBRANCH  20  21
ENDBRANCH   2  20
TORSDOF 11
ENDMDL
MODEL 3
REMARK VINA RESULT:      -5.3      1.840      2.289
REMARK  11 active torsions:
REMARK  status: ('A' for Active; 'I' for Inactive)
REMARK    1  A    between atoms: O_1  and  C_9 
REMARK    2  A    between atoms: O_1  and  C_13 
REMARK    3  A    between atoms: O_2  and  C_14 
REMARK    4  A    between atoms: O_2  and  C_18 
REMARK    5  A    between atoms: N_4  and  C_6 
REMARK    6  A    between atoms: N_4  and  C_7 
REMARK    7  A    between atoms: N_4  and  C_8 
REMARK    8  A    between atoms: N_5  and  C_15 
REMARK    9  A    between atoms: C_6  and  C_9 
REMARK   10  A    between atoms: C_12  and  C_13 
REMARK   11  A    between atoms: C_18  and  C_20 
ROOT
HETATM    1  C   UNK N   1      33.538  17.833   7.849  0.00  0.00     0.041 A 
HETATM    2  C   UNK N   1      31.249  17.160   6.343  0.00  0.00     0.095 A 
HETATM    3  C   UNK N   1      31.146  17.380   7.725  0.00  0.00     0.060 A 
HETATM    4  C   UNK N   1      32.283  17.721   8.465  0.00  0.00     0.049 A 
HETATM    5  C   UNK N   1      33.637  17.594   6.471  0.00  0.00     0.020 A 
HETATM    6  C   UNK N   1      32.505  17.266   5.724  0.00  0.00     0.040 A 
ENDROOT
BRANCH   1   7
HETATM    7  C   UNK N   1      34.723  18.210   8.677  0.00  0.00     0.293 C 
HETATM    8  O   UNK N   1      35.303  19.254   8.417  0.00  0.00    -0.259 OA
BRANCH   7   9
HETATM    9  O   UNK N   1      35.205  17.458   9.703  0.00  0.00    -0.316 OA
BRANCH   9  10
HETATM   10  C   UNK N   1      34.957  16.123   9.928  0.00  0.00     0.209 C 
BRANCH  10  11
HETATM   11  C   UNK N   1      36.198  15.454  10.511  0.00  0.00     0.299 C 
BRANCH  11  12
HETATM   12  N   UNK N   1      35.953  14.046  10.795  0.00  0.00     0.089 N 
BRANCH  12  13
HETATM   13  C   UNK N   1      37.255  13.424  10.976  0.00  0.00     0.268 C 
HETATM   14  C   UNK N   1      38.217  13.898   9.902  0.00  0.00     0.037 C 
ENDBRANCH  12  13
BRANCH  12  15
HETATM   15  C   UNK N   1      35.255  13.968  12.073  0.00  0.00     0.268 C 
HETATM   16  C   UNK N   1      36.144  14.510  13.177  0.00  0.00     0.037 C 
ENDBRANCH  12  15
ENDBRANCH  11  12
ENDBRANCH  10  11
ENDBRANCH   9  10
ENDBRANCH   7   9
ENDBRANCH   1   7
BRANCH   3  17
HETATM   17  N   UNK N   1      29.899  17.286   8.373  0.00  0.00    -0.397 N 
HETATM   18  H   UNK N   1      29.782  17.577   9.307  0.00  0.00     0.156 HD
HETATM   19  H   UNK N   1      29.126  16.922   7.882  0.00  0.00     0.156 HD
ENDBRANCH   3  17
BRANCH   2  20
HETATM   20  O   UNK N   1      30.137  16.863   5.627  0.00  0.00    -0.349 OA
BRANCH  20  21
HETATM   21  C   UNK N   1      29.568  17.755   4.744  0.00  0.00     0.175 C 
BRANCH  21  22
HETATM   22  C   UNK N   1      28.404  18.478   5.384  0.00  0.00     0.022 C 
HETATM   23  C   UNK N   1      27.992  19.621   4.481  0.00  0.00     0.007 C 
ENDBRANCH  21  22
ENDBRANCH  20  21
ENDBRANCH   2  20
TORSDOF 11
ENDMDL
MODEL 4
REMARK VINA RESULT:      -5.2      2.488      6.746
REMARK  11 active torsions:
REMARK  status: ('A' for Active; 'I' for Inactive)
REMARK    1  A    between atoms: O_1  and  C_9 
REMARK    2  A    between atoms: O_1  and  C_13 
REMARK    3  A    between atoms: O_2  and  C_14 
REMARK    4  A    between atoms: O_2  and  C_18 
REMARK    5  A    between atoms: N_4  and  C_6 
REMARK    6  A    between atoms: N_4  and  C_7 
REMARK    7  A    between atoms: N_4  and  C_8 
REMARK    8  A    between atoms: N_5  and  C_15 
REMARK    9  A    between atoms: C_6  and  C_9 
REMARK   10  A    between atoms: C_12  and  C_13 
REMARK   11  A    between atoms: C_18  and  C_20 
ROOT
HETATM    1  C   UNK N   1      34.703  16.911   9.211  0.00  0.00     0.041 A 
HETATM    2  C   UNK N   1      34.643  14.947  11.235  0.00  0.00     0.095 A 
HETATM    3  C   UNK N   1      33.925  14.756  10.045  0.00  0.00     0.060 A 
HETATM    4  C   UNK N   1      33.965  15.730   9.042  0.00  0.00     0.049 A 
HETATM    5  C   UNK N   1      35.403  17.103  10.410  0.00  0.00     0.020 A 
HETATM    6  C   UNK N   1      35.379  16.130  11.410  0.00  0.00     0.040 A 
ENDROOT
BRANCH   1   7
HETATM    7  C   UNK N   1      34.724  17.918   8.108  0.00  0.00     0.293 C 
HETATM    8  O   UNK N   1      34.940  19.087   8.394  0.00  0.00    -0.259 OA
BRANCH   7   9
HETATM    9  O   UNK N   1      34.509  17.617   6.798  0.00  0.00    -0.316 OA
BRANCH   9  10
HETATM   10  C   UNK N   1      33.312  17.697   6.124  0.00  0.00     0.209 C 
BRANCH  10  11
HETATM   11  C   UNK N   1      32.960  16.339   5.525  0.00  0.00     0.299 C 
BRANCH  11  12
HETATM   12  N   UNK N   1      31.568  15.994   5.786  0.00  0.00     0.089 N 
BRANCH  12  13
HETATM   13  C   UNK N   1      31.577  14.703   6.457  0.00  0.00     0.268 C 
HETATM   14  C   UNK N   1      32.799  13.904   6.042  0.00  0.00     0.037 C 
ENDBRANCH  12  13
BRANCH  12  15
HETATM   15  C   UNK N   1      31.042  16.969   6.734  0.00  0.00     0.268 C 
HETATM   16  C   UNK N   1      29.655  17.407   6.304  0.00  0.00     0.037 C 
ENDBRANCH  12  15
ENDBRANCH  11  12
ENDBRANCH  10  11
ENDBRANCH   9  10
ENDBRANCH   7   9
ENDBRANCH   1   7
BRANCH   3  17
HETATM   17  N   UNK N   1      33.183  13.577   9.839  0.00  0.00    -0.397 N 
HETATM   18  H   UNK N   1      33.609  12.754   9.504  0.00  0.00     0.156 HD
HETATM   19  H   UNK N   1      32.217  13.575  10.034  0.00  0.00     0.156 HD
ENDBRANCH   3  17
BRANCH   2  20
HETATM   20  O   UNK N   1      34.628  13.984  12.189  0.00  0.00    -0.349 OA
BRANCH  20  21
HETATM   21  C   UNK N   1      35.766  13.588  12.858  0.00  0.00     0.175 C 
BRANCH  21  22
HETATM   22  C   UNK N   1      35.504  13.464  14.341  0.00  0.00     0.022 C 
HETATM   23  C   UNK N   1      36.698  14.015  15.091  0.00  0.00     0.007 C 
ENDBRANCH  21  22
ENDBRANCH  20  21
ENDBRANCH   2  20
TORSDOF 11
ENDMDL
MODEL 5
REMARK VINA RESULT:      -5.2      2.023      2.828
REMARK  11 active torsions:
REMARK  status: ('A' for Active; 'I' for Inactive)
REMARK    1  A    between atoms: O_1  and  C_9 
REMARK    2  A    between atoms: O_1  and  C_13 
REMARK    3  A    between atoms: O_2  and  C_14 
REMARK    4  A    between atoms: O_2  and  C_18 
REMARK    5  A    between atoms: N_4  and  C_6 
REMARK    6  A    between atoms: N_4  and  C_7 
REMARK    7  A    between atoms: N_4  and  C_8 
REMARK    8  A    between atoms: N_5  and  C_15 
REMARK    9  A    between atoms: C_6  and  C_9 
REMARK   10  A    between atoms: C_12  and  C_13 
REMARK   11  A    between atoms: C_18  and  C_20 
ROOT
HETATM    1  C   UNK N   1      33.383  17.789   7.756  0.00  0.00     0.041 A 
HETATM    2  C   UNK N   1      31.237  17.152   6.038  0.00  0.00     0.095 A 
HETATM    3  C   UNK N   1      32.534  17.299   5.524  0.00  0.00     0.060 A 
HETATM    4  C   UNK N   1      33.595  17.607   6.381  0.00  0.00     0.049 A 
HETATM    5  C   UNK N   1      32.081  17.659   8.261  0.00  0.00     0.020 A 
HETATM    6  C   UNK N   1      31.020  17.338   7.414  0.00  0.00     0.040 A 
ENDROOT
BRANCH   1   7
HETATM    7  C   UNK N   1      34.548  18.107   8.635  0.00  0.00     0.293 C 
HETATM    8  O   UNK N   1      35.215  19.098   8.377  0.00  0.00    -0.259 OA
BRANCH   7   9
HETATM    9  O   UNK N   1      34.922  17.355   9.705  0.00  0.00    -0.316 OA
BRANCH   9  10
HETATM   10  C   UNK N   1      35.275  16.025   9.690  0.00  0.00     0.209 C 
BRANCH  10  11
HETATM   11  C   UNK N   1      34.216  15.197  10.412  0.00  0.00     0.299 C 
BRANCH  11  12
HETATM   12  N   UNK N   1      33.936  13.960   9.693  0.00  0.00     0.089 N 
BRANCH  12  13
HETATM   13  C   UNK N   1      32.708  14.181   8.946  0.00  0.00     0.268 C 
HETATM   14  C   UNK N   1      32.967  14.044   7.456  0.00  0.00     0.037 C 
ENDBRANCH  12  13
BRANCH  12  15
HETATM   15  C   UNK N   1      35.004  13.764   8.720  0.00  0.00     0.268 C 
HETATM   16  C   UNK N   1      35.801  12.522   9.076  0.00  0.00     0.037 C 
ENDBRANCH  12  15
ENDBRANCH  11  12
ENDBRANCH  10  11
ENDBRANCH   9  10
ENDBRANCH   7   9
ENDBRANCH   1   7
BRANCH   3  17
HETATM   17  N   UNK N   1      32.784  17.112   4.150  0.00  0.00    -0.397 N 
HETATM   18  H   UNK N   1      32.940  16.215   3.774  0.00  0.00     0.156 HD
HETATM   19  H   UNK N   1      32.803  17.895   3.553  0.00  0.00     0.156 HD
ENDBRANCH   3  17
BRANCH   2  20
HETATM   20  O   UNK N   1      30.219  16.819   5.207  0.00  0.00    -0.349 OA
BRANCH  20  21
HETATM   21  C   UNK N   1      28.916  17.197   5.447  0.00  0.00     0.175 C 
BRANCH  21  22
HETATM   22  C   UNK N   1      28.630  18.556   4.850  0.00  0.00     0.022 C 
HETATM   23  C   UNK N   1      27.847  19.371   5.858  0.00  0.00     0.007 C 
ENDBRANCH  21  22
ENDBRANCH  20  21
ENDBRANCH   2  20
TORSDOF 11
ENDMDL
MODEL 6
REMARK VINA RESULT:      -5.0      3.728      8.139
REMARK  11 active torsions:
REMARK  status: ('A' for Active; 'I' for Inactive)
REMARK    1  A    between atoms: O_1  and  C_9 
REMARK    2  A    between atoms: O_1  and  C_13 
REMARK    3  A    between atoms: O_2  and  C_14 
REMARK    4  A    between atoms: O_2  and  C_18 
REMARK    5  A    between atoms: N_4  and  C_6 
REMARK    6  A    between atoms: N_4  and  C_7 
REMARK    7  A    between atoms: N_4  and  C_8 
REMARK    8  A    between atoms: N_5  and  C_15 
REMARK    9  A    between atoms: C_6  and  C_9 
REMARK   10  A    between atoms: C_12  and  C_13 
REMARK   11  A    between atoms: C_18  and  C_20 
ROOT
HETATM    1  C   UNK N   1      35.490  15.049  11.475  0.00  0.00     0.041 A 
HETATM    2  C   UNK N   1      35.710  13.303  13.680  0.00  0.00     0.095 A 
HETATM    3  C   UNK N   1      36.360  14.546  13.696  0.00  0.00     0.060 A 
HETATM    4  C   UNK N   1      36.241  15.411  12.603  0.00  0.00     0.049 A 
HETATM    5  C   UNK N   1      34.859  13.797  11.458  0.00  0.00     0.020 A 
HETATM    6  C   UNK N   1      34.962  12.935  12.550  0.00  0.00     0.040 A 
ENDROOT
BRANCH   1   7
HETATM    7  C   UNK N   1      35.383  16.009  10.336  0.00  0.00     0.293 C 
HETATM    8  O   UNK N   1      35.563  17.197  10.560  0.00  0.00    -0.259 OA
BRANCH   7   9
HETATM    9  O   UNK N   1      35.087  15.645   9.059  0.00  0.00    -0.316 OA
BRANCH   9  10
HETATM   10  C   UNK N   1      33.876  15.796   8.422  0.00  0.00     0.209 C 
BRANCH  10  11
HETATM   11  C   UNK N   1      33.978  16.885   7.360  0.00  0.00     0.299 C 
BRANCH  11  12
HETATM   12  N   UNK N   1      32.718  17.605   7.221  0.00  0.00     0.089 N 
BRANCH  12  13
HETATM   13  C   UNK N   1      32.205  17.296   5.896  0.00  0.00     0.268 C 
HETATM   14  C   UNK N   1      33.349  16.966   4.954  0.00  0.00     0.037 C 
ENDBRANCH  12  13
BRANCH  12  15
HETATM   15  C   UNK N   1      31.782  17.044   8.188  0.00  0.00     0.268 C 
HETATM   16  C   UNK N   1      30.904  18.145   8.752  0.00  0.00     0.037 C 
ENDBRANCH  12  15
ENDBRANCH  11  12
ENDBRANCH  10  11
ENDBRANCH   9  10
ENDBRANCH   7   9
ENDBRANCH   1   7
BRANCH   3  17
HETATM   17  N   UNK N   1      37.113  14.946  14.818  0.00  0.00    -0.397 N 
HETATM   18  H   UNK N   1      36.948  15.807  15.267  0.00  0.00     0.156 HD
HETATM   19  H   UNK N   1      37.820  14.351  15.161  0.00  0.00     0.156 HD
ENDBRANCH   3  17
BRANCH   2  20
HETATM   20  O   UNK N   1      35.802  12.485  14.757  0.00  0.00    -0.349 OA
BRANCH  20  21
HETATM   21  C   UNK N   1      34.730  12.230  15.584  0.00  0.00     0.175 C 
BRANCH  21  22
HETATM   22  C   UNK N   1      35.167  12.181  17.031  0.00  0.00     0.022 C 
HETATM   23  C   UNK N   1      35.153  13.589  17.587  0.00  0.00     0.007 C 
ENDBRANCH  21  22
ENDBRANCH  20  21
ENDBRANCH   2  20
TORSDOF 11
ENDMDL
MODEL 7
REMARK VINA RESULT:      -5.0      7.791     11.676
REMARK  11 active torsions:
REMARK  status: ('A' for Active; 'I' for Inactive)
REMARK    1  A    between atoms: O_1  and  C_9 
REMARK    2  A    between atoms: O_1  and  C_13 
REMARK    3  A    between atoms: O_2  and  C_14 
REMARK    4  A    between atoms: O_2  and  C_18 
REMARK    5  A    between atoms: N_4  and  C_6 
REMARK    6  A    between atoms: N_4  and  C_7 
REMARK    7  A    between atoms: N_4  and  C_8 
REMARK    8  A    between atoms: N_5  and  C_15 
REMARK    9  A    between atoms: C_6  and  C_9 
REMARK   10  A    between atoms: C_12  and  C_13 
REMARK   11  A    between atoms: C_18  and  C_20 
ROOT
HETATM    1  C   UNK N   1      35.438  12.425  16.980  0.00  0.00     0.041 A 
HETATM    2  C   UNK N   1      35.541  11.272  19.554  0.00  0.00     0.095 A 
HETATM    3  C   UNK N   1      35.144  12.608  19.393  0.00  0.00     0.060 A 
HETATM    4  C   UNK N   1      35.087  13.172  18.115  0.00  0.00     0.049 A 
HETATM    5  C   UNK N   1      35.851  11.096  17.149  0.00  0.00     0.020 A 
HETATM    6  C   UNK N   1      35.897  10.523  18.420  0.00  0.00     0.040 A 
ENDROOT
BRANCH   1   7
HETATM    7  C   UNK N   1      35.352  13.066  15.634  0.00  0.00     0.293 C 
HETATM    8  O   UNK N   1      34.284  13.023  15.039  0.00  0.00    -0.259 OA
BRANCH   7   9
HETATM    9  O   UNK N   1      36.393  13.690  15.020  0.00  0.00    -0.316 OA
BRANCH   9  10
HETATM   10  C   UNK N   1      36.367  14.315  13.794  0.00  0.00     0.209 C 
BRANCH  10  11
HETATM   11  C   UNK N   1      36.735  13.322  12.696  0.00  0.00     0.299 C 
BRANCH  11  12
HETATM   12  N   UNK N   1      36.073  13.656  11.441  0.00  0.00     0.089 N 
BRANCH  12  13
HETATM   13  C   UNK N   1      35.742  12.396  10.795  0.00  0.00     0.268 C 
HETATM   14  C   UNK N   1      36.732  12.100   9.682  0.00  0.00     0.037 C 
ENDBRANCH  12  13
BRANCH  12  15
HETATM   15  C   UNK N   1      34.815  14.317  11.768  0.00  0.00     0.268 C 
HETATM   16  C   UNK N   1      34.271  15.023  10.541  0.00  0.00     0.037 C 
ENDBRANCH  12  15
ENDBRANCH  11  12
ENDBRANCH  10  11
ENDBRANCH   9  10
ENDBRANCH   7   9
ENDBRANCH   1   7
BRANCH   3  17
HETATM   17  N   UNK N   1      34.775  13.383  20.510  0.00  0.00    -0.397 N 
HETATM   18  H   UNK N   1      34.270  14.223  20.409  0.00  0.00     0.156 HD
HETATM   19  H   UNK N   1      35.027  13.079  21.413  0.00  0.00     0.156 HD
ENDBRANCH   3  17
BRANCH   2  20
HETATM   20  O   UNK N   1      35.561  10.722  20.792  0.00  0.00    -0.349 OA
BRANCH  20  21
HETATM   21  C   UNK N   1      34.891   9.557  21.094  0.00  0.00     0.175 C 
BRANCH  21  22
HETATM   22  C   UNK N   1      33.395   9.764  21.030  0.00  0.00     0.022 C 
HETATM   23  C   UNK N   1      32.981  10.657  22.181  0.00  0.00     0.007 C 
ENDBRANCH  21  22
ENDBRANCH  20  21
ENDBRANCH   2  20
TORSDOF 11
ENDMDL
MODEL 8
REMARK VINA RESULT:      -4.9      2.158      2.850
REMARK  11 active torsions:
REMARK  status: ('A' for Active; 'I' for Inactive)
REMARK    1  A    between atoms: O_1  and  C_9 
REMARK    2  A    between atoms: O_1  and  C_13 
REMARK    3  A    between atoms: O_2  and  C_14 
REMARK    4  A    between atoms: O_2  and  C_18 
REMARK    5  A    between atoms: N_4  and  C_6 
REMARK    6  A    between atoms: N_4  and  C_7 
REMARK    7  A    between atoms: N_4  and  C_8 
REMARK    8  A    between atoms: N_5  and  C_15 
REMARK    9  A    between atoms: C_6  and  C_9 
REMARK   10  A    between atoms: C_12  and  C_13 
REMARK   11  A    between atoms: C_18  and  C_20 
ROOT
HETATM    1  C   UNK N   1      33.387  17.790   7.842  0.00  0.00     0.041 A 
HETATM    2  C   UNK N   1      31.138  17.155   6.260  0.00  0.00     0.095 A 
HETATM    3  C   UNK N   1      30.994  17.375   7.638  0.00  0.00     0.060 A 
HETATM    4  C   UNK N   1      32.110  17.697   8.415  0.00  0.00     0.049 A 
HETATM    5  C   UNK N   1      33.528  17.552   6.467  0.00  0.00     0.020 A 
HETATM    6  C   UNK N   1      32.416  17.243   5.683  0.00  0.00     0.040 A 
ENDROOT
BRANCH   1   7
HETATM    7  C   UNK N   1      34.549  18.147   8.709  0.00  0.00     0.293 C 
HETATM    8  O   UNK N   1      35.273  19.068   8.358  0.00  0.00    -0.259 OA
BRANCH   7   9
HETATM    9  O   UNK N   1      34.860  17.506   9.868  0.00  0.00    -0.316 OA
BRANCH   9  10
HETATM   10  C   UNK N   1      35.394  16.243   9.988  0.00  0.00     0.209 C 
BRANCH  10  11
HETATM   11  C   UNK N   1      34.287  15.234  10.274  0.00  0.00     0.299 C 
BRANCH  11  12
HETATM   12  N   UNK N   1      34.205  14.230   9.221  0.00  0.00     0.089 N 
BRANCH  12  13
HETATM   13  C   UNK N   1      34.585  12.962   9.822  0.00  0.00     0.268 C 
HETATM   14  C   UNK N   1      35.693  12.309   9.016  0.00  0.00     0.037 C 
ENDBRANCH  12  13
BRANCH  12  15
HETATM   15  C   UNK N   1      32.806  14.119   8.825  0.00  0.00     0.268 C 
HETATM   16  C   UNK N   1      32.710  13.936   7.322  0.00  0.00     0.037 C 
ENDBRANCH  12  15
ENDBRANCH  11  12
ENDBRANCH  10  11
ENDBRANCH   9  10
ENDBRANCH   7   9
ENDBRANCH   1   7
BRANCH   3  17
HETATM   17  N   UNK N   1      29.724  17.299   8.244  0.00  0.00    -0.397 N 
HETATM   18  H   UNK N   1      29.554  17.694   9.131  0.00  0.00     0.156 HD
HETATM   19  H   UNK N   1      28.990  16.843   7.771  0.00  0.00     0.156 HD
ENDBRANCH   3  17
BRANCH   2  20
HETATM   20  O   UNK N   1      30.047  16.877   5.506  0.00  0.00    -0.349 OA
BRANCH  20  21
HETATM   21  C   UNK N   1      29.785  15.614   5.022  0.00  0.00     0.175 C 
BRANCH  21  22
HETATM   22  C   UNK N   1      28.779  15.667   3.895  0.00  0.00     0.022 C 
HETATM   23  C   UNK N   1      29.497  16.081   2.627  0.00  0.00     0.007 C 
ENDBRANCH  21  22
ENDBRANCH  20  21
ENDBRANCH   2  20
TORSDOF 11
ENDMDL
MODEL 9
REMARK VINA RESULT:      -4.9     16.208     17.704
REMARK  11 active torsions:
REMARK  status: ('A' for Active; 'I' for Inactive)
REMARK    1  A    between atoms: O_1  and  C_9 
REMARK    2  A    between atoms: O_1  and  C_13 
REMARK    3  A    between atoms: O_2  and  C_14 
REMARK    4  A    between atoms: O_2  and  C_18 
REMARK    5  A    between atoms: N_4  and  C_6 
REMARK    6  A    between atoms: N_4  and  C_7 
REMARK    7  A    between atoms: N_4  and  C_8 
REMARK    8  A    between atoms: N_5  and  C_15 
REMARK    9  A    between atoms: C_6  and  C_9 
REMARK   10  A    between atoms: C_12  and  C_13 
REMARK   11  A    between atoms: C_18  and  C_20 
ROOT
HETATM    1  C   UNK N   1      26.090  26.791  -4.634  0.00  0.00     0.041 A 
HETATM    2  C   UNK N   1      26.285  25.156  -6.925  0.00  0.00     0.095 A 
HETATM    3  C   UNK N   1      26.879  24.756  -5.719  0.00  0.00     0.060 A 
HETATM    4  C   UNK N   1      26.772  25.567  -4.585  0.00  0.00     0.049 A 
HETATM    5  C   UNK N   1      25.515  27.194  -5.848  0.00  0.00     0.020 A 
HETATM    6  C   UNK N   1      25.605  26.384  -6.980  0.00  0.00     0.040 A 
ENDROOT
BRANCH   1   7
HETATM    7  C   UNK N   1      25.993  27.619  -3.395  0.00  0.00     0.293 C 
HETATM    8  O   UNK N   1      25.912  27.044  -2.319  0.00  0.00    -0.259 OA
BRANCH   7   9
HETATM    9  O   UNK N   1      25.979  28.979  -3.387  0.00  0.00    -0.316 OA
BRANCH   9  10
HETATM   10  C   UNK N   1      27.055  29.812  -3.598  0.00  0.00     0.209 C 
BRANCH  10  11
HETATM   11  C   UNK N   1      27.488  30.446  -2.280  0.00  0.00     0.299 C 
BRANCH  11  12
HETATM   12  N   UNK N   1      28.418  29.583  -1.562  0.00  0.00     0.089 N 
BRANCH  12  13
HETATM   13  C   UNK N   1      29.448  29.196  -2.514  0.00  0.00     0.268 C 
HETATM   14  C   UNK N   1      30.825  29.382  -1.902  0.00  0.00     0.037 C 
ENDBRANCH  12  13
BRANCH  12  15
HETATM   15  C   UNK N   1      29.062  30.390  -0.532  0.00  0.00     0.268 C 
HETATM   16  C   UNK N   1      28.291  30.273   0.769  0.00  0.00     0.037 C 
ENDBRANCH  12  15
ENDBRANCH  11  12
ENDBRANCH  10  11
ENDBRANCH   9  10
ENDBRANCH   7   9
ENDBRANCH   1   7
BRANCH   3  17
HETATM   17  N   UNK N   1      27.562  23.527  -5.631  0.00  0.00    -0.397 N 
HETATM   18  H   UNK N   1      28.542  23.476  -5.720  0.00  0.00     0.156 HD
HETATM   19  H   UNK N   1      27.049  22.700  -5.478  0.00  0.00     0.156 HD
ENDBRANCH   3  17
BRANCH   2  20
HETATM   20  O   UNK N   1      26.363  24.349  -8.012  0.00  0.00    -0.349 OA
BRANCH  20  21
HETATM   21  C   UNK N   1      25.268  23.683  -8.518  0.00  0.00     0.175 C 
BRANCH  21  22
HETATM   22  C   UNK N   1      25.492  22.188  -8.502  0.00  0.00     0.022 C 
HETATM   23  C   UNK N   1      24.764  21.604  -7.309  0.00  0.00     0.007 C 
ENDBRANCH  21  22
ENDBRANCH  20  21
ENDBRANCH   2  20
TORSDOF 11
ENDMDL
