MODEL 1
REMARK VINA RESULT:      -7.4      0.000      0.000
REMARK  4 active torsions:
REMARK  status: ('A' for Active; 'I' for Inactive)
REMARK    1  A    between atoms: S_2  and  N_8 
REMARK    2  A    between atoms: S_2  and  C_21 
REMARK    3  A    between atoms: N_6  and  N_7 
REMARK       I    between atoms: N_7  and  C_18 
REMARK    4  A    between atoms: C_18  and  C_19 
ROOT
HETATM    1  O   UNK N   1      26.498  18.735   4.373  0.00  0.00    -0.266 OA
HETATM    2  N   UNK N   1      26.383  17.052   5.856  0.00  0.00    -0.263 N 
HETATM    3  C   UNK N   1      25.822  17.893   4.942  0.00  0.00     0.270 C 
HETATM    4  H   UNK N   1      25.780  16.488   6.393  0.00  0.00     0.190 HD
ENDROOT
BRANCH   3   5
HETATM    5  C   UNK N   1      24.385  17.810   4.614  0.00  0.00     0.035 A 
HETATM    6  C   UNK N   1      23.674  18.900   4.086  0.00  0.00     0.044 A 
HETATM    7  C   UNK N   1      22.307  18.770   3.784  0.00  0.00     0.102 A 
HETATM    8  C   UNK N   1      21.643  17.558   4.058  0.00  0.00     0.057 A 
HETATM    9 Cl   UNK N   1      19.932  17.340   3.727  0.00  0.00    -0.083 Cl
HETATM   10  C   UNK N   1      22.353  16.484   4.590  0.00  0.00     0.026 A 
HETATM   11  C   UNK N   1      23.715  16.602   4.846  0.00  0.00     0.019 A 
BRANCH   7  12
HETATM   12  S   UNK N   1      21.443  20.124   2.981  0.00  0.00     0.258 S 
HETATM   13  O   UNK N   1      20.296  20.717   3.813  0.00  0.00    -0.201 OA
HETATM   14  O   UNK N   1      22.332  21.349   2.719  0.00  0.00    -0.201 OA
BRANCH  12  15
HETATM   15  N   UNK N   1      20.727  19.751   1.411  0.00  0.00    -0.324 N 
HETATM   16  H   UNK N   1      20.030  20.130   0.770  0.00  0.00     0.169 HD
HETATM   17  H   UNK N   1      21.135  18.898   1.029  0.00  0.00     0.169 HD
ENDBRANCH  12  15
ENDBRANCH   7  12
ENDBRANCH   3   5
BRANCH   2  18
HETATM   18  N   UNK N   1      27.749  16.937   6.082  0.00  0.00    -0.284 N 
HETATM   19  C   UNK N   1      28.652  16.389   5.089  0.00  0.00     0.109 A 
HETATM   20  C   UNK N   1      30.070  16.490   5.737  0.00  0.00     0.067 A 
HETATM   21  C   UNK N   1      28.324  14.934   4.812  0.00  0.00     0.034 C 
HETATM   22  C   UNK N   1      29.802  17.202   7.022  0.00  0.00    -0.028 A 
HETATM   23  C   UNK N   1      28.475  17.452   7.173  0.00  0.00     0.057 A 
HETATM   24  C   UNK N   1      30.737  17.611   7.976  0.00  0.00     0.009 A 
HETATM   25  C   UNK N   1      28.003  18.170   8.278  0.00  0.00     0.031 A 
HETATM   26  C   UNK N   1      28.914  18.590   9.257  0.00  0.00     0.002 A 
HETATM   27  C   UNK N   1      30.282  18.302   9.110  0.00  0.00     0.001 A 
ENDBRANCH   2  18
TORSDOF 4
ENDMDL
MODEL 2
REMARK VINA RESULT:      -7.3      9.997     12.894
REMARK  4 active torsions:
REMARK  status: ('A' for Active; 'I' for Inactive)
REMARK    1  A    between atoms: S_2  and  N_8 
REMARK    2  A    between atoms: S_2  and  C_21 
REMARK    3  A    between atoms: N_6  and  N_7 
REMARK       I    between atoms: N_7  and  C_18 
REMARK    4  A    between atoms: C_18  and  C_19 
ROOT
HETATM    1  O   UNK N   1      36.653  13.446  12.600  0.00  0.00    -0.266 OA
HETATM    2  N   UNK N   1      34.493  13.013  13.042  0.00  0.00    -0.263 N 
HETATM    3  C   UNK N   1      35.477  13.673  12.367  0.00  0.00     0.270 C 
HETATM    4  H   UNK N   1      33.567  13.327  12.927  0.00  0.00     0.190 HD
ENDROOT
BRANCH   3   5
HETATM    5  C   UNK N   1      35.150  14.677  11.336  0.00  0.00     0.035 A 
HETATM    6  C   UNK N   1      34.327  14.381  10.237  0.00  0.00     0.044 A 
HETATM    7  C   UNK N   1      34.040  15.374   9.283  0.00  0.00     0.102 A 
HETATM    8  C   UNK N   1      34.620  16.652   9.409  0.00  0.00     0.057 A 
HETATM    9 Cl   UNK N   1      34.322  17.928   8.239  0.00  0.00    -0.083 Cl
HETATM   10  C   UNK N   1      35.442  16.935  10.497  0.00  0.00     0.026 A 
HETATM   11  C   UNK N   1      35.688  15.964  11.462  0.00  0.00     0.019 A 
BRANCH   7  12
HETATM   12  S   UNK N   1      32.877  15.024   7.961  0.00  0.00     0.258 S 
HETATM   13  O   UNK N   1      32.283  13.608   8.008  0.00  0.00    -0.201 OA
HETATM   14  O   UNK N   1      31.625  15.912   7.994  0.00  0.00    -0.201 OA
BRANCH  12  15
HETATM   15  N   UNK N   1      33.506  15.204   6.321  0.00  0.00    -0.324 N 
HETATM   16  H   UNK N   1      34.139  14.726   5.679  0.00  0.00     0.169 HD
HETATM   17  H   UNK N   1      33.120  16.039   5.883  0.00  0.00     0.169 HD
ENDBRANCH  12  15
ENDBRANCH   7  12
ENDBRANCH   3   5
BRANCH   2  18
HETATM   18  N   UNK N   1      34.710  11.930  13.883  0.00  0.00    -0.284 N 
HETATM   19  C   UNK N   1      34.956  10.595  13.375  0.00  0.00     0.109 A 
HETATM   20  C   UNK N   1      35.186   9.716  14.646  0.00  0.00     0.067 A 
HETATM   21  C   UNK N   1      33.748  10.080  12.615  0.00  0.00     0.034 C 
HETATM   22  C   UNK N   1      35.143  10.714  15.756  0.00  0.00    -0.028 A 
HETATM   23  C   UNK N   1      34.886  11.961  15.281  0.00  0.00     0.057 A 
HETATM   24  C   UNK N   1      35.351  10.479  17.117  0.00  0.00     0.009 A 
HETATM   25  C   UNK N   1      34.865  13.066  16.140  0.00  0.00     0.031 A 
HETATM   26  C   UNK N   1      35.065  12.863  17.513  0.00  0.00     0.002 A 
HETATM   27  C   UNK N   1      35.300  11.567  18.002  0.00  0.00     0.001 A 
ENDBRANCH   2  18
TORSDOF 4
ENDMDL
MODEL 3
REMARK VINA RESULT:      -7.3      0.931      2.575
REMARK  4 active torsions:
REMARK  status: ('A' for Active; 'I' for Inactive)
REMARK    1  A    between atoms: S_2  and  N_8 
REMARK    2  A    between atoms: S_2  and  C_21 
REMARK    3  A    between atoms: N_6  and  N_7 
REMARK       I    between atoms: N_7  and  C_18 
REMARK    4  A    between atoms: C_18  and  C_19 
ROOT
HETATM    1  O   UNK N   1      26.452  19.257   4.432  0.00  0.00    -0.266 OA
HETATM    2  N   UNK N   1      26.526  17.372   5.652  0.00  0.00    -0.263 N 
HETATM    3  C   UNK N   1      25.875  18.270   4.860  0.00  0.00     0.270 C 
HETATM    4  H   UNK N   1      25.990  16.672   6.090  0.00  0.00     0.190 HD
ENDROOT
BRANCH   3   5
HETATM    5  C   UNK N   1      24.458  18.076   4.495  0.00  0.00     0.035 A 
HETATM    6  C   UNK N   1      23.662  19.123   4.003  0.00  0.00     0.044 A 
HETATM    7  C   UNK N   1      22.318  18.887   3.664  0.00  0.00     0.102 A 
HETATM    8  C   UNK N   1      21.761  17.608   3.865  0.00  0.00     0.057 A 
HETATM    9 Cl   UNK N   1      20.082  17.255   3.485  0.00  0.00    -0.083 Cl
HETATM   10  C   UNK N   1      22.555  16.577   4.362  0.00  0.00     0.026 A 
HETATM   11  C   UNK N   1      23.896  16.803   4.654  0.00  0.00     0.019 A 
BRANCH   7  12
HETATM   12  S   UNK N   1      21.351  20.196   2.906  0.00  0.00     0.258 S 
HETATM   13  O   UNK N   1      20.194  20.706   3.780  0.00  0.00    -0.201 OA
HETATM   14  O   UNK N   1      22.156  21.476   2.638  0.00  0.00    -0.201 OA
BRANCH  12  15
HETATM   15  N   UNK N   1      20.613  19.801   1.352  0.00  0.00    -0.324 N 
HETATM   16  H   UNK N   1      20.729  19.134   0.589  0.00  0.00     0.169 HD
HETATM   17  H   UNK N   1      19.835  20.431   1.158  0.00  0.00     0.169 HD
ENDBRANCH  12  15
ENDBRANCH   7  12
ENDBRANCH   3   5
BRANCH   2  18
HETATM   18  N   UNK N   1      27.895  17.379   5.886  0.00  0.00    -0.284 N 
HETATM   19  C   UNK N   1      28.452  17.575   7.210  0.00  0.00     0.109 A 
HETATM   20  C   UNK N   1      29.999  17.464   7.016  0.00  0.00     0.067 A 
HETATM   21  C   UNK N   1      28.105  18.953   7.738  0.00  0.00     0.034 C 
HETATM   22  C   UNK N   1      30.131  17.105   5.572  0.00  0.00    -0.028 A 
HETATM   23  C   UNK N   1      28.914  17.052   4.970  0.00  0.00     0.057 A 
HETATM   24  C   UNK N   1      31.307  16.825   4.873  0.00  0.00     0.009 A 
HETATM   25  C   UNK N   1      28.795  16.668   3.629  0.00  0.00     0.031 A 
HETATM   26  C   UNK N   1      29.956  16.386   2.896  0.00  0.00     0.002 A 
HETATM   27  C   UNK N   1      31.214  16.473   3.517  0.00  0.00     0.001 A 
ENDBRANCH   2  18
TORSDOF 4
ENDMDL
MODEL 4
REMARK VINA RESULT:      -7.1      4.908      7.397
REMARK  4 active torsions:
REMARK  status: ('A' for Active; 'I' for Inactive)
REMARK    1  A    between atoms: S_2  and  N_8 
REMARK    2  A    between atoms: S_2  and  C_21 
REMARK    3  A    between atoms: N_6  and  N_7 
REMARK       I    between atoms: N_7  and  C_18 
REMARK    4  A    between atoms: C_18  and  C_19 
ROOT
HETATM    1  O   UNK N   1      22.393  15.948   4.488  0.00  0.00    -0.266 OA
HETATM    2  N   UNK N   1      21.865  17.854   5.552  0.00  0.00    -0.263 N 
HETATM    3  C   UNK N   1      22.047  16.504   5.517  0.00  0.00     0.270 C 
HETATM    4  H   UNK N   1      21.451  18.242   6.356  0.00  0.00     0.190 HD
ENDROOT
BRANCH   3   5
HETATM    5  C   UNK N   1      21.833  15.676   6.721  0.00  0.00     0.035 A 
HETATM    6  C   UNK N   1      22.745  14.685   7.119  0.00  0.00     0.044 A 
HETATM    7  C   UNK N   1      22.500  13.926   8.277  0.00  0.00     0.102 A 
HETATM    8  C   UNK N   1      21.313  14.131   9.008  0.00  0.00     0.057 A 
HETATM    9 Cl   UNK N   1      20.936  13.199  10.450  0.00  0.00    -0.083 Cl
HETATM   10  C   UNK N   1      20.410  15.111   8.603  0.00  0.00     0.026 A 
HETATM   11  C   UNK N   1      20.677  15.890   7.482  0.00  0.00     0.019 A 
BRANCH   7  12
HETATM   12  S   UNK N   1      23.738  12.760   8.852  0.00  0.00     0.258 S 
HETATM   13  O   UNK N   1      23.268  11.297   8.853  0.00  0.00    -0.201 OA
HETATM   14  O   UNK N   1      24.989  12.707   7.963  0.00  0.00    -0.201 OA
BRANCH  12  15
HETATM   15  N   UNK N   1      24.360  13.044  10.479  0.00  0.00    -0.324 N 
HETATM   16  H   UNK N   1      25.240  12.987  10.991  0.00  0.00     0.169 HD
HETATM   17  H   UNK N   1      23.611  13.362  11.094  0.00  0.00     0.169 HD
ENDBRANCH  12  15
ENDBRANCH   7  12
ENDBRANCH   3   5
BRANCH   2  18
HETATM   18  N   UNK N   1      22.224  18.721   4.527  0.00  0.00    -0.284 N 
HETATM   19  C   UNK N   1      21.240  19.464   3.765  0.00  0.00     0.109 A 
HETATM   20  C   UNK N   1      22.074  20.330   2.768  0.00  0.00     0.067 A 
HETATM   21  C   UNK N   1      20.341  18.522   2.987  0.00  0.00     0.034 C 
HETATM   22  C   UNK N   1      23.483  20.040   3.169  0.00  0.00    -0.028 A 
HETATM   23  C   UNK N   1      23.525  19.134   4.181  0.00  0.00     0.057 A 
HETATM   24  C   UNK N   1      24.649  20.600   2.641  0.00  0.00     0.009 A 
HETATM   25  C   UNK N   1      24.744  18.762   4.761  0.00  0.00     0.031 A 
HETATM   26  C   UNK N   1      25.933  19.302   4.250  0.00  0.00     0.002 A 
HETATM   27  C   UNK N   1      25.885  20.216   3.183  0.00  0.00     0.001 A 
ENDBRANCH   2  18
TORSDOF 4
ENDMDL
MODEL 5
REMARK VINA RESULT:      -7.1     11.159     14.184
REMARK  4 active torsions:
REMARK  status: ('A' for Active; 'I' for Inactive)
REMARK    1  A    between atoms: S_2  and  N_8 
REMARK    2  A    between atoms: S_2  and  C_21 
REMARK    3  A    between atoms: N_6  and  N_7 
REMARK       I    between atoms: N_7  and  C_18 
REMARK    4  A    between atoms: C_18  and  C_19 
ROOT
HETATM    1  O   UNK N   1      37.135  13.094  13.939  0.00  0.00    -0.266 OA
HETATM    2  N   UNK N   1      35.014  12.573  14.466  0.00  0.00    -0.263 N 
HETATM    3  C   UNK N   1      35.948  13.161  13.665  0.00  0.00     0.270 C 
HETATM    4  H   UNK N   1      34.067  12.771  14.288  0.00  0.00     0.190 HD
ENDROOT
BRANCH   3   5
HETATM    5  C   UNK N   1      35.552  13.892  12.445  0.00  0.00     0.035 A 
HETATM    6  C   UNK N   1      34.832  13.280  11.406  0.00  0.00     0.044 A 
HETATM    7  C   UNK N   1      34.474  14.020  10.265  0.00  0.00     0.102 A 
HETATM    8  C   UNK N   1      34.881  15.364  10.149  0.00  0.00     0.057 A 
HETATM    9 Cl   UNK N   1      34.486  16.336   8.739  0.00  0.00    -0.083 Cl
HETATM   10  C   UNK N   1      35.602  15.962  11.180  0.00  0.00     0.026 A 
HETATM   11  C   UNK N   1      35.917  15.239  12.326  0.00  0.00     0.019 A 
BRANCH   7  12
HETATM   12  S   UNK N   1      33.436  13.267   9.009  0.00  0.00     0.258 S 
HETATM   13  O   UNK N   1      32.195  14.095   8.643  0.00  0.00    -0.201 OA
HETATM   14  O   UNK N   1      34.137  13.101   7.653  0.00  0.00    -0.201 OA
BRANCH  12  15
HETATM   15  N   UNK N   1      32.819  11.657   9.390  0.00  0.00    -0.324 N 
HETATM   16  H   UNK N   1      32.870  10.705   9.029  0.00  0.00     0.169 HD
HETATM   17  H   UNK N   1      32.235  11.690  10.226  0.00  0.00     0.169 HD
ENDBRANCH  12  15
ENDBRANCH   7  12
ENDBRANCH   3   5
BRANCH   2  18
HETATM   18  N   UNK N   1      35.310  11.715  15.517  0.00  0.00    -0.284 N 
HETATM   19  C   UNK N   1      35.836  10.381  15.299  0.00  0.00     0.109 A 
HETATM   20  C   UNK N   1      36.060   9.799  16.732  0.00  0.00     0.067 A 
HETATM   21  C   UNK N   1      34.831   9.524  14.556  0.00  0.00     0.034 C 
HETATM   22  C   UNK N   1      35.719  10.951  17.619  0.00  0.00    -0.028 A 
HETATM   23  C   UNK N   1      35.313  12.024  16.891  0.00  0.00     0.057 A 
HETATM   24  C   UNK N   1      35.803  11.002  19.013  0.00  0.00     0.009 A 
HETATM   25  C   UNK N   1      35.005  13.239  17.515  0.00  0.00     0.031 A 
HETATM   26  C   UNK N   1      35.074  13.322  18.912  0.00  0.00     0.002 A 
HETATM   27  C   UNK N   1      35.465  12.199  19.662  0.00  0.00     0.001 A 
ENDBRANCH   2  18
TORSDOF 4
ENDMDL
MODEL 6
REMARK VINA RESULT:      -7.0      8.462     12.028
REMARK  4 active torsions:
REMARK  status: ('A' for Active; 'I' for Inactive)
REMARK    1  A    between atoms: S_2  and  N_8 
REMARK    2  A    between atoms: S_2  and  C_21 
REMARK    3  A    between atoms: N_6  and  N_7 
REMARK       I    between atoms: N_7  and  C_18 
REMARK    4  A    between atoms: C_18  and  C_19 
ROOT
HETATM    1  O   UNK N   1      32.179  14.165   8.559  0.00  0.00    -0.266 OA
HETATM    2  N   UNK N   1      32.947  16.246   8.211  0.00  0.00    -0.263 N 
HETATM    3  C   UNK N   1      33.098  14.963   8.645  0.00  0.00     0.270 C 
HETATM    4  H   UNK N   1      33.659  16.891   8.428  0.00  0.00     0.190 HD
ENDROOT
BRANCH   3   5
HETATM    5  C   UNK N   1      34.373  14.501   9.228  0.00  0.00     0.035 A 
HETATM    6  C   UNK N   1      34.529  14.280  10.606  0.00  0.00     0.044 A 
HETATM    7  C   UNK N   1      35.762  13.835  11.114  0.00  0.00     0.102 A 
HETATM    8  C   UNK N   1      36.854  13.658  10.240  0.00  0.00     0.057 A 
HETATM    9 Cl   UNK N   1      38.427  13.127  10.814  0.00  0.00    -0.083 Cl
HETATM   10  C   UNK N   1      36.693  13.887   8.875  0.00  0.00     0.026 A 
HETATM   11  C   UNK N   1      35.460  14.284   8.371  0.00  0.00     0.019 A 
BRANCH   7  12
HETATM   12  S   UNK N   1      35.909  13.423  12.855  0.00  0.00     0.258 S 
HETATM   13  O   UNK N   1      34.562  13.245  13.572  0.00  0.00    -0.201 OA
HETATM   14  O   UNK N   1      36.603  12.078  13.111  0.00  0.00    -0.201 OA
BRANCH  12  15
HETATM   15  N   UNK N   1      36.805  14.581  13.842  0.00  0.00    -0.324 N 
HETATM   16  H   UNK N   1      36.698  15.097  14.716  0.00  0.00     0.169 HD
HETATM   17  H   UNK N   1      37.700  14.801  13.406  0.00  0.00     0.169 HD
ENDBRANCH  12  15
ENDBRANCH   7  12
ENDBRANCH   3   5
BRANCH   2  18
HETATM   18  N   UNK N   1      31.857  16.706   7.484  0.00  0.00    -0.284 N 
HETATM   19  C   UNK N   1      31.749  16.518   6.051  0.00  0.00     0.109 A 
HETATM   20  C   UNK N   1      30.369  17.140   5.666  0.00  0.00     0.067 A 
HETATM   21  C   UNK N   1      32.858  17.259   5.329  0.00  0.00     0.034 C 
HETATM   22  C   UNK N   1      29.795  17.528   6.990  0.00  0.00    -0.028 A 
HETATM   23  C   UNK N   1      30.663  17.251   7.998  0.00  0.00     0.057 A 
HETATM   24  C   UNK N   1      28.537  18.081   7.239  0.00  0.00     0.009 A 
HETATM   25  C   UNK N   1      30.306  17.473   9.333  0.00  0.00     0.031 A 
HETATM   26  C   UNK N   1      29.052  18.032   9.618  0.00  0.00     0.002 A 
HETATM   27  C   UNK N   1      28.171  18.345   8.568  0.00  0.00     0.001 A 
ENDBRANCH   2  18
TORSDOF 4
ENDMDL
MODEL 7
REMARK VINA RESULT:      -7.0      2.233      2.674
REMARK  4 active torsions:
REMARK  status: ('A' for Active; 'I' for Inactive)
REMARK    1  A    between atoms: S_2  and  N_8 
REMARK    2  A    between atoms: S_2  and  C_21 
REMARK    3  A    between atoms: N_6  and  N_7 
REMARK       I    between atoms: N_7  and  C_18 
REMARK    4  A    between atoms: C_18  and  C_19 
ROOT
HETATM    1  O   UNK N   1      28.160  19.877   4.343  0.00  0.00    -0.266 OA
HETATM    2  N   UNK N   1      27.594  17.853   5.134  0.00  0.00    -0.263 N 
HETATM    3  C   UNK N   1      27.293  19.041   4.538  0.00  0.00     0.270 C 
HETATM    4  H   UNK N   1      26.847  17.270   5.400  0.00  0.00     0.190 HD
ENDROOT
BRANCH   3   5
HETATM    5  C   UNK N   1      25.914  19.351   4.112  0.00  0.00     0.035 A 
HETATM    6  C   UNK N   1      24.801  18.670   4.629  0.00  0.00     0.044 A 
HETATM    7  C   UNK N   1      23.506  19.006   4.194  0.00  0.00     0.102 A 
HETATM    8  C   UNK N   1      23.335  19.993   3.204  0.00  0.00     0.057 A 
HETATM    9 Cl   UNK N   1      21.746  20.441   2.602  0.00  0.00    -0.083 Cl
HETATM   10  C   UNK N   1      24.446  20.659   2.690  0.00  0.00     0.026 A 
HETATM   11  C   UNK N   1      25.721  20.355   3.154  0.00  0.00     0.019 A 
BRANCH   7  12
HETATM   12  S   UNK N   1      22.083  18.226   4.963  0.00  0.00     0.258 S 
HETATM   13  O   UNK N   1      21.097  19.215   5.604  0.00  0.00    -0.201 OA
HETATM   14  O   UNK N   1      21.192  17.463   3.973  0.00  0.00    -0.201 OA
BRANCH  12  15
HETATM   15  N   UNK N   1      22.446  17.052   6.231  0.00  0.00    -0.324 N 
HETATM   16  H   UNK N   1      23.099  16.927   7.004  0.00  0.00     0.169 HD
HETATM   17  H   UNK N   1      21.808  16.258   6.172  0.00  0.00     0.169 HD
ENDBRANCH  12  15
ENDBRANCH   7  12
ENDBRANCH   3   5
BRANCH   2  18
HETATM   18  N   UNK N   1      28.885  17.408   5.390  0.00  0.00    -0.284 N 
HETATM   19  C   UNK N   1      29.724  16.836   4.357  0.00  0.00     0.109 A 
HETATM   20  C   UNK N   1      31.081  16.523   5.067  0.00  0.00     0.067 A 
HETATM   21  C   UNK N   1      29.121  15.549   3.828  0.00  0.00     0.034 C 
HETATM   22  C   UNK N   1      30.873  17.070   6.441  0.00  0.00    -0.028 A 
HETATM   23  C   UNK N   1      29.620  17.577   6.580  0.00  0.00     0.057 A 
HETATM   24  C   UNK N   1      31.799  17.111   7.486  0.00  0.00     0.009 A 
HETATM   25  C   UNK N   1      29.228  18.202   7.770  0.00  0.00     0.031 A 
HETATM   26  C   UNK N   1      30.131  18.256   8.840  0.00  0.00     0.002 A 
HETATM   27  C   UNK N   1      31.416  17.702   8.700  0.00  0.00     0.001 A 
ENDBRANCH   2  18
TORSDOF 4
ENDMDL
MODEL 8
REMARK VINA RESULT:      -6.8      2.284      3.634
REMARK  4 active torsions:
REMARK  status: ('A' for Active; 'I' for Inactive)
REMARK    1  A    between atoms: S_2  and  N_8 
REMARK    2  A    between atoms: S_2  and  C_21 
REMARK    3  A    between atoms: N_6  and  N_7 
REMARK       I    between atoms: N_7  and  C_18 
REMARK    4  A    between atoms: C_18  and  C_19 
ROOT
HETATM    1  O   UNK N   1      28.266  20.013   4.843  0.00  0.00    -0.266 OA
HETATM    2  N   UNK N   1      27.628  18.025   5.671  0.00  0.00    -0.263 N 
HETATM    3  C   UNK N   1      27.389  19.175   4.979  0.00  0.00     0.270 C 
HETATM    4  H   UNK N   1      26.860  17.446   5.879  0.00  0.00     0.190 HD
ENDROOT
BRANCH   3   5
HETATM    5  C   UNK N   1      26.068  19.440   4.376  0.00  0.00     0.035 A 
HETATM    6  C   UNK N   1      24.905  18.781   4.804  0.00  0.00     0.044 A 
HETATM    7  C   UNK N   1      23.668  19.071   4.200  0.00  0.00     0.102 A 
HETATM    8  C   UNK N   1      23.610  19.990   3.133  0.00  0.00     0.057 A 
HETATM    9 Cl   UNK N   1      22.101  20.377   2.322  0.00  0.00    -0.083 Cl
HETATM   10  C   UNK N   1      24.770  20.633   2.708  0.00  0.00     0.026 A 
HETATM   11  C   UNK N   1      25.984  20.376   3.337  0.00  0.00     0.019 A 
BRANCH   7  12
HETATM   12  S   UNK N   1      22.168  18.327   4.849  0.00  0.00     0.258 S 
HETATM   13  O   UNK N   1      21.111  19.345   5.305  0.00  0.00    -0.201 OA
HETATM   14  O   UNK N   1      21.402  17.491   3.815  0.00  0.00    -0.201 OA
BRANCH  12  15
HETATM   15  N   UNK N   1      22.386  17.243   6.225  0.00  0.00    -0.324 N 
HETATM   16  H   UNK N   1      22.945  17.176   7.075  0.00  0.00     0.169 HD
HETATM   17  H   UNK N   1      21.762  16.440   6.146  0.00  0.00     0.169 HD
ENDBRANCH  12  15
ENDBRANCH   7  12
ENDBRANCH   3   5
BRANCH   2  18
HETATM   18  N   UNK N   1      28.883  17.616   6.104  0.00  0.00    -0.284 N 
HETATM   19  C   UNK N   1      29.190  17.419   7.507  0.00  0.00     0.109 A 
HETATM   20  C   UNK N   1      30.672  16.924   7.529  0.00  0.00     0.067 A 
HETATM   21  C   UNK N   1      29.082  18.727   8.267  0.00  0.00     0.034 C 
HETATM   22  C   UNK N   1      31.004  16.797   6.078  0.00  0.00    -0.028 A 
HETATM   23  C   UNK N   1      29.958  17.184   5.302  0.00  0.00     0.057 A 
HETATM   24  C   UNK N   1      32.196  16.330   5.520  0.00  0.00     0.009 A 
HETATM   25  C   UNK N   1      30.025  17.086   3.908  0.00  0.00     0.031 A 
HETATM   26  C   UNK N   1      31.210  16.627   3.314  0.00  0.00     0.002 A 
HETATM   27  C   UNK N   1      32.299  16.257   4.122  0.00  0.00     0.001 A 
ENDBRANCH   2  18
TORSDOF 4
ENDMDL
MODEL 9
REMARK VINA RESULT:      -6.8      4.405      6.319
REMARK  4 active torsions:
REMARK  status: ('A' for Active; 'I' for Inactive)
REMARK    1  A    between atoms: S_2  and  N_8 
REMARK    2  A    between atoms: S_2  and  C_21 
REMARK    3  A    between atoms: N_6  and  N_7 
REMARK       I    between atoms: N_7  and  C_18 
REMARK    4  A    between atoms: C_18  and  C_19 
ROOT
HETATM    1  O   UNK N   1      20.944  15.311   5.752  0.00  0.00    -0.266 OA
HETATM    2  N   UNK N   1      22.375  15.692   7.441  0.00  0.00    -0.263 N 
HETATM    3  C   UNK N   1      21.897  15.937   6.189  0.00  0.00     0.270 C 
HETATM    4  H   UNK N   1      23.227  16.115   7.698  0.00  0.00     0.190 HD
ENDROOT
BRANCH   3   5
HETATM    5  C   UNK N   1      22.513  16.964   5.325  0.00  0.00     0.035 A 
HETATM    6  C   UNK N   1      21.747  17.897   4.609  0.00  0.00     0.044 A 
HETATM    7  C   UNK N   1      22.381  18.860   3.803  0.00  0.00     0.102 A 
HETATM    8  C   UNK N   1      23.785  18.853   3.681  0.00  0.00     0.057 A 
HETATM    9 Cl   UNK N   1      24.636  20.013   2.673  0.00  0.00    -0.083 Cl
HETATM   10  C   UNK N   1      24.538  17.919   4.389  0.00  0.00     0.026 A 
HETATM   11  C   UNK N   1      23.910  16.996   5.219  0.00  0.00     0.019 A 
BRANCH   7  12
HETATM   12  S   UNK N   1      21.400  20.133   3.003  0.00  0.00     0.258 S 
HETATM   13  O   UNK N   1      20.223  20.641   3.850  0.00  0.00    -0.201 OA
HETATM   14  O   UNK N   1      22.184  21.421   2.715  0.00  0.00    -0.201 OA
BRANCH  12  15
HETATM   15  N   UNK N   1      20.689  19.687   1.450  0.00  0.00    -0.324 N 
HETATM   16  H   UNK N   1      19.775  19.473   1.051  0.00  0.00     0.169 HD
HETATM   17  H   UNK N   1      21.413  19.626   0.733  0.00  0.00     0.169 HD
ENDBRANCH  12  15
ENDBRANCH   7  12
ENDBRANCH   3   5
BRANCH   2  18
HETATM   18  N   UNK N   1      21.743  14.887   8.379  0.00  0.00    -0.284 N 
HETATM   19  C   UNK N   1      20.310  14.926   8.590  0.00  0.00     0.109 A 
HETATM   20  C   UNK N   1      20.034  13.845   9.683  0.00  0.00     0.067 A 
HETATM   21  C   UNK N   1      19.882  16.287   9.105  0.00  0.00     0.034 C 
HETATM   22  C   UNK N   1      21.379  13.230   9.893  0.00  0.00    -0.028 A 
HETATM   23  C   UNK N   1      22.319  13.838   9.124  0.00  0.00     0.057 A 
HETATM   24  C   UNK N   1      21.700  12.158  10.730  0.00  0.00     0.009 A 
HETATM   25  C   UNK N   1      23.641  13.380   9.111  0.00  0.00     0.031 A 
HETATM   26  C   UNK N   1      23.999  12.310   9.943  0.00  0.00     0.002 A 
HETATM   27  C   UNK N   1      23.028  11.704  10.760  0.00  0.00     0.001 A 
ENDBRANCH   2  18
TORSDOF 4
ENDMDL
