MODEL 1
REMARK VINA RESULT:      -6.1      0.000      0.000
REMARK  7 active torsions:
REMARK  status: ('A' for Active; 'I' for Inactive)
REMARK    1  A    between atoms: O_2  and  C_11 
REMARK       I    between atoms: N_3  and  C_7 
REMARK    2  A    between atoms: N_3  and  C_8 
REMARK    3  A    between atoms: N_3  and  C_10 
REMARK    4  A    between atoms: C_6  and  C_7 
REMARK    5  A    between atoms: C_6  and  C_9 
REMARK    6  A    between atoms: C_6  and  C_11 
REMARK    7  A    between atoms: C_8  and  C_12 
ROOT
HETATM    1  O   UNK N   1      34.473  13.074  13.552  0.00  0.00    -0.273 OA
HETATM    2  N   UNK N   1      36.094  12.882  12.031  0.00  0.00    -0.348 N 
HETATM    3  C   UNK N   1      35.662  12.876  13.334  0.00  0.00     0.230 C 
ENDROOT
BRANCH   3   4
HETATM    4  C   UNK N   1      36.609  12.644  14.523  0.00  0.00     0.134 C 
BRANCH   4   5
HETATM    5  C   UNK N   1      36.533  13.641  15.682  0.00  0.00    -0.043 A 
HETATM    6  C   UNK N   1      37.258  14.848  15.685  0.00  0.00     0.008 A 
HETATM    7  C   UNK N   1      37.131  15.764  16.729  0.00  0.00     0.001 A 
HETATM    8  C   UNK N   1      36.267  15.492  17.790  0.00  0.00     0.000 A 
HETATM    9  C   UNK N   1      35.538  14.300  17.807  0.00  0.00     0.001 A 
HETATM   10  C   UNK N   1      35.670  13.380  16.759  0.00  0.00     0.008 A 
ENDBRANCH   4   5
BRANCH   4  11
HETATM   11  C   UNK N   1      36.412  11.250  15.108  0.00  0.00     0.182 C 
BRANCH  11  12
HETATM   12  O   UNK N   1      35.496  10.543  14.330  0.00  0.00    -0.400 OA
HETATM   13  H   UNK N   1      34.703   9.998  14.455  0.00  0.00     0.209 HD
ENDBRANCH  11  12
ENDBRANCH   4  11
ENDBRANCH   3   4
BRANCH   2  14
HETATM   14  C   UNK N   1      35.096  13.109  10.987  0.00  0.00     0.164 C 
BRANCH  14  15
HETATM   15  C   UNK N   1      34.896  14.511  10.499  0.00  0.00    -0.038 A 
HETATM   16  C   UNK N   1      35.650  15.540  11.068  0.00  0.00     0.025 A 
HETATM   17  C   UNK N   1      35.406  16.861  10.689  0.00  0.00     0.088 A 
HETATM   18  N   UNK N   1      34.435  17.142   9.778  0.00  0.00    -0.375 N 
HETATM   19  C   UNK N   1      33.679  16.156   9.220  0.00  0.00     0.088 A 
ATOM     20  HN  UNK N   1      34.269  18.111   9.507  1.00  0.00     0.164 HD
HETATM   21  C   UNK N   1      33.890  14.824   9.581  0.00  0.00     0.025 A 
ENDBRANCH  14  15
ENDBRANCH   2  14
BRANCH   2  22
HETATM   22  C   UNK N   1      37.498  12.694  11.706  0.00  0.00     0.121 C 
HETATM   23  C   UNK N   1      37.683  11.500  10.780  0.00  0.00     0.026 C 
ENDBRANCH   2  22
TORSDOF 7
ENDMDL
MODEL 2
REMARK VINA RESULT:      -6.1      3.746      8.123
REMARK  7 active torsions:
REMARK  status: ('A' for Active; 'I' for Inactive)
REMARK    1  A    between atoms: O_2  and  C_11 
REMARK       I    between atoms: N_3  and  C_7 
REMARK    2  A    between atoms: N_3  and  C_8 
REMARK    3  A    between atoms: N_3  and  C_10 
REMARK    4  A    between atoms: C_6  and  C_7 
REMARK    5  A    between atoms: C_6  and  C_9 
REMARK    6  A    between atoms: C_6  and  C_11 
REMARK    7  A    between atoms: C_8  and  C_12 
ROOT
HETATM    1  O   UNK N   1      34.241  18.258   8.633  0.00  0.00    -0.273 OA
HETATM    2  N   UNK N   1      34.084  16.205   9.493  0.00  0.00    -0.348 N 
HETATM    3  C   UNK N   1      33.696  17.162   8.588  0.00  0.00     0.230 C 
ENDROOT
BRANCH   3   4
HETATM    4  C   UNK N   1      32.602  16.916   7.535  0.00  0.00     0.134 C 
BRANCH   4   5
HETATM    5  C   UNK N   1      31.197  17.434   7.853  0.00  0.00    -0.043 A 
HETATM    6  C   UNK N   1      30.914  18.174   9.017  0.00  0.00     0.008 A 
HETATM    7  C   UNK N   1      29.636  18.680   9.257  0.00  0.00     0.001 A 
HETATM    8  C   UNK N   1      28.617  18.461   8.331  0.00  0.00     0.000 A 
HETATM    9  C   UNK N   1      28.877  17.729   7.170  0.00  0.00     0.001 A 
HETATM   10  C   UNK N   1      30.159  17.219   6.931  0.00  0.00     0.008 A 
ENDBRANCH   4   5
BRANCH   4  11
HETATM   11  C   UNK N   1      33.007  17.498   6.186  0.00  0.00     0.182 C 
BRANCH  11  12
HETATM   12  O   UNK N   1      34.395  17.446   6.054  0.00  0.00    -0.400 OA
HETATM   13  H   UNK N   1      35.122  16.838   6.258  0.00  0.00     0.209 HD
ENDBRANCH  11  12
ENDBRANCH   4  11
ENDBRANCH   3   4
BRANCH   2  14
HETATM   14  C   UNK N   1      35.139  16.559  10.442  0.00  0.00     0.164 C 
BRANCH  14  15
HETATM   15  C   UNK N   1      35.978  15.452  11.003  0.00  0.00    -0.038 A 
HETATM   16  C   UNK N   1      36.913  14.826  10.176  0.00  0.00     0.025 A 
HETATM   17  C   UNK N   1      37.634  13.733  10.659  0.00  0.00     0.088 A 
HETATM   18  N   UNK N   1      37.420  13.278  11.924  0.00  0.00    -0.375 N 
HETATM   19  C   UNK N   1      36.504  13.865  12.743  0.00  0.00     0.088 A 
ATOM     20  HN  UNK N   1      37.955  12.480  12.266  1.00  0.00     0.164 HD
HETATM   21  C   UNK N   1      35.759  14.956  12.291  0.00  0.00     0.025 A 
ENDBRANCH  14  15
ENDBRANCH   2  14
BRANCH   2  22
HETATM   22  C   UNK N   1      33.448  14.899   9.521  0.00  0.00     0.121 C 
HETATM   23  C   UNK N   1      33.943  14.034   8.369  0.00  0.00     0.026 C 
ENDBRANCH   2  22
TORSDOF 7
ENDMDL
MODEL 3
REMARK VINA RESULT:      -6.0      8.067     11.305
REMARK  7 active torsions:
REMARK  status: ('A' for Active; 'I' for Inactive)
REMARK    1  A    between atoms: O_2  and  C_11 
REMARK       I    between atoms: N_3  and  C_7 
REMARK    2  A    between atoms: N_3  and  C_8 
REMARK    3  A    between atoms: N_3  and  C_10 
REMARK    4  A    between atoms: C_6  and  C_7 
REMARK    5  A    between atoms: C_6  and  C_9 
REMARK    6  A    between atoms: C_6  and  C_11 
REMARK    7  A    between atoms: C_8  and  C_12 
ROOT
HETATM    1  O   UNK N   1      28.398  19.625   7.522  0.00  0.00    -0.273 OA
HETATM    2  N   UNK N   1      28.474  18.405   5.655  0.00  0.00    -0.348 N 
HETATM    3  C   UNK N   1      28.639  18.538   7.012  0.00  0.00     0.230 C 
ENDROOT
BRANCH   3   4
HETATM    4  C   UNK N   1      29.121  17.384   7.906  0.00  0.00     0.134 C 
BRANCH   4   5
HETATM    5  C   UNK N   1      30.625  17.097   7.927  0.00  0.00    -0.043 A 
HETATM    6  C   UNK N   1      31.172  15.909   7.405  0.00  0.00     0.008 A 
HETATM    7  C   UNK N   1      32.550  15.696   7.387  0.00  0.00     0.001 A 
HETATM    8  C   UNK N   1      33.411  16.674   7.887  0.00  0.00     0.000 A 
HETATM    9  C   UNK N   1      32.889  17.860   8.409  0.00  0.00     0.001 A 
HETATM   10  C   UNK N   1      31.504  18.071   8.429  0.00  0.00     0.008 A 
ENDBRANCH   4   5
BRANCH   4  11
HETATM   11  C   UNK N   1      28.679  17.596   9.350  0.00  0.00     0.182 C 
BRANCH  11  12
HETATM   12  O   UNK N   1      27.335  17.968   9.376  0.00  0.00    -0.400 OA
HETATM   13  H   UNK N   1      26.479  17.621   9.080  0.00  0.00     0.209 HD
ENDBRANCH  11  12
ENDBRANCH   4  11
ENDBRANCH   3   4
BRANCH   2  14
HETATM   14  C   UNK N   1      28.004  19.574   4.913  0.00  0.00     0.164 C 
BRANCH  14  15
HETATM   15  C   UNK N   1      26.613  19.543   4.359  0.00  0.00    -0.038 A 
HETATM   16  C   UNK N   1      26.290  20.380   3.290  0.00  0.00     0.025 A 
HETATM   17  C   UNK N   1      24.975  20.427   2.826  0.00  0.00     0.088 A 
HETATM   18  N   UNK N   1      24.014  19.669   3.420  0.00  0.00    -0.375 N 
HETATM   19  C   UNK N   1      24.302  18.855   4.473  0.00  0.00     0.088 A 
ATOM     20  HN  UNK N   1      23.057  19.711   3.070  1.00  0.00     0.164 HD
HETATM   21  C   UNK N   1      25.607  18.787   4.968  0.00  0.00     0.025 A 
ENDBRANCH  14  15
ENDBRANCH   2  14
BRANCH   2  22
HETATM   22  C   UNK N   1      28.781  17.155   4.981  0.00  0.00     0.121 C 
HETATM   23  C   UNK N   1      30.097  17.261   4.223  0.00  0.00     0.026 C 
ENDBRANCH   2  22
TORSDOF 7
ENDMDL
MODEL 4
REMARK VINA RESULT:      -5.9      3.573      8.316
REMARK  7 active torsions:
REMARK  status: ('A' for Active; 'I' for Inactive)
REMARK    1  A    between atoms: O_2  and  C_11 
REMARK       I    between atoms: N_3  and  C_7 
REMARK    2  A    between atoms: N_3  and  C_8 
REMARK    3  A    between atoms: N_3  and  C_10 
REMARK    4  A    between atoms: C_6  and  C_7 
REMARK    5  A    between atoms: C_6  and  C_9 
REMARK    6  A    between atoms: C_6  and  C_11 
REMARK    7  A    between atoms: C_8  and  C_12 
ROOT
HETATM    1  O   UNK N   1      32.983  15.928   9.118  0.00  0.00    -0.273 OA
HETATM    2  N   UNK N   1      34.894  14.786   8.966  0.00  0.00    -0.348 N 
HETATM    3  C   UNK N   1      34.090  15.837   8.600  0.00  0.00     0.230 C 
ENDROOT
BRANCH   3   4
HETATM    4  C   UNK N   1      34.518  16.889   7.563  0.00  0.00     0.134 C 
BRANCH   4   5
HETATM    5  C   UNK N   1      34.036  16.687   6.124  0.00  0.00    -0.043 A 
HETATM    6  C   UNK N   1      34.326  15.521   5.390  0.00  0.00     0.008 A 
HETATM    7  C   UNK N   1      33.830  15.339   4.099  0.00  0.00     0.001 A 
HETATM    8  C   UNK N   1      33.028  16.321   3.518  0.00  0.00     0.000 A 
HETATM    9  C   UNK N   1      32.728  17.486   4.229  0.00  0.00     0.001 A 
HETATM   10  C   UNK N   1      33.229  17.668   5.525  0.00  0.00     0.008 A 
ENDBRANCH   4   5
BRANCH   4  11
HETATM   11  C   UNK N   1      34.084  18.284   7.997  0.00  0.00     0.182 C 
BRANCH  11  12
HETATM   12  O   UNK N   1      35.198  19.011   8.414  0.00  0.00    -0.400 OA
HETATM   13  H   UNK N   1      36.158  19.013   8.276  0.00  0.00     0.209 HD
ENDBRANCH  11  12
ENDBRANCH   4  11
ENDBRANCH   3   4
BRANCH   2  14
HETATM   14  C   UNK N   1      34.377  13.854   9.967  0.00  0.00     0.164 C 
BRANCH  14  15
HETATM   15  C   UNK N   1      35.192  13.626  11.203  0.00  0.00    -0.038 A 
HETATM   16  C   UNK N   1      35.378  14.683  12.095  0.00  0.00     0.025 A 
HETATM   17  C   UNK N   1      36.212  14.510  13.201  0.00  0.00     0.088 A 
HETATM   18  N   UNK N   1      36.845  13.322  13.400  0.00  0.00    -0.375 N 
HETATM   19  C   UNK N   1      36.689  12.282  12.535  0.00  0.00     0.088 A 
ATOM     20  HN  UNK N   1      37.449  13.208  14.213  1.00  0.00     0.164 HD
HETATM   21  C   UNK N   1      35.868  12.421  11.414  0.00  0.00     0.025 A 
ENDBRANCH  14  15
ENDBRANCH   2  14
BRANCH   2  22
HETATM   22  C   UNK N   1      36.201  14.595   8.359  0.00  0.00     0.121 C 
HETATM   23  C   UNK N   1      36.270  13.257   7.637  0.00  0.00     0.026 C 
ENDBRANCH   2  22
TORSDOF 7
ENDMDL
MODEL 5
REMARK VINA RESULT:      -5.8      1.137      2.046
REMARK  7 active torsions:
REMARK  status: ('A' for Active; 'I' for Inactive)
REMARK    1  A    between atoms: O_2  and  C_11 
REMARK       I    between atoms: N_3  and  C_7 
REMARK    2  A    between atoms: N_3  and  C_8 
REMARK    3  A    between atoms: N_3  and  C_10 
REMARK    4  A    between atoms: C_6  and  C_7 
REMARK    5  A    between atoms: C_6  and  C_9 
REMARK    6  A    between atoms: C_6  and  C_11 
REMARK    7  A    between atoms: C_8  and  C_12 
ROOT
HETATM    1  O   UNK N   1      34.147  12.065  13.905  0.00  0.00    -0.273 OA
HETATM    2  N   UNK N   1      35.875  12.374  12.527  0.00  0.00    -0.348 N 
HETATM    3  C   UNK N   1      35.362  12.032  13.754  0.00  0.00     0.230 C 
ENDROOT
BRANCH   3   4
HETATM    4  C   UNK N   1      36.251  11.624  14.941  0.00  0.00     0.134 C 
BRANCH   4   5
HETATM    5  C   UNK N   1      35.818  12.094  16.332  0.00  0.00    -0.043 A 
HETATM    6  C   UNK N   1      35.639  11.202  17.406  0.00  0.00     0.008 A 
HETATM    7  C   UNK N   1      35.295  11.662  18.677  0.00  0.00     0.001 A 
HETATM    8  C   UNK N   1      35.131  13.029  18.900  0.00  0.00     0.000 A 
HETATM    9  C   UNK N   1      35.305  13.932  17.848  0.00  0.00     0.001 A 
HETATM   10  C   UNK N   1      35.647  13.468  16.572  0.00  0.00     0.008 A 
ENDBRANCH   4   5
BRANCH   4  11
HETATM   11  C   UNK N   1      36.411  10.109  15.002  0.00  0.00     0.182 C 
BRANCH  11  12
HETATM   12  O   UNK N   1      35.461   9.506  14.179  0.00  0.00    -0.400 OA
HETATM   13  H   UNK N   1      34.535   9.638  13.919  0.00  0.00     0.209 HD
ENDBRANCH  11  12
ENDBRANCH   4  11
ENDBRANCH   3   4
BRANCH   2  14
HETATM   14  C   UNK N   1      34.926  12.739  11.476  0.00  0.00     0.164 C 
BRANCH  14  15
HETATM   15  C   UNK N   1      34.806  14.187  11.111  0.00  0.00    -0.038 A 
HETATM   16  C   UNK N   1      34.039  14.544  10.000  0.00  0.00     0.025 A 
HETATM   17  C   UNK N   1      33.995  15.879   9.595  0.00  0.00     0.088 A 
HETATM   18  N   UNK N   1      34.703  16.822  10.275  0.00  0.00    -0.375 N 
HETATM   19  C   UNK N   1      35.468  16.495  11.352  0.00  0.00     0.088 A 
ATOM     20  HN  UNK N   1      34.660  17.794   9.970  1.00  0.00     0.164 HD
HETATM   21  C   UNK N   1      35.541  15.168  11.782  0.00  0.00     0.025 A 
ENDBRANCH  14  15
ENDBRANCH   2  14
BRANCH   2  22
HETATM   22  C   UNK N   1      37.309  12.395  12.293  0.00  0.00     0.121 C 
HETATM   23  C   UNK N   1      37.682  11.463  11.148  0.00  0.00     0.026 C 
ENDBRANCH   2  22
TORSDOF 7
ENDMDL
MODEL 6
REMARK VINA RESULT:      -5.8     19.369     22.152
REMARK  7 active torsions:
REMARK  status: ('A' for Active; 'I' for Inactive)
REMARK    1  A    between atoms: O_2  and  C_11 
REMARK       I    between atoms: N_3  and  C_7 
REMARK    2  A    between atoms: N_3  and  C_8 
REMARK    3  A    between atoms: N_3  and  C_10 
REMARK    4  A    between atoms: C_6  and  C_7 
REMARK    5  A    between atoms: C_6  and  C_9 
REMARK    6  A    between atoms: C_6  and  C_11 
REMARK    7  A    between atoms: C_8  and  C_12 
ROOT
HETATM    1  O   UNK N   1      28.324  23.616  -2.506  0.00  0.00    -0.273 OA
HETATM    2  N   UNK N   1      27.764  23.807  -4.658  0.00  0.00    -0.348 N 
HETATM    3  C   UNK N   1      28.687  23.551  -3.674  0.00  0.00     0.230 C 
ENDROOT
BRANCH   3   4
HETATM    4  C   UNK N   1      30.152  23.199  -3.982  0.00  0.00     0.134 C 
BRANCH   4   5
HETATM    5  C   UNK N   1      31.119  24.365  -4.201  0.00  0.00    -0.043 A 
HETATM    6  C   UNK N   1      32.386  24.191  -4.791  0.00  0.00     0.008 A 
HETATM    7  C   UNK N   1      33.227  25.279  -5.028  0.00  0.00     0.001 A 
HETATM    8  C   UNK N   1      32.812  26.565  -4.686  0.00  0.00     0.000 A 
HETATM    9  C   UNK N   1      31.559  26.760  -4.099  0.00  0.00     0.001 A 
HETATM   10  C   UNK N   1      30.717  25.667  -3.859  0.00  0.00     0.008 A 
ENDBRANCH   4   5
BRANCH   4  11
HETATM   11  C   UNK N   1      30.740  22.321  -2.883  0.00  0.00     0.182 C 
BRANCH  11  12
HETATM   12  O   UNK N   1      30.839  23.056  -1.702  0.00  0.00    -0.400 OA
HETATM   13  H   UNK N   1      31.528  23.465  -1.155  0.00  0.00     0.209 HD
ENDBRANCH  11  12
ENDBRANCH   4  11
ENDBRANCH   3   4
BRANCH   2  14
HETATM   14  C   UNK N   1      26.400  24.126  -4.239  0.00  0.00     0.164 C 
BRANCH  14  15
HETATM   15  C   UNK N   1      25.963  25.558  -4.299  0.00  0.00    -0.038 A 
HETATM   16  C   UNK N   1      25.221  25.994  -5.399  0.00  0.00     0.025 A 
HETATM   17  C   UNK N   1      24.888  27.344  -5.511  0.00  0.00     0.088 A 
HETATM   18  N   UNK N   1      25.294  28.229  -4.561  0.00  0.00    -0.375 N 
HETATM   19  C   UNK N   1      26.030  27.829  -3.487  0.00  0.00     0.088 A 
ATOM     20  HN  UNK N   1      25.043  29.213  -4.654  1.00  0.00     0.164 HD
HETATM   21  C   UNK N   1      26.387  26.487  -3.345  0.00  0.00     0.025 A 
ENDBRANCH  14  15
ENDBRANCH   2  14
BRANCH   2  22
HETATM   22  C   UNK N   1      28.139  23.787  -6.061  0.00  0.00     0.121 C 
HETATM   23  C   UNK N   1      27.150  22.960  -6.872  0.00  0.00     0.026 C 
ENDBRANCH   2  22
TORSDOF 7
ENDMDL
MODEL 7
REMARK VINA RESULT:      -5.8     22.094     24.374
REMARK  7 active torsions:
REMARK  status: ('A' for Active; 'I' for Inactive)
REMARK    1  A    between atoms: O_2  and  C_11 
REMARK       I    between atoms: N_3  and  C_7 
REMARK    2  A    between atoms: N_3  and  C_8 
REMARK    3  A    between atoms: N_3  and  C_10 
REMARK    4  A    between atoms: C_6  and  C_7 
REMARK    5  A    between atoms: C_6  and  C_9 
REMARK    6  A    between atoms: C_6  and  C_11 
REMARK    7  A    between atoms: C_8  and  C_12 
ROOT
HETATM    1  O   UNK N   1      25.205  23.753  -5.719  0.00  0.00    -0.273 OA
HETATM    2  N   UNK N   1      25.905  25.404  -7.047  0.00  0.00    -0.348 N 
HETATM    3  C   UNK N   1      25.808  24.070  -6.737  0.00  0.00     0.230 C 
ENDROOT
BRANCH   3   4
HETATM    4  C   UNK N   1      26.434  22.967  -7.608  0.00  0.00     0.134 C 
BRANCH   4   5
HETATM    5  C   UNK N   1      27.741  22.343  -7.112  0.00  0.00    -0.043 A 
HETATM    6  C   UNK N   1      28.473  22.884  -6.038  0.00  0.00     0.008 A 
HETATM    7  C   UNK N   1      29.634  22.267  -5.572  0.00  0.00     0.001 A 
HETATM    8  C   UNK N   1      30.081  21.088  -6.169  0.00  0.00     0.000 A 
HETATM    9  C   UNK N   1      29.369  20.535  -7.236  0.00  0.00     0.001 A 
HETATM   10  C   UNK N   1      28.206  21.157  -7.705  0.00  0.00     0.008 A 
ENDBRANCH   4   5
BRANCH   4  11
HETATM   11  C   UNK N   1      25.444  21.830  -7.834  0.00  0.00     0.182 C 
BRANCH  11  12
HETATM   12  O   UNK N   1      24.206  22.355  -8.200  0.00  0.00    -0.400 OA
HETATM   13  H   UNK N   1      23.728  22.594  -9.010  0.00  0.00     0.209 HD
ENDBRANCH  11  12
ENDBRANCH   4  11
ENDBRANCH   3   4
BRANCH   2  14
HETATM   14  C   UNK N   1      25.264  26.357  -6.142  0.00  0.00     0.164 C 
BRANCH  14  15
HETATM   15  C   UNK N   1      26.112  27.013  -5.096  0.00  0.00    -0.038 A 
HETATM   16  C   UNK N   1      25.585  28.081  -4.368  0.00  0.00     0.025 A 
HETATM   17  C   UNK N   1      26.396  28.759  -3.457  0.00  0.00     0.088 A 
HETATM   18  N   UNK N   1      27.694  28.386  -3.289  0.00  0.00    -0.375 N 
HETATM   19  C   UNK N   1      28.234  27.357  -3.998  0.00  0.00     0.088 A 
ATOM     20  HN  UNK N   1      28.275  28.888  -2.619  1.00  0.00     0.164 HD
HETATM   21  C   UNK N   1      27.453  26.660  -4.923  0.00  0.00     0.025 A 
ENDBRANCH  14  15
ENDBRANCH   2  14
BRANCH   2  22
HETATM   22  C   UNK N   1      26.642  25.850  -8.217  0.00  0.00     0.121 C 
HETATM   23  C   UNK N   1      25.699  26.086  -9.389  0.00  0.00     0.026 C 
ENDBRANCH   2  22
TORSDOF 7
ENDMDL
MODEL 8
REMARK VINA RESULT:      -5.8     14.310     16.587
REMARK  7 active torsions:
REMARK  status: ('A' for Active; 'I' for Inactive)
REMARK    1  A    between atoms: O_2  and  C_11 
REMARK       I    between atoms: N_3  and  C_7 
REMARK    2  A    between atoms: N_3  and  C_8 
REMARK    3  A    between atoms: N_3  and  C_10 
REMARK    4  A    between atoms: C_6  and  C_7 
REMARK    5  A    between atoms: C_6  and  C_9 
REMARK    6  A    between atoms: C_6  and  C_11 
REMARK    7  A    between atoms: C_8  and  C_12 
ROOT
HETATM    1  O   UNK N   1      22.585  15.697   6.789  0.00  0.00    -0.273 OA
HETATM    2  N   UNK N   1      20.960  15.009   5.424  0.00  0.00    -0.348 N 
HETATM    3  C   UNK N   1      21.502  15.136   6.679  0.00  0.00     0.230 C 
ENDROOT
BRANCH   3   4
HETATM    4  C   UNK N   1      20.810  14.594   7.941  0.00  0.00     0.134 C 
BRANCH   4   5
HETATM    5  C   UNK N   1      21.526  13.477   8.705  0.00  0.00    -0.043 A 
HETATM    6  C   UNK N   1      22.357  12.540   8.063  0.00  0.00     0.008 A 
HETATM    7  C   UNK N   1      23.040  11.564   8.789  0.00  0.00     0.001 A 
HETATM    8  C   UNK N   1      22.909  11.512  10.176  0.00  0.00     0.000 A 
HETATM    9  C   UNK N   1      22.089  12.433  10.833  0.00  0.00     0.001 A 
HETATM   10  C   UNK N   1      21.402  13.410  10.103  0.00  0.00     0.008 A 
ENDBRANCH   4   5
BRANCH   4  11
HETATM   11  C   UNK N   1      20.534  15.719   8.932  0.00  0.00     0.182 C 
BRANCH  11  12
HETATM   12  O   UNK N   1      20.691  16.950   8.297  0.00  0.00    -0.400 OA
HETATM   13  H   UNK N   1      20.803  17.883   8.536  0.00  0.00     0.209 HD
ENDBRANCH  11  12
ENDBRANCH   4  11
ENDBRANCH   3   4
BRANCH   2  14
HETATM   14  C   UNK N   1      21.711  15.571   4.302  0.00  0.00     0.164 C 
BRANCH  14  15
HETATM   15  C   UNK N   1      20.961  16.382   3.290  0.00  0.00    -0.038 A 
HETATM   16  C   UNK N   1      20.350  17.571   3.694  0.00  0.00     0.025 A 
HETATM   17  C   UNK N   1      19.571  18.287   2.783  0.00  0.00     0.088 A 
HETATM   18  N   UNK N   1      19.403  17.823   1.515  0.00  0.00    -0.375 N 
HETATM   19  C   UNK N   1      19.979  16.659   1.104  0.00  0.00     0.088 A 
ATOM     20  HN  UNK N   1      18.834  18.356   0.859  1.00  0.00     0.164 HD
HETATM   21  C   UNK N   1      20.759  15.913   1.989  0.00  0.00     0.025 A 
ENDBRANCH  14  15
ENDBRANCH   2  14
BRANCH   2  22
HETATM   22  C   UNK N   1      19.698  14.319   5.218  0.00  0.00     0.121 C 
HETATM   23  C   UNK N   1      19.936  12.866   4.828  0.00  0.00     0.026 C 
ENDBRANCH   2  22
TORSDOF 7
ENDMDL
MODEL 9
REMARK VINA RESULT:      -5.7      5.694      9.115
REMARK  7 active torsions:
REMARK  status: ('A' for Active; 'I' for Inactive)
REMARK    1  A    between atoms: O_2  and  C_11 
REMARK       I    between atoms: N_3  and  C_7 
REMARK    2  A    between atoms: N_3  and  C_8 
REMARK    3  A    between atoms: N_3  and  C_10 
REMARK    4  A    between atoms: C_6  and  C_7 
REMARK    5  A    between atoms: C_6  and  C_9 
REMARK    6  A    between atoms: C_6  and  C_11 
REMARK    7  A    between atoms: C_8  and  C_12 
ROOT
HETATM    1  O   UNK N   1      31.163  16.570   5.995  0.00  0.00    -0.273 OA
HETATM    2  N   UNK N   1      30.388  17.776   7.706  0.00  0.00    -0.348 N 
HETATM    3  C   UNK N   1      31.428  17.250   6.979  0.00  0.00     0.230 C 
ENDROOT
BRANCH   3   4
HETATM    4  C   UNK N   1      32.902  17.473   7.357  0.00  0.00     0.134 C 
BRANCH   4   5
HETATM    5  C   UNK N   1      33.435  16.705   8.570  0.00  0.00    -0.043 A 
HETATM    6  C   UNK N   1      32.874  15.486   8.995  0.00  0.00     0.008 A 
HETATM    7  C   UNK N   1      33.412  14.779  10.070  0.00  0.00     0.001 A 
HETATM    8  C   UNK N   1      34.530  15.278  10.739  0.00  0.00     0.000 A 
HETATM    9  C   UNK N   1      35.102  16.487  10.334  0.00  0.00     0.001 A 
HETATM   10  C   UNK N   1      34.559  17.196   9.255  0.00  0.00     0.008 A 
ENDBRANCH   4   5
BRANCH   4  11
HETATM   11  C   UNK N   1      33.817  17.156   6.180  0.00  0.00     0.182 C 
BRANCH  11  12
HETATM   12  O   UNK N   1      33.547  18.033   5.130  0.00  0.00    -0.400 OA
HETATM   13  H   UNK N   1      32.973  18.793   4.947  0.00  0.00     0.209 HD
ENDBRANCH  11  12
ENDBRANCH   4  11
ENDBRANCH   3   4
BRANCH   2  14
HETATM   14  C   UNK N   1      29.030  17.498   7.242  0.00  0.00     0.164 C 
BRANCH  14  15
HETATM   15  C   UNK N   1      28.328  18.558   6.449  0.00  0.00    -0.038 A 
HETATM   16  C   UNK N   1      28.362  18.496   5.055  0.00  0.00     0.025 A 
HETATM   17  C   UNK N   1      27.792  19.527   4.307  0.00  0.00     0.088 A 
HETATM   18  N   UNK N   1      27.216  20.588   4.935  0.00  0.00    -0.375 N 
HETATM   19  C   UNK N   1      27.183  20.676   6.293  0.00  0.00     0.088 A 
ATOM     20  HN  UNK N   1      26.801  21.333   4.376  1.00  0.00     0.164 HD
HETATM   21  C   UNK N   1      27.749  19.666   7.074  0.00  0.00     0.025 A 
ENDBRANCH  14  15
ENDBRANCH   2  14
BRANCH   2  22
HETATM   22  C   UNK N   1      30.633  18.557   8.906  0.00  0.00     0.121 C 
HETATM   23  C   UNK N   1      29.541  18.312   9.940  0.00  0.00     0.026 C 
ENDBRANCH   2  22
TORSDOF 7
ENDMDL
