REMARK  6 active torsions:
REMARK  status: ('A' for Active; 'I' for Inactive)
REMARK    1  A    between atoms: O_1  and  C_8 
REMARK    2  A    between atoms: N_2  and  C_13 
REMARK    3  A    between atoms: C_3  and  C_8 
REMARK    4  A    between atoms: C_8  and  C_11 
REMARK    5  A    between atoms: C_8  and  C_12 
REMARK    6  A    between atoms: C_11  and  C_13 
ROOT
HETATM    1  C   UNK N   1       5.245  -0.050   0.874  0.00  0.00     0.091 C 
ENDROOT
BRANCH   1   2
HETATM    2  O   UNK N   1       5.790   0.410   2.077  0.00  0.00    -0.385 OA
HETATM    3  H   UNK N   1       6.255   0.243   2.911  0.00  0.00     0.211 HD
ENDBRANCH   1   2
BRANCH   1   4
HETATM    4  C   UNK N   1       4.854   1.211   0.052  0.00  0.00     0.033 C 
HETATM    5  C   UNK N   1       3.887   2.218   0.708  0.00  0.00     0.016 C 
HETATM    6  C   UNK N   1       3.718   3.124  -0.496  0.00  0.00     0.017 C 
HETATM    7  C   UNK N   1       2.500   1.640   0.720  0.00  0.00    -0.025 C 
HETATM    8  C   UNK N   1       3.156   2.063  -1.429  0.00  0.00     0.009 C 
HETATM    9  C   UNK N   1       4.286   1.023  -1.370  0.00  0.00     0.017 C 
HETATM   10  C   UNK N   1       2.075   1.554  -0.531  0.00  0.00    -0.026 C 
ENDBRANCH   1   4
BRANCH   1  11
HETATM   11  C   UNK N   1       4.036  -0.927   1.254  0.00  0.00     0.073 C 
BRANCH  11  12
HETATM   12  C   UNK N   1       3.302  -1.534   0.068  0.00  0.00     0.276 C 
BRANCH  12  13
HETATM   13  N   UNK N   1       2.039  -2.105   0.493  0.00  0.00     0.088 N 
HETATM   14  C   UNK N   1       1.063  -1.719  -0.524  0.00  0.00     0.272 C 
HETATM   15  C   UNK N   1      -0.305  -2.304  -0.193  0.00  0.00     0.030 C 
HETATM   16  C   UNK N   1      -0.202  -3.823  -0.143  0.00  0.00     0.003 C 
HETATM   17  C   UNK N   1       0.882  -4.241   0.845  0.00  0.00     0.030 C 
HETATM   18  C   UNK N   1       2.199  -3.560   0.478  0.00  0.00     0.272 C 
ENDBRANCH  12  13
ENDBRANCH  11  12
ENDBRANCH   1  11
BRANCH   1  19
HETATM   19  C   UNK N   1       6.297  -0.880   0.138  0.00  0.00    -0.024 A 
HETATM   20  C   UNK N   1       7.572  -1.076   0.700  0.00  0.00     0.010 A 
HETATM   21  C   UNK N   1       8.529  -1.851   0.037  0.00  0.00     0.001 A 
HETATM   22  C   UNK N   1       8.225  -2.440  -1.192  0.00  0.00     0.000 A 
HETATM   23  C   UNK N   1       6.966  -2.251  -1.763  0.00  0.00     0.001 A 
HETATM   24  C   UNK N   1       6.011  -1.475  -1.103  0.00  0.00     0.010 A 
ENDBRANCH   1  19
TORSDOF 6
