MODEL 1
REMARK VINA RESULT:      -6.7      0.000      0.000
REMARK  6 active torsions:
REMARK  status: ('A' for Active; 'I' for Inactive)
REMARK    1  A    between atoms: O_1  and  C_8 
REMARK    2  A    between atoms: N_2  and  C_13 
REMARK    3  A    between atoms: C_3  and  C_8 
REMARK    4  A    between atoms: C_8  and  C_11 
REMARK    5  A    between atoms: C_8  and  C_12 
REMARK    6  A    between atoms: C_11  and  C_13 
ROOT
HETATM    1  C   UNK N   1      36.438  12.963  14.572  0.00  0.00     0.091 C 
ENDROOT
BRANCH   1   2
HETATM    2  O   UNK N   1      37.751  12.562  14.307  0.00  0.00    -0.385 OA
HETATM    3  H   UNK N   1      38.388  12.046  13.789  0.00  0.00     0.211 HD
ENDBRANCH   1   2
BRANCH   1   4
HETATM    4  C   UNK N   1      35.635  11.671  14.894  0.00  0.00     0.033 C 
HETATM    5  C   UNK N   1      36.332  10.318  14.645  0.00  0.00     0.016 C 
HETATM    6  C   UNK N   1      35.137   9.435  14.949  0.00  0.00     0.017 C 
HETATM    7  C   UNK N   1      36.401  10.059  13.166  0.00  0.00    -0.025 C 
HETATM    8  C   UNK N   1      34.227  10.005  13.872  0.00  0.00     0.009 C 
HETATM    9  C   UNK N   1      34.237  11.490  14.265  0.00  0.00     0.017 C 
HETATM   10  C   UNK N   1      35.168   9.873  12.719  0.00  0.00    -0.026 C 
ENDBRANCH   1   4
BRANCH   1  11
HETATM   11  C   UNK N   1      35.943  13.687  13.305  0.00  0.00     0.073 C 
BRANCH  11  12
HETATM   12  C   UNK N   1      36.789  13.437  12.066  0.00  0.00     0.276 C 
BRANCH  12  13
HETATM   13  N   UNK N   1      36.577  14.485  11.087  0.00  0.00     0.088 N 
HETATM   14  C   UNK N   1      35.823  13.868   9.998  0.00  0.00     0.272 C 
HETATM   15  C   UNK N   1      35.509  14.901   8.921  0.00  0.00     0.030 C 
HETATM   16  C   UNK N   1      34.684  16.026   9.531  0.00  0.00     0.003 C 
HETATM   17  C   UNK N   1      35.415  16.618  10.732  0.00  0.00     0.030 C 
HETATM   18  C   UNK N   1      35.747  15.508  11.727  0.00  0.00     0.272 C 
ENDBRANCH  12  13
ENDBRANCH  11  12
ENDBRANCH   1  11
BRANCH   1  19
HETATM   19  C   UNK N   1      36.442  13.918  15.766  0.00  0.00    -0.024 A 
HETATM   20  C   UNK N   1      37.261  15.062  15.761  0.00  0.00     0.010 A 
HETATM   21  C   UNK N   1      37.252  15.947  16.845  0.00  0.00     0.001 A 
HETATM   22  C   UNK N   1      36.425  15.702  17.943  0.00  0.00     0.000 A 
HETATM   23  C   UNK N   1      35.610  14.569  17.963  0.00  0.00     0.001 A 
HETATM   24  C   UNK N   1      35.621  13.684  16.883  0.00  0.00     0.010 A 
ENDBRANCH   1  19
TORSDOF 6
ENDMDL
MODEL 2
REMARK VINA RESULT:      -6.6      1.510      2.184
REMARK  6 active torsions:
REMARK  status: ('A' for Active; 'I' for Inactive)
REMARK    1  A    between atoms: O_1  and  C_8 
REMARK    2  A    between atoms: N_2  and  C_13 
REMARK    3  A    between atoms: C_3  and  C_8 
REMARK    4  A    between atoms: C_8  and  C_11 
REMARK    5  A    between atoms: C_8  and  C_12 
REMARK    6  A    between atoms: C_11  and  C_13 
ROOT
HETATM    1  C   UNK N   1      35.882  12.061  14.961  0.00  0.00     0.091 C 
ENDROOT
BRANCH   1   2
HETATM    2  O   UNK N   1      37.260  12.008  14.727  0.00  0.00    -0.385 OA
HETATM    3  H   UNK N   1      38.032  11.581  14.325  0.00  0.00     0.211 HD
ENDBRANCH   1   2
BRANCH   1   4
HETATM    4  C   UNK N   1      35.291  10.721  14.439  0.00  0.00     0.033 C 
HETATM    5  C   UNK N   1      36.172   9.870  13.502  0.00  0.00     0.016 C 
HETATM    6  C   UNK N   1      35.133   8.815  13.176  0.00  0.00     0.017 C 
HETATM    7  C   UNK N   1      36.230  10.519  12.148  0.00  0.00    -0.025 C 
HETATM    8  C   UNK N   1      34.113   9.765  12.567  0.00  0.00     0.009 C 
HETATM    9  C   UNK N   1      33.916  10.739  13.739  0.00  0.00     0.017 C 
HETATM   10  C   UNK N   1      35.025  10.452  11.603  0.00  0.00    -0.026 C 
ENDBRANCH   1   4
BRANCH   1  11
HETATM   11  C   UNK N   1      35.360  13.294  14.198  0.00  0.00     0.073 C 
BRANCH  11  12
HETATM   12  C   UNK N   1      36.451  14.190  13.631  0.00  0.00     0.276 C 
BRANCH  12  13
HETATM   13  N   UNK N   1      36.144  14.556  12.262  0.00  0.00     0.088 N 
HETATM   14  C   UNK N   1      37.074  13.798  11.428  0.00  0.00     0.272 C 
HETATM   15  C   UNK N   1      36.812  14.081   9.953  0.00  0.00     0.030 C 
HETATM   16  C   UNK N   1      35.383  13.678   9.612  0.00  0.00     0.003 C 
HETATM   17  C   UNK N   1      34.404  14.389  10.540  0.00  0.00     0.030 C 
HETATM   18  C   UNK N   1      34.778  14.105  11.993  0.00  0.00     0.272 C 
ENDBRANCH  12  13
ENDBRANCH  11  12
ENDBRANCH   1  11
BRANCH   1  19
HETATM   19  C   UNK N   1      35.639  12.219  16.462  0.00  0.00    -0.024 A 
HETATM   20  C   UNK N   1      35.705  11.103  17.317  0.00  0.00     0.010 A 
HETATM   21  C   UNK N   1      35.502  11.249  18.693  0.00  0.00     0.001 A 
HETATM   22  C   UNK N   1      35.234  12.509  19.232  0.00  0.00     0.000 A 
HETATM   23  C   UNK N   1      35.162  13.624  18.396  0.00  0.00     0.001 A 
HETATM   24  C   UNK N   1      35.361  13.478  17.022  0.00  0.00     0.010 A 
ENDBRANCH   1  19
TORSDOF 6
ENDMDL
MODEL 3
REMARK VINA RESULT:      -6.6     20.043     23.905
REMARK  6 active torsions:
REMARK  status: ('A' for Active; 'I' for Inactive)
REMARK    1  A    between atoms: O_1  and  C_8 
REMARK    2  A    between atoms: N_2  and  C_13 
REMARK    3  A    between atoms: C_3  and  C_8 
REMARK    4  A    between atoms: C_8  and  C_11 
REMARK    5  A    between atoms: C_8  and  C_12 
REMARK    6  A    between atoms: C_11  and  C_13 
ROOT
HETATM    1  C   UNK N   1      27.259  24.830  -4.158  0.00  0.00     0.091 C 
ENDROOT
BRANCH   1   2
HETATM    2  O   UNK N   1      26.104  24.263  -3.609  0.00  0.00    -0.385 OA
HETATM    3  H   UNK N   1      25.359  23.645  -3.665  0.00  0.00     0.211 HD
ENDBRANCH   1   2
BRANCH   1   4
HETATM    4  C   UNK N   1      27.280  26.319  -3.709  0.00  0.00     0.033 C 
HETATM    5  C   UNK N   1      25.949  27.097  -3.757  0.00  0.00     0.016 C 
HETATM    6  C   UNK N   1      26.515  28.455  -3.393  0.00  0.00     0.017 C 
HETATM    7  C   UNK N   1      25.602  27.401  -5.187  0.00  0.00    -0.025 C 
HETATM    8  C   UNK N   1      27.473  28.560  -4.570  0.00  0.00     0.009 C 
HETATM    9  C   UNK N   1      28.294  27.277  -4.367  0.00  0.00     0.017 C 
HETATM   10  C   UNK N   1      26.493  28.259  -5.657  0.00  0.00    -0.026 C 
ENDBRANCH   1   4
BRANCH   1  11
HETATM   11  C   UNK N   1      27.142  24.656  -5.685  0.00  0.00     0.073 C 
BRANCH  11  12
HETATM   12  C   UNK N   1      25.912  23.885  -6.138  0.00  0.00     0.276 C 
BRANCH  12  13
HETATM   13  N   UNK N   1      26.288  22.570  -6.619  0.00  0.00     0.088 N 
HETATM   14  C   UNK N   1      25.312  22.228  -7.652  0.00  0.00     0.272 C 
HETATM   15  C   UNK N   1      25.639  20.868  -8.258  0.00  0.00     0.030 C 
HETATM   16  C   UNK N   1      27.030  20.915  -8.875  0.00  0.00     0.003 C 
HETATM   17  C   UNK N   1      28.049  21.366  -7.833  0.00  0.00     0.030 C 
HETATM   18  C   UNK N   1      27.611  22.700  -7.233  0.00  0.00     0.272 C 
ENDBRANCH  12  13
ENDBRANCH  11  12
ENDBRANCH   1  11
BRANCH   1  19
HETATM   19  C   UNK N   1      28.480  24.079  -3.626  0.00  0.00    -0.024 A 
HETATM   20  C   UNK N   1      29.644  23.967  -4.408  0.00  0.00     0.010 A 
HETATM   21  C   UNK N   1      30.769  23.297  -3.915  0.00  0.00     0.001 A 
HETATM   22  C   UNK N   1      30.745  22.734  -2.638  0.00  0.00     0.000 A 
HETATM   23  C   UNK N   1      29.596  22.834  -1.853  0.00  0.00     0.001 A 
HETATM   24  C   UNK N   1      28.472  23.500  -2.345  0.00  0.00     0.010 A 
ENDBRANCH   1  19
TORSDOF 6
ENDMDL
MODEL 4
REMARK VINA RESULT:      -6.5      5.163      9.726
REMARK  6 active torsions:
REMARK  status: ('A' for Active; 'I' for Inactive)
REMARK    1  A    between atoms: O_1  and  C_8 
REMARK    2  A    between atoms: N_2  and  C_13 
REMARK    3  A    between atoms: C_3  and  C_8 
REMARK    4  A    between atoms: C_8  and  C_11 
REMARK    5  A    between atoms: C_8  and  C_12 
REMARK    6  A    between atoms: C_11  and  C_13 
ROOT
HETATM    1  C   UNK N   1      31.734  16.559   6.696  0.00  0.00     0.091 C 
ENDROOT
BRANCH   1   2
HETATM    2  O   UNK N   1      31.628  15.170   6.825  0.00  0.00    -0.385 OA
HETATM    3  H   UNK N   1      31.670  14.368   7.367  0.00  0.00     0.211 HD
ENDBRANCH   1   2
BRANCH   1   4
HETATM    4  C   UNK N   1      31.505  16.885   5.193  0.00  0.00     0.033 C 
HETATM    5  C   UNK N   1      31.223  15.704   4.242  0.00  0.00     0.016 C 
HETATM    6  C   UNK N   1      31.232  16.499   2.951  0.00  0.00     0.017 C 
HETATM    7  C   UNK N   1      32.493  14.935   4.013  0.00  0.00    -0.025 C 
HETATM    8  C   UNK N   1      32.656  17.016   3.080  0.00  0.00     0.009 C 
HETATM    9  C   UNK N   1      32.567  17.718   4.445  0.00  0.00     0.017 C 
HETATM   10  C   UNK N   1      33.327  15.704   3.331  0.00  0.00    -0.026 C 
ENDBRANCH   1   4
BRANCH   1  11
HETATM   11  C   UNK N   1      33.145  16.933   7.192  0.00  0.00     0.073 C 
BRANCH  11  12
HETATM   12  C   UNK N   1      34.176  15.824   7.051  0.00  0.00     0.276 C 
BRANCH  12  13
HETATM   13  N   UNK N   1      34.903  15.649   8.292  0.00  0.00     0.088 N 
HETATM   14  C   UNK N   1      34.534  16.783   9.136  0.00  0.00     0.272 C 
HETATM   15  C   UNK N   1      35.220  16.678  10.493  0.00  0.00     0.030 C 
HETATM   16  C   UNK N   1      34.792  15.384  11.173  0.00  0.00     0.003 C 
HETATM   17  C   UNK N   1      35.082  14.195  10.262  0.00  0.00     0.030 C 
HETATM   18  C   UNK N   1      34.413  14.413   8.907  0.00  0.00     0.272 C 
ENDBRANCH  12  13
ENDBRANCH  11  12
ENDBRANCH   1  11
BRANCH   1  19
HETATM   19  C   UNK N   1      30.668  17.221   7.569  0.00  0.00    -0.024 A 
HETATM   20  C   UNK N   1      31.039  18.028   8.661  0.00  0.00     0.010 A 
HETATM   21  C   UNK N   1      30.065  18.649   9.449  0.00  0.00     0.001 A 
HETATM   22  C   UNK N   1      28.711  18.475   9.156  0.00  0.00     0.000 A 
HETATM   23  C   UNK N   1      28.328  17.674   8.080  0.00  0.00     0.001 A 
HETATM   24  C   UNK N   1      29.300  17.051   7.294  0.00  0.00     0.010 A 
ENDBRANCH   1  19
TORSDOF 6
ENDMDL
MODEL 5
REMARK VINA RESULT:      -6.5     19.483     23.273
REMARK  6 active torsions:
REMARK  status: ('A' for Active; 'I' for Inactive)
REMARK    1  A    between atoms: O_1  and  C_8 
REMARK    2  A    between atoms: N_2  and  C_13 
REMARK    3  A    between atoms: C_3  and  C_8 
REMARK    4  A    between atoms: C_8  and  C_11 
REMARK    5  A    between atoms: C_8  and  C_12 
REMARK    6  A    between atoms: C_11  and  C_13 
ROOT
HETATM    1  C   UNK N   1      27.332  24.505  -3.973  0.00  0.00     0.091 C 
ENDROOT
BRANCH   1   2
HETATM    2  O   UNK N   1      26.731  24.028  -2.804  0.00  0.00    -0.385 OA
HETATM    3  H   UNK N   1      26.533  23.302  -2.192  0.00  0.00     0.211 HD
ENDBRANCH   1   2
BRANCH   1   4
HETATM    4  C   UNK N   1      26.473  23.984  -5.160  0.00  0.00     0.033 C 
HETATM    5  C   UNK N   1      27.203  23.236  -6.294  0.00  0.00     0.016 C 
HETATM    6  C   UNK N   1      26.009  23.090  -7.218  0.00  0.00     0.017 C 
HETATM    7  C   UNK N   1      27.978  24.222  -7.122  0.00  0.00    -0.025 C 
HETATM    8  C   UNK N   1      25.733  24.577  -7.374  0.00  0.00     0.009 C 
HETATM    9  C   UNK N   1      25.553  24.976  -5.901  0.00  0.00     0.017 C 
HETATM   10  C   UNK N   1      27.115  25.002  -7.754  0.00  0.00    -0.026 C 
ENDBRANCH   1   4
BRANCH   1  11
HETATM   11  C   UNK N   1      28.771  23.952  -3.975  0.00  0.00     0.073 C 
BRANCH  11  12
HETATM   12  C   UNK N   1      29.156  23.196  -2.713  0.00  0.00     0.276 C 
BRANCH  12  13
HETATM   13  N   UNK N   1      30.046  22.097  -3.033  0.00  0.00     0.088 N 
HETATM   14  C   UNK N   1      29.974  21.933  -4.483  0.00  0.00     0.272 C 
HETATM   15  C   UNK N   1      30.909  20.818  -4.937  0.00  0.00     0.030 C 
HETATM   16  C   UNK N   1      32.337  21.169  -4.539  0.00  0.00     0.003 C 
HETATM   17  C   UNK N   1      32.411  21.438  -3.040  0.00  0.00     0.030 C 
HETATM   18  C   UNK N   1      31.399  22.518  -2.664  0.00  0.00     0.272 C 
ENDBRANCH  12  13
ENDBRANCH  11  12
ENDBRANCH   1  11
BRANCH   1  19
HETATM   19  C   UNK N   1      27.347  26.033  -3.935  0.00  0.00    -0.024 A 
HETATM   20  C   UNK N   1      26.303  26.741  -3.312  0.00  0.00     0.010 A 
HETATM   21  C   UNK N   1      26.325  28.139  -3.260  0.00  0.00     0.001 A 
HETATM   22  C   UNK N   1      27.388  28.845  -3.827  0.00  0.00     0.000 A 
HETATM   23  C   UNK N   1      28.429  28.156  -4.450  0.00  0.00     0.001 A 
HETATM   24  C   UNK N   1      28.406  26.761  -4.505  0.00  0.00     0.010 A 
ENDBRANCH   1  19
TORSDOF 6
ENDMDL
MODEL 6
REMARK VINA RESULT:      -6.5     19.649     24.265
REMARK  6 active torsions:
REMARK  status: ('A' for Active; 'I' for Inactive)
REMARK    1  A    between atoms: O_1  and  C_8 
REMARK    2  A    between atoms: N_2  and  C_13 
REMARK    3  A    between atoms: C_3  and  C_8 
REMARK    4  A    between atoms: C_8  and  C_11 
REMARK    5  A    between atoms: C_8  and  C_12 
REMARK    6  A    between atoms: C_11  and  C_13 
ROOT
HETATM    1  C   UNK N   1      27.188  24.393  -5.456  0.00  0.00     0.091 C 
ENDROOT
BRANCH   1   2
HETATM    2  O   UNK N   1      28.263  25.092  -6.014  0.00  0.00    -0.385 OA
HETATM    3  H   UNK N   1      29.075  25.108  -6.543  0.00  0.00     0.211 HD
ENDBRANCH   1   2
BRANCH   1   4
HETATM    4  C   UNK N   1      26.056  25.433  -5.219  0.00  0.00     0.033 C 
HETATM    5  C   UNK N   1      25.607  26.285  -6.424  0.00  0.00     0.016 C 
HETATM    6  C   UNK N   1      24.655  27.190  -5.666  0.00  0.00     0.017 C 
HETATM    7  C   UNK N   1      26.662  27.312  -6.726  0.00  0.00    -0.025 C 
HETATM    8  C   UNK N   1      25.688  27.757  -4.706  0.00  0.00     0.009 C 
HETATM    9  C   UNK N   1      26.218  26.459  -4.078  0.00  0.00     0.017 C 
HETATM   10  C   UNK N   1      26.703  28.173  -5.721  0.00  0.00    -0.026 C 
ENDBRANCH   1   4
BRANCH   1  11
HETATM   11  C   UNK N   1      27.713  23.759  -4.153  0.00  0.00     0.073 C 
BRANCH  11  12
HETATM   12  C   UNK N   1      29.202  23.958  -3.913  0.00  0.00     0.276 C 
BRANCH  12  13
HETATM   13  N   UNK N   1      29.856  22.682  -3.700  0.00  0.00     0.088 N 
HETATM   14  C   UNK N   1      30.129  22.145  -5.032  0.00  0.00     0.272 C 
HETATM   15  C   UNK N   1      30.856  20.809  -4.925  0.00  0.00     0.030 C 
HETATM   16  C   UNK N   1      32.171  21.012  -4.182  0.00  0.00     0.003 C 
HETATM   17  C   UNK N   1      31.910  21.661  -2.827  0.00  0.00     0.030 C 
HETATM   18  C   UNK N   1      31.124  22.956  -3.022  0.00  0.00     0.272 C 
ENDBRANCH  12  13
ENDBRANCH  11  12
ENDBRANCH   1  11
BRANCH   1  19
HETATM   19  C   UNK N   1      26.739  23.308  -6.435  0.00  0.00    -0.024 A 
HETATM   20  C   UNK N   1      27.611  22.848  -7.439  0.00  0.00     0.010 A 
HETATM   21  C   UNK N   1      27.209  21.842  -8.323  0.00  0.00     0.001 A 
HETATM   22  C   UNK N   1      25.935  21.282  -8.215  0.00  0.00     0.000 A 
HETATM   23  C   UNK N   1      25.058  21.730  -7.226  0.00  0.00     0.001 A 
HETATM   24  C   UNK N   1      25.458  22.737  -6.345  0.00  0.00     0.010 A 
ENDBRANCH   1  19
TORSDOF 6
ENDMDL
MODEL 7
REMARK VINA RESULT:      -6.4      9.640     14.278
REMARK  6 active torsions:
REMARK  status: ('A' for Active; 'I' for Inactive)
REMARK    1  A    between atoms: O_1  and  C_8 
REMARK    2  A    between atoms: N_2  and  C_13 
REMARK    3  A    between atoms: C_3  and  C_8 
REMARK    4  A    between atoms: C_8  and  C_11 
REMARK    5  A    between atoms: C_8  and  C_12 
REMARK    6  A    between atoms: C_11  and  C_13 
ROOT
HETATM    1  C   UNK N   1      27.519  17.037   3.932  0.00  0.00     0.091 C 
ENDROOT
BRANCH   1   2
HETATM    2  O   UNK N   1      28.741  17.402   3.356  0.00  0.00    -0.385 OA
HETATM    3  H   UNK N   1      29.273  18.009   2.820  0.00  0.00     0.211 HD
ENDBRANCH   1   2
BRANCH   1   4
HETATM    4  C   UNK N   1      26.595  18.285   3.840  0.00  0.00     0.033 C 
HETATM    5  C   UNK N   1      27.259  19.643   3.533  0.00  0.00     0.016 C 
HETATM    6  C   UNK N   1      26.018  20.498   3.700  0.00  0.00     0.017 C 
HETATM    7  C   UNK N   1      27.998  20.122   4.750  0.00  0.00    -0.025 C 
HETATM    8  C   UNK N   1      25.746  20.121   5.148  0.00  0.00     0.009 C 
HETATM    9  C   UNK N   1      25.646  18.593   5.017  0.00  0.00     0.017 C 
HETATM   10  C   UNK N   1      27.110  20.404   5.691  0.00  0.00    -0.026 C 
ENDBRANCH   1   4
BRANCH   1  11
HETATM   11  C   UNK N   1      27.832  16.618   5.381  0.00  0.00     0.073 C 
BRANCH  11  12
HETATM   12  C   UNK N   1      29.290  16.785   5.783  0.00  0.00     0.276 C 
BRANCH  12  13
HETATM   13  N   UNK N   1      29.408  17.727   6.879  0.00  0.00     0.088 N 
HETATM   14  C   UNK N   1      28.217  17.533   7.704  0.00  0.00     0.272 C 
HETATM   15  C   UNK N   1      28.257  18.456   8.916  0.00  0.00     0.030 C 
HETATM   16  C   UNK N   1      29.500  18.146   9.741  0.00  0.00     0.003 C 
HETATM   17  C   UNK N   1      30.746  18.251   8.868  0.00  0.00     0.030 C 
HETATM   18  C   UNK N   1      30.593  17.346   7.648  0.00  0.00     0.272 C 
ENDBRANCH  12  13
ENDBRANCH  11  12
ENDBRANCH   1  11
BRANCH   1  19
HETATM   19  C   UNK N   1      26.933  15.862   3.150  0.00  0.00    -0.024 A 
HETATM   20  C   UNK N   1      27.717  14.726   2.875  0.00  0.00     0.010 A 
HETATM   21  C   UNK N   1      27.176  13.642   2.177  0.00  0.00     0.001 A 
HETATM   22  C   UNK N   1      25.848  13.677   1.746  0.00  0.00     0.000 A 
HETATM   23  C   UNK N   1      25.060  14.799   2.008  0.00  0.00     0.001 A 
HETATM   24  C   UNK N   1      25.600  15.883   2.703  0.00  0.00     0.010 A 
ENDBRANCH   1  19
TORSDOF 6
ENDMDL
MODEL 8
REMARK VINA RESULT:      -6.2      8.117     12.262
REMARK  6 active torsions:
REMARK  status: ('A' for Active; 'I' for Inactive)
REMARK    1  A    between atoms: O_1  and  C_8 
REMARK    2  A    between atoms: N_2  and  C_13 
REMARK    3  A    between atoms: C_3  and  C_8 
REMARK    4  A    between atoms: C_8  and  C_11 
REMARK    5  A    between atoms: C_8  and  C_12 
REMARK    6  A    between atoms: C_11  and  C_13 
ROOT
HETATM    1  C   UNK N   1      28.454  17.298   5.317  0.00  0.00     0.091 C 
ENDROOT
BRANCH   1   2
HETATM    2  O   UNK N   1      27.810  16.481   6.253  0.00  0.00    -0.385 OA
HETATM    3  H   UNK N   1      27.359  15.654   6.482  0.00  0.00     0.211 HD
ENDBRANCH   1   2
BRANCH   1   4
HETATM    4  C   UNK N   1      28.193  16.665   3.921  0.00  0.00     0.033 C 
HETATM    5  C   UNK N   1      27.440  15.320   3.877  0.00  0.00     0.016 C 
HETATM    6  C   UNK N   1      27.578  15.078   2.387  0.00  0.00     0.017 C 
HETATM    7  C   UNK N   1      28.355  14.223   4.343  0.00  0.00    -0.025 C 
HETATM    8  C   UNK N   1      29.099  15.074   2.356  0.00  0.00     0.009 C 
HETATM    9  C   UNK N   1      29.387  16.454   2.967  0.00  0.00     0.017 C 
HETATM   10  C   UNK N   1      29.322  14.080   3.450  0.00  0.00    -0.026 C 
ENDBRANCH   1   4
BRANCH   1  11
HETATM   11  C   UNK N   1      29.944  17.313   5.709  0.00  0.00     0.073 C 
BRANCH  11  12
HETATM   12  C   UNK N   1      30.309  16.357   6.835  0.00  0.00     0.276 C 
BRANCH  12  13
HETATM   13  N   UNK N   1      31.728  16.429   7.120  0.00  0.00     0.088 N 
HETATM   14  C   UNK N   1      32.318  17.196   6.025  0.00  0.00     0.272 C 
HETATM   15  C   UNK N   1      33.817  17.365   6.245  0.00  0.00     0.030 C 
HETATM   16  C   UNK N   1      34.050  18.100   7.559  0.00  0.00     0.003 C 
HETATM   17  C   UNK N   1      33.357  17.363   8.700  0.00  0.00     0.030 C 
HETATM   18  C   UNK N   1      31.878  17.179   8.368  0.00  0.00     0.272 C 
ENDBRANCH  12  13
ENDBRANCH  11  12
ENDBRANCH   1  11
BRANCH   1  19
HETATM   19  C   UNK N   1      27.865  18.706   5.400  0.00  0.00    -0.024 A 
HETATM   20  C   UNK N   1      27.861  19.407   6.621  0.00  0.00     0.010 A 
HETATM   21  C   UNK N   1      27.340  20.703   6.694  0.00  0.00     0.001 A 
HETATM   22  C   UNK N   1      26.820  21.315   5.552  0.00  0.00     0.000 A 
HETATM   23  C   UNK N   1      26.814  20.630   4.336  0.00  0.00     0.001 A 
HETATM   24  C   UNK N   1      27.331  19.335   4.263  0.00  0.00     0.010 A 
ENDBRANCH   1  19
TORSDOF 6
ENDMDL
MODEL 9
REMARK VINA RESULT:      -6.2      9.354     13.229
REMARK  6 active torsions:
REMARK  status: ('A' for Active; 'I' for Inactive)
REMARK    1  A    between atoms: O_1  and  C_8 
REMARK    2  A    between atoms: N_2  and  C_13 
REMARK    3  A    between atoms: C_3  and  C_8 
REMARK    4  A    between atoms: C_8  and  C_11 
REMARK    5  A    between atoms: C_8  and  C_12 
REMARK    6  A    between atoms: C_11  and  C_13 
ROOT
HETATM    1  C   UNK N   1      28.076  17.631   6.295  0.00  0.00     0.091 C 
ENDROOT
BRANCH   1   2
HETATM    2  O   UNK N   1      27.036  17.300   7.169  0.00  0.00    -0.385 OA
HETATM    3  H   UNK N   1      26.096  17.314   7.406  0.00  0.00     0.211 HD
ENDBRANCH   1   2
BRANCH   1   4
HETATM    4  C   UNK N   1      27.716  19.014   5.680  0.00  0.00     0.033 C 
HETATM    5  C   UNK N   1      26.236  19.445   5.712  0.00  0.00     0.016 C 
HETATM    6  C   UNK N   1      26.395  20.715   4.899  0.00  0.00     0.017 C 
HETATM    7  C   UNK N   1      25.464  18.651   4.696  0.00  0.00    -0.025 C 
HETATM    8  C   UNK N   1      26.941  20.046   3.647  0.00  0.00     0.009 C 
HETATM    9  C   UNK N   1      28.162  19.322   4.236  0.00  0.00     0.017 C 
HETATM   10  C   UNK N   1      25.877  19.008   3.490  0.00  0.00    -0.026 C 
ENDBRANCH   1   4
BRANCH   1  11
HETATM   11  C   UNK N   1      28.140  16.500   5.250  0.00  0.00     0.073 C 
BRANCH  11  12
HETATM   12  C   UNK N   1      27.147  15.371   5.483  0.00  0.00     0.276 C 
BRANCH  12  13
HETATM   13  N   UNK N   1      26.708  14.814   4.219  0.00  0.00     0.088 N 
HETATM   14  C   UNK N   1      25.282  15.116   4.122  0.00  0.00     0.272 C 
HETATM   15  C   UNK N   1      24.721  14.603   2.801  0.00  0.00     0.030 C 
HETATM   16  C   UNK N   1      25.459  15.274   1.649  0.00  0.00     0.003 C 
HETATM   17  C   UNK N   1      26.961  15.049   1.789  0.00  0.00     0.030 C 
HETATM   18  C   UNK N   1      27.424  15.530   3.162  0.00  0.00     0.272 C 
ENDBRANCH  12  13
ENDBRANCH  11  12
ENDBRANCH   1  11
BRANCH   1  19
HETATM   19  C   UNK N   1      29.383  17.704   7.084  0.00  0.00    -0.024 A 
HETATM   20  C   UNK N   1      30.556  17.116   6.576  0.00  0.00     0.010 A 
HETATM   21  C   UNK N   1      31.757  17.199   7.288  0.00  0.00     0.001 A 
HETATM   22  C   UNK N   1      31.802  17.870   8.512  0.00  0.00     0.000 A 
HETATM   23  C   UNK N   1      30.646  18.455   9.029  0.00  0.00     0.001 A 
HETATM   24  C   UNK N   1      29.445  18.370   8.320  0.00  0.00     0.010 A 
ENDBRANCH   1  19
TORSDOF 6
ENDMDL
