MODEL 1
REMARK VINA RESULT:      -5.8      0.000      0.000
REMARK  6 active torsions:
REMARK  status: ('A' for Active; 'I' for Inactive)
REMARK    1  A    between atoms: C_13  and  O_2 
REMARK    2  A    between atoms: C_12  and  O_3 
REMARK    3  A    between atoms: O_4  and  C_16 
REMARK    4  A    between atoms: C_15  and  N_6 
REMARK       I    between atoms: N_11  and  C_19 
REMARK    5  A    between atoms: C_14  and  C_16 
REMARK    6  A    between atoms: C_18  and  C_19 
ROOT
HETATM    1  N   UNK N   1      31.832  16.960   8.305  0.00  0.00    -0.254 N 
HETATM    2  N   UNK N   1      32.844  17.453   8.995  0.00  0.00    -0.275 N 
ATOM      3  HN  UNK N   1      32.934  18.400   9.361  1.00  0.00     0.189 HD
HETATM    4  N   UNK N   1      33.301  15.327   8.509  0.00  0.00    -0.332 N 
ATOM      5  HN  UNK N   1      33.776  14.426   8.438  1.00  0.00     0.168 HD
HETATM    6  C   UNK N   1      32.094  15.672   8.014  0.00  0.00     0.205 A 
HETATM    7  C   UNK N   1      33.734  16.451   9.117  0.00  0.00     0.190 A 
ENDROOT
BRANCH   1   8
HETATM    8  C   UNK N   1      30.584  17.673   8.033  0.00  0.00     0.276 C 
HETATM    9  O   UNK N   1      29.832  17.036   7.018  0.00  0.00    -0.352 OA
HETATM   10  C   UNK N   1      28.486  17.134   7.437  0.00  0.00     0.179 C 
HETATM   11  C   UNK N   1      28.438  18.150   8.550  0.00  0.00     0.182 C 
HETATM   12  C   UNK N   1      29.697  17.793   9.249  0.00  0.00     0.200 C 
BRANCH  10  13
HETATM   13  C   UNK N   1      27.588  17.562   6.291  0.00  0.00     0.198 C 
BRANCH  13  14
HETATM   14  O   UNK N   1      27.046  18.818   6.561  0.00  0.00    -0.398 OA
HETATM   15  H   UNK N   1      26.165  18.920   6.956  0.00  0.00     0.209 HD
ENDBRANCH  13  14
ENDBRANCH  10  13
BRANCH  11  16
HETATM   16  O   UNK N   1      27.323  17.973   9.370  0.00  0.00    -0.390 OA
HETATM   17  H   UNK N   1      26.394  18.252   9.355  0.00  0.00     0.210 HD
ENDBRANCH  11  16
BRANCH  12  18
HETATM   18  O   UNK N   1      30.119  18.835  10.074  0.00  0.00    -0.388 OA
HETATM   19  H   UNK N   1      29.618  19.646  10.256  0.00  0.00     0.210 HD
ENDBRANCH  12  18
ENDBRANCH   1   8
BRANCH   7  20
HETATM   20  C   UNK N   1      34.991  16.545   9.875  0.00  0.00     0.284 C 
HETATM   21  O   UNK N   1      35.477  17.637  10.123  0.00  0.00    -0.265 OA
HETATM   22  N   UNK N   1      35.595  15.428  10.327  0.00  0.00    -0.363 N 
HETATM   23  H   UNK N   1      36.399  15.496  10.892  0.00  0.00     0.159 HD
HETATM   24  H   UNK N   1      35.233  14.544  10.091  0.00  0.00     0.159 HD
ENDBRANCH   7  20
TORSDOF 6
ENDMDL
MODEL 2
REMARK VINA RESULT:      -5.8      3.996      5.811
REMARK  6 active torsions:
REMARK  status: ('A' for Active; 'I' for Inactive)
REMARK    1  A    between atoms: C_13  and  O_2 
REMARK    2  A    between atoms: C_12  and  O_3 
REMARK    3  A    between atoms: O_4  and  C_16 
REMARK    4  A    between atoms: C_15  and  N_6 
REMARK       I    between atoms: N_11  and  C_19 
REMARK    5  A    between atoms: C_14  and  C_16 
REMARK    6  A    between atoms: C_18  and  C_19 
ROOT
HETATM    1  N   UNK N   1      35.760  15.140  11.171  0.00  0.00    -0.254 N 
HETATM    2  N   UNK N   1      35.556  14.526  12.322  0.00  0.00    -0.275 N 
ATOM      3  HN  UNK N   1      34.772  14.661  12.958  1.00  0.00     0.189 HD
HETATM    4  N   UNK N   1      37.460  13.763  11.453  0.00  0.00    -0.332 N 
ATOM      5  HN  UNK N   1      38.332  13.248  11.323  1.00  0.00     0.168 HD
HETATM    6  C   UNK N   1      36.905  14.678  10.633  0.00  0.00     0.205 A 
HETATM    7  C   UNK N   1      36.595  13.686  12.486  0.00  0.00     0.190 A 
ENDROOT
BRANCH   1   8
HETATM    8  C   UNK N   1      34.817  16.064  10.541  0.00  0.00     0.276 C 
HETATM    9  O   UNK N   1      35.448  16.859   9.555  0.00  0.00    -0.352 OA
HETATM   10  C   UNK N   1      34.511  16.954   8.501  0.00  0.00     0.179 C 
HETATM   11  C   UNK N   1      33.182  16.486   9.040  0.00  0.00     0.182 C 
HETATM   12  C   UNK N   1      33.654  15.360   9.883  0.00  0.00     0.200 C 
BRANCH  10  13
HETATM   13  C   UNK N   1      34.404  18.380   7.993  0.00  0.00     0.198 C 
BRANCH  13  14
HETATM   14  O   UNK N   1      35.358  19.177   8.624  0.00  0.00    -0.398 OA
HETATM   15  H   UNK N   1      35.796  19.910   8.163  0.00  0.00     0.209 HD
ENDBRANCH  13  14
ENDBRANCH  10  13
BRANCH  11  16
HETATM   16  O   UNK N   1      32.332  16.051   8.024  0.00  0.00    -0.390 OA
HETATM   17  H   UNK N   1      31.668  16.459   7.446  0.00  0.00     0.210 HD
ENDBRANCH  11  16
BRANCH  12  18
HETATM   18  O   UNK N   1      32.688  15.006  10.824  0.00  0.00    -0.388 OA
HETATM   19  H   UNK N   1      32.746  15.168  11.778  0.00  0.00     0.210 HD
ENDBRANCH  12  18
ENDBRANCH   1   8
BRANCH   7  20
HETATM   20  C   UNK N   1      36.738  12.753  13.613  0.00  0.00     0.284 C 
HETATM   21  O   UNK N   1      36.389  11.590  13.494  0.00  0.00    -0.265 OA
HETATM   22  N   UNK N   1      37.285  13.170  14.772  0.00  0.00    -0.363 N 
HETATM   23  H   UNK N   1      37.443  12.529  15.503  0.00  0.00     0.159 HD
HETATM   24  H   UNK N   1      37.526  14.118  14.889  0.00  0.00     0.159 HD
ENDBRANCH   7  20
TORSDOF 6
ENDMDL
MODEL 3
REMARK VINA RESULT:      -5.6      4.184      5.274
REMARK  6 active torsions:
REMARK  status: ('A' for Active; 'I' for Inactive)
REMARK    1  A    between atoms: C_13  and  O_2 
REMARK    2  A    between atoms: C_12  and  O_3 
REMARK    3  A    between atoms: O_4  and  C_16 
REMARK    4  A    between atoms: C_15  and  N_6 
REMARK       I    between atoms: N_11  and  C_19 
REMARK    5  A    between atoms: C_14  and  C_16 
REMARK    6  A    between atoms: C_18  and  C_19 
ROOT
HETATM    1  N   UNK N   1      35.144  14.727  10.290  0.00  0.00    -0.254 N 
HETATM    2  N   UNK N   1      35.658  14.986  11.479  0.00  0.00    -0.275 N 
ATOM      3  HN  UNK N   1      36.185  15.814  11.752  1.00  0.00     0.189 HD
HETATM    4  N   UNK N   1      34.644  13.004  11.575  0.00  0.00    -0.332 N 
ATOM      5  HN  UNK N   1      34.289  12.109  11.913  1.00  0.00     0.168 HD
HETATM    6  C   UNK N   1      34.520  13.535  10.340  0.00  0.00     0.205 A 
HETATM    7  C   UNK N   1      35.347  13.933  12.257  0.00  0.00     0.190 A 
ENDROOT
BRANCH   1   8
HETATM    8  C   UNK N   1      35.148  15.657   9.161  0.00  0.00     0.276 C 
HETATM    9  O   UNK N   1      34.376  15.166   8.082  0.00  0.00    -0.352 OA
HETATM   10  C   UNK N   1      33.705  16.297   7.563  0.00  0.00     0.179 C 
HETATM   11  C   UNK N   1      34.371  17.518   8.144  0.00  0.00     0.182 C 
HETATM   12  C   UNK N   1      34.611  17.021   9.521  0.00  0.00     0.200 C 
BRANCH  10  13
HETATM   13  C   UNK N   1      33.777  16.326   6.047  0.00  0.00     0.198 C 
BRANCH  13  14
HETATM   14  O   UNK N   1      34.129  17.604   5.617  0.00  0.00    -0.398 OA
HETATM   15  H   UNK N   1      34.459  18.277   6.234  0.00  0.00     0.209 HD
ENDBRANCH  13  14
ENDBRANCH  10  13
BRANCH  11  16
HETATM   16  O   UNK N   1      33.526  18.628   8.134  0.00  0.00    -0.390 OA
HETATM   17  H   UNK N   1      32.689  18.864   7.705  0.00  0.00     0.210 HD
ENDBRANCH  11  16
BRANCH  12  18
HETATM   18  O   UNK N   1      35.585  17.788  10.162  0.00  0.00    -0.388 OA
HETATM   19  H   UNK N   1      35.431  18.640  10.598  0.00  0.00     0.210 HD
ENDBRANCH  12  18
ENDBRANCH   1   8
BRANCH   7  20
HETATM   20  C   UNK N   1      35.672  13.833  13.688  0.00  0.00     0.284 C 
HETATM   21  O   UNK N   1      34.882  13.316  14.461  0.00  0.00    -0.265 OA
HETATM   22  N   UNK N   1      36.856  14.283  14.146  0.00  0.00    -0.363 N 
HETATM   23  H   UNK N   1      37.102  14.154  15.091  0.00  0.00     0.159 HD
HETATM   24  H   UNK N   1      37.478  14.742  13.535  0.00  0.00     0.159 HD
ENDBRANCH   7  20
TORSDOF 6
ENDMDL
MODEL 4
REMARK VINA RESULT:      -5.6      4.689      7.882
REMARK  6 active torsions:
REMARK  status: ('A' for Active; 'I' for Inactive)
REMARK    1  A    between atoms: C_13  and  O_2 
REMARK    2  A    between atoms: C_12  and  O_3 
REMARK    3  A    between atoms: O_4  and  C_16 
REMARK    4  A    between atoms: C_15  and  N_6 
REMARK       I    between atoms: N_11  and  C_19 
REMARK    5  A    between atoms: C_14  and  C_16 
REMARK    6  A    between atoms: C_18  and  C_19 
ROOT
HETATM    1  N   UNK N   1      35.016  15.697  10.777  0.00  0.00    -0.254 N 
HETATM    2  N   UNK N   1      35.391  16.753  10.079  0.00  0.00    -0.275 N 
ATOM      3  HN  UNK N   1      36.277  17.250  10.146  1.00  0.00     0.189 HD
HETATM    4  N   UNK N   1      33.336  16.182   9.432  0.00  0.00    -0.332 N 
ATOM      5  HN  UNK N   1      32.435  16.173   8.952  1.00  0.00     0.168 HD
HETATM    6  C   UNK N   1      33.779  15.338  10.387  0.00  0.00     0.205 A 
HETATM    7  C   UNK N   1      34.363  17.041   9.259  0.00  0.00     0.190 A 
ENDROOT
BRANCH   1   8
HETATM    8  C   UNK N   1      35.873  14.973  11.716  0.00  0.00     0.276 C 
HETATM    9  O   UNK N   1      35.115  14.328  12.721  0.00  0.00    -0.352 OA
HETATM   10  C   UNK N   1      35.749  13.081  12.921  0.00  0.00     0.179 C 
HETATM   11  C   UNK N   1      37.102  13.157  12.258  0.00  0.00     0.182 C 
HETATM   12  C   UNK N   1      36.726  13.923  11.045  0.00  0.00     0.200 C 
BRANCH  10  13
HETATM   13  C   UNK N   1      35.902  12.778  14.401  0.00  0.00     0.198 C 
BRANCH  13  14
HETATM   14  O   UNK N   1      37.219  13.012  14.796  0.00  0.00    -0.398 OA
HETATM   15  H   UNK N   1      37.909  13.250  14.156  0.00  0.00     0.209 HD
ENDBRANCH  13  14
ENDBRANCH  10  13
BRANCH  11  16
HETATM   16  O   UNK N   1      37.598  11.893  11.939  0.00  0.00    -0.390 OA
HETATM   17  H   UNK N   1      37.334  10.976  12.111  0.00  0.00     0.210 HD
ENDBRANCH  11  16
BRANCH  12  18
HETATM   18  O   UNK N   1      37.851  14.497  10.452  0.00  0.00    -0.388 OA
HETATM   19  H   UNK N   1      37.864  15.338   9.969  0.00  0.00     0.210 HD
ENDBRANCH  12  18
ENDBRANCH   1   8
BRANCH   7  20
HETATM   20  C   UNK N   1      34.379  18.114   8.253  0.00  0.00     0.284 C 
HETATM   21  O   UNK N   1      35.064  19.109   8.429  0.00  0.00    -0.265 OA
HETATM   22  N   UNK N   1      33.662  17.990   7.119  0.00  0.00    -0.363 N 
HETATM   23  H   UNK N   1      33.727  18.677   6.416  0.00  0.00     0.159 HD
HETATM   24  H   UNK N   1      33.073  17.211   6.992  0.00  0.00     0.159 HD
ENDBRANCH   7  20
TORSDOF 6
ENDMDL
MODEL 5
REMARK VINA RESULT:      -5.5     10.000     10.837
REMARK  6 active torsions:
REMARK  status: ('A' for Active; 'I' for Inactive)
REMARK    1  A    between atoms: C_13  and  O_2 
REMARK    2  A    between atoms: C_12  and  O_3 
REMARK    3  A    between atoms: O_4  and  C_16 
REMARK    4  A    between atoms: C_15  and  N_6 
REMARK       I    between atoms: N_11  and  C_19 
REMARK    5  A    between atoms: C_14  and  C_16 
REMARK    6  A    between atoms: C_18  and  C_19 
ROOT
HETATM    1  N   UNK N   1      21.246  13.864   8.722  0.00  0.00    -0.254 N 
HETATM    2  N   UNK N   1      21.711  13.780   9.955  0.00  0.00    -0.275 N 
ATOM      3  HN  UNK N   1      21.585  14.457  10.705  1.00  0.00     0.189 HD
HETATM    4  N   UNK N   1      22.360  11.963   8.840  0.00  0.00    -0.332 N 
ATOM      5  HN  UNK N   1      22.795  11.070   8.605  1.00  0.00     0.168 HD
HETATM    6  C   UNK N   1      21.625  12.765   8.042  0.00  0.00     0.205 A 
HETATM    7  C   UNK N   1      22.386  12.617  10.020  0.00  0.00     0.190 A 
ENDROOT
BRANCH   1   8
HETATM    8  C   UNK N   1      20.356  14.918   8.238  0.00  0.00     0.276 C 
HETATM    9  O   UNK N   1      19.308  15.175   9.153  0.00  0.00    -0.352 OA
HETATM   10  C   UNK N   1      19.141  16.578   9.141  0.00  0.00     0.179 C 
HETATM   11  C   UNK N   1      19.880  17.106   7.936  0.00  0.00     0.182 C 
HETATM   12  C   UNK N   1      21.071  16.224   7.987  0.00  0.00     0.200 C 
BRANCH  10  13
HETATM   13  C   UNK N   1      17.672  16.952   9.066  0.00  0.00     0.198 C 
BRANCH  13  14
HETATM   14  O   UNK N   1      17.484  18.229   9.594  0.00  0.00    -0.398 OA
HETATM   15  H   UNK N   1      17.520  18.397  10.549  0.00  0.00     0.209 HD
ENDBRANCH  13  14
ENDBRANCH  10  13
BRANCH  11  16
HETATM   16  O   UNK N   1      20.223  18.450   8.083  0.00  0.00    -0.390 OA
HETATM   17  H   UNK N   1      21.041  18.950   8.227  0.00  0.00     0.210 HD
ENDBRANCH  11  16
BRANCH  12  18
HETATM   18  O   UNK N   1      21.728  16.206   6.757  0.00  0.00    -0.388 OA
HETATM   19  H   UNK N   1      22.637  15.902   6.610  0.00  0.00     0.210 HD
ENDBRANCH  12  18
ENDBRANCH   1   8
BRANCH   7  20
HETATM   20  C   UNK N   1      23.017  12.091  11.239  0.00  0.00     0.284 C 
HETATM   21  O   UNK N   1      24.234  12.042  11.328  0.00  0.00    -0.265 OA
HETATM   22  N   UNK N   1      22.256  11.691  12.277  0.00  0.00    -0.363 N 
HETATM   23  H   UNK N   1      22.680  11.403  13.119  0.00  0.00     0.159 HD
HETATM   24  H   UNK N   1      21.275  11.686  12.195  0.00  0.00     0.159 HD
ENDBRANCH   7  20
TORSDOF 6
ENDMDL
MODEL 6
REMARK VINA RESULT:      -5.4      9.786     11.475
REMARK  6 active torsions:
REMARK  status: ('A' for Active; 'I' for Inactive)
REMARK    1  A    between atoms: C_13  and  O_2 
REMARK    2  A    between atoms: C_12  and  O_3 
REMARK    3  A    between atoms: O_4  and  C_16 
REMARK    4  A    between atoms: C_15  and  N_6 
REMARK       I    between atoms: N_11  and  C_19 
REMARK    5  A    between atoms: C_14  and  C_16 
REMARK    6  A    between atoms: C_18  and  C_19 
ROOT
HETATM    1  N   UNK N   1      21.418  17.735   4.760  0.00  0.00    -0.254 N 
HETATM    2  N   UNK N   1      20.947  16.809   5.575  0.00  0.00    -0.275 N 
ATOM      3  HN  UNK N   1      19.992  16.454   5.613  1.00  0.00     0.189 HD
HETATM    4  N   UNK N   1      23.106  17.108   6.034  0.00  0.00    -0.332 N 
ATOM      5  HN  UNK N   1      24.029  17.028   6.463  1.00  0.00     0.168 HD
HETATM    6  C   UNK N   1      22.726  17.916   5.024  0.00  0.00     0.205 A 
HETATM    7  C   UNK N   1      21.982  16.430   6.347  0.00  0.00     0.190 A 
ENDROOT
BRANCH   1   8
HETATM    8  C   UNK N   1      20.660  18.349   3.670  0.00  0.00     0.276 C 
HETATM    9  O   UNK N   1      21.264  19.551   3.231  0.00  0.00    -0.352 OA
HETATM   10  C   UNK N   1      21.123  19.544   1.824  0.00  0.00     0.179 C 
HETATM   11  C   UNK N   1      20.113  18.476   1.483  0.00  0.00     0.182 C 
HETATM   12  C   UNK N   1      20.519  17.445   2.469  0.00  0.00     0.200 C 
BRANCH  10  13
HETATM   13  C   UNK N   1      20.656  20.895   1.315  0.00  0.00     0.198 C 
BRANCH  13  14
HETATM   14  O   UNK N   1      20.755  20.934  -0.075  0.00  0.00    -0.398 OA
HETATM   15  H   UNK N   1      20.543  21.736  -0.579  0.00  0.00     0.209 HD
ENDBRANCH  13  14
ENDBRANCH  10  13
BRANCH  11  16
HETATM   16  O   UNK N   1      20.258  18.023   0.171  0.00  0.00    -0.390 OA
HETATM   17  H   UNK N   1      20.281  17.160  -0.271  0.00  0.00     0.210 HD
ENDBRANCH  11  16
BRANCH  12  18
HETATM   18  O   UNK N   1      19.497  16.515   2.662  0.00  0.00    -0.388 OA
HETATM   19  H   UNK N   1      19.611  15.552   2.684  0.00  0.00     0.210 HD
ENDBRANCH  12  18
ENDBRANCH   1   8
BRANCH   7  20
HETATM   20  C   UNK N   1      21.916  15.364   7.358  0.00  0.00     0.284 C 
HETATM   21  O   UNK N   1      20.981  15.318   8.140  0.00  0.00    -0.265 OA
HETATM   22  N   UNK N   1      22.872  14.414   7.403  0.00  0.00    -0.363 N 
HETATM   23  H   UNK N   1      22.791  13.663   8.035  0.00  0.00     0.159 HD
HETATM   24  H   UNK N   1      23.651  14.471   6.805  0.00  0.00     0.159 HD
ENDBRANCH   7  20
TORSDOF 6
ENDMDL
MODEL 7
REMARK VINA RESULT:      -5.4     14.016     15.623
REMARK  6 active torsions:
REMARK  status: ('A' for Active; 'I' for Inactive)
REMARK    1  A    between atoms: C_13  and  O_2 
REMARK    2  A    between atoms: C_12  and  O_3 
REMARK    3  A    between atoms: O_4  and  C_16 
REMARK    4  A    between atoms: C_15  and  N_6 
REMARK       I    between atoms: N_11  and  C_19 
REMARK    5  A    between atoms: C_14  and  C_16 
REMARK    6  A    between atoms: C_18  and  C_19 
ROOT
HETATM    1  N   UNK N   1      41.816  22.776   1.950  0.00  0.00    -0.254 N 
HETATM    2  N   UNK N   1      41.754  24.079   1.742  0.00  0.00    -0.275 N 
ATOM      3  HN  UNK N   1      42.248  24.806   2.257  1.00  0.00     0.189 HD
HETATM    4  N   UNK N   1      40.423  23.073   0.265  0.00  0.00    -0.332 N 
ATOM      5  HN  UNK N   1      39.759  22.911  -0.494  1.00  0.00     0.168 HD
HETATM    6  C   UNK N   1      41.022  22.158   1.055  0.00  0.00     0.205 A 
HETATM    7  C   UNK N   1      40.905  24.251   0.712  0.00  0.00     0.190 A 
ENDROOT
BRANCH   1   8
HETATM    8  C   UNK N   1      42.710  22.127   2.908  0.00  0.00     0.276 C 
HETATM    9  O   UNK N   1      43.323  20.980   2.353  0.00  0.00    -0.352 OA
HETATM   10  C   UNK N   1      44.652  21.000   2.832  0.00  0.00     0.179 C 
HETATM   11  C   UNK N   1      44.704  21.999   3.962  0.00  0.00     0.182 C 
HETATM   12  C   UNK N   1      43.810  23.039   3.397  0.00  0.00     0.200 C 
BRANCH  10  13
HETATM   13  C   UNK N   1      45.078  19.628   3.319  0.00  0.00     0.198 C 
BRANCH  13  14
HETATM   14  O   UNK N   1      46.451  19.620   3.564  0.00  0.00    -0.398 OA
HETATM   15  H   UNK N   1      46.977  18.807   3.500  0.00  0.00     0.209 HD
ENDBRANCH  13  14
ENDBRANCH  10  13
BRANCH  11  16
HETATM   16  O   UNK N   1      45.996  22.483   4.171  0.00  0.00    -0.390 OA
HETATM   17  H   UNK N   1      46.441  23.341   4.093  0.00  0.00     0.210 HD
ENDBRANCH  11  16
BRANCH  12  18
HETATM   18  O   UNK N   1      43.345  23.890   4.399  0.00  0.00    -0.388 OA
HETATM   19  H   UNK N   1      43.094  24.819   4.275  0.00  0.00     0.210 HD
ENDBRANCH  12  18
ENDBRANCH   1   8
BRANCH   7  20
HETATM   20  C   UNK N   1      40.592  25.554   0.104  0.00  0.00     0.284 C 
HETATM   21  O   UNK N   1      39.758  26.284   0.615  0.00  0.00    -0.265 OA
HETATM   22  N   UNK N   1      41.247  25.960  -1.002  0.00  0.00    -0.363 N 
HETATM   23  H   UNK N   1      41.086  26.860  -1.368  0.00  0.00     0.159 HD
HETATM   24  H   UNK N   1      41.888  25.356  -1.444  0.00  0.00     0.159 HD
ENDBRANCH   7  20
TORSDOF 6
ENDMDL
MODEL 8
REMARK VINA RESULT:      -5.4      2.620      7.050
REMARK  6 active torsions:
REMARK  status: ('A' for Active; 'I' for Inactive)
REMARK    1  A    between atoms: C_13  and  O_2 
REMARK    2  A    between atoms: C_12  and  O_3 
REMARK    3  A    between atoms: O_4  and  C_16 
REMARK    4  A    between atoms: C_15  and  N_6 
REMARK       I    between atoms: N_11  and  C_19 
REMARK    5  A    between atoms: C_14  and  C_16 
REMARK    6  A    between atoms: C_18  and  C_19 
ROOT
HETATM    1  N   UNK N   1      33.936  16.220   8.981  0.00  0.00    -0.254 N 
HETATM    2  N   UNK N   1      32.618  16.268   9.044  0.00  0.00    -0.275 N 
ATOM      3  HN  UNK N   1      31.997  15.558   9.429  1.00  0.00     0.189 HD
HETATM    4  N   UNK N   1      33.338  18.143   8.081  0.00  0.00    -0.332 N 
ATOM      5  HN  UNK N   1      33.358  19.056   7.624  1.00  0.00     0.168 HD
HETATM    6  C   UNK N   1      34.382  17.354   8.408  0.00  0.00     0.205 A 
HETATM    7  C   UNK N   1      32.261  17.444   8.497  0.00  0.00     0.190 A 
ENDROOT
BRANCH   1   8
HETATM    8  C   UNK N   1      34.760  15.162   9.565  0.00  0.00     0.276 C 
HETATM    9  O   UNK N   1      36.086  15.203   9.072  0.00  0.00    -0.352 OA
HETATM   10  C   UNK N   1      36.905  14.911  10.186  0.00  0.00     0.179 C 
HETATM   11  C   UNK N   1      36.009  14.355  11.264  0.00  0.00     0.182 C 
HETATM   12  C   UNK N   1      34.833  15.236  11.071  0.00  0.00     0.200 C 
BRANCH  10  13
HETATM   13  C   UNK N   1      37.983  13.907   9.822  0.00  0.00     0.198 C 
BRANCH  13  14
HETATM   14  O   UNK N   1      38.555  13.389  10.983  0.00  0.00    -0.398 OA
HETATM   15  H   UNK N   1      38.946  13.965  11.660  0.00  0.00     0.209 HD
ENDBRANCH  13  14
ENDBRANCH  10  13
BRANCH  11  16
HETATM   16  O   UNK N   1      36.567  14.506  12.534  0.00  0.00    -0.390 OA
HETATM   17  H   UNK N   1      36.379  14.171  13.424  0.00  0.00     0.210 HD
ENDBRANCH  11  16
BRANCH  12  18
HETATM   18  O   UNK N   1      33.694  14.679  11.654  0.00  0.00    -0.388 OA
HETATM   19  H   UNK N   1      32.851  15.138  11.789  0.00  0.00     0.210 HD
ENDBRANCH  12  18
ENDBRANCH   1   8
BRANCH   7  20
HETATM   20  C   UNK N   1      30.878  17.938   8.420  0.00  0.00     0.284 C 
HETATM   21  O   UNK N   1      30.487  18.790   9.202  0.00  0.00    -0.265 OA
HETATM   22  N   UNK N   1      30.046  17.476   7.466  0.00  0.00    -0.363 N 
HETATM   23  H   UNK N   1      29.142  17.856   7.373  0.00  0.00     0.159 HD
HETATM   24  H   UNK N   1      30.341  16.757   6.862  0.00  0.00     0.159 HD
ENDBRANCH   7  20
TORSDOF 6
ENDMDL
MODEL 9
REMARK VINA RESULT:      -5.3     13.086     15.155
REMARK  6 active torsions:
REMARK  status: ('A' for Active; 'I' for Inactive)
REMARK    1  A    between atoms: C_13  and  O_2 
REMARK    2  A    between atoms: C_12  and  O_3 
REMARK    3  A    between atoms: O_4  and  C_16 
REMARK    4  A    between atoms: C_15  and  N_6 
REMARK       I    between atoms: N_11  and  C_19 
REMARK    5  A    between atoms: C_14  and  C_16 
REMARK    6  A    between atoms: C_18  and  C_19 
ROOT
HETATM    1  N   UNK N   1      28.987  24.334  -3.825  0.00  0.00    -0.254 N 
HETATM    2  N   UNK N   1      27.703  24.636  -3.760  0.00  0.00    -0.275 N 
ATOM      3  HN  UNK N   1      26.928  23.990  -3.622  1.00  0.00     0.189 HD
HETATM    4  N   UNK N   1      28.846  26.521  -4.082  0.00  0.00    -0.332 N 
ATOM      5  HN  UNK N   1      29.079  27.504  -4.229  1.00  0.00     0.168 HD
HETATM    6  C   UNK N   1      29.688  25.469  -4.010  0.00  0.00     0.205 A 
HETATM    7  C   UNK N   1      27.626  25.971  -3.915  0.00  0.00     0.190 A 
ENDROOT
BRANCH   1   8
HETATM    8  C   UNK N   1      29.542  23.001  -3.595  0.00  0.00     0.276 C 
HETATM    9  O   UNK N   1      30.070  22.445  -4.784  0.00  0.00    -0.352 OA
HETATM   10  C   UNK N   1      31.253  21.780  -4.388  0.00  0.00     0.179 C 
HETATM   11  C   UNK N   1      31.218  21.664  -2.884  0.00  0.00     0.182 C 
HETATM   12  C   UNK N   1      30.641  22.991  -2.560  0.00  0.00     0.200 C 
BRANCH  10  13
HETATM   13  C   UNK N   1      31.343  20.404  -5.023  0.00  0.00     0.198 C 
BRANCH  13  14
HETATM   14  O   UNK N   1      31.931  19.511  -4.128  0.00  0.00    -0.398 OA
HETATM   15  H   UNK N   1      31.957  18.556  -4.302  0.00  0.00     0.209 HD
ENDBRANCH  13  14
ENDBRANCH  10  13
BRANCH  11  16
HETATM   16  O   UNK N   1      32.495  21.508  -2.344  0.00  0.00    -0.390 OA
HETATM   17  H   UNK N   1      32.872  21.429  -1.455  0.00  0.00     0.210 HD
ENDBRANCH  11  16
BRANCH  12  18
HETATM   18  O   UNK N   1      30.113  23.000  -1.269  0.00  0.00    -0.388 OA
HETATM   19  H   UNK N   1      29.424  22.402  -0.940  0.00  0.00     0.210 HD
ENDBRANCH  12  18
ENDBRANCH   1   8
BRANCH   7  20
HETATM   20  C   UNK N   1      26.376  26.743  -3.844  0.00  0.00     0.284 C 
HETATM   21  O   UNK N   1      25.596  26.733  -4.782  0.00  0.00    -0.265 OA
HETATM   22  N   UNK N   1      26.072  27.439  -2.730  0.00  0.00    -0.363 N 
HETATM   23  H   UNK N   1      25.205  27.900  -2.657  0.00  0.00     0.159 HD
HETATM   24  H   UNK N   1      26.718  27.487  -1.989  0.00  0.00     0.159 HD
ENDBRANCH   7  20
TORSDOF 6
ENDMDL
