MODEL 1
REMARK VINA RESULT:      -6.6      0.000      0.000
REMARK  5 active torsions:
REMARK  status: ('A' for Active; 'I' for Inactive)
REMARK    1  A    between atoms: N_3  and  C_11 
REMARK    2  A    between atoms: N_4  and  C_12 
REMARK    3  A    between atoms: C_5  and  C_6 
REMARK    4  A    between atoms: C_6  and  C_9 
REMARK    5  A    between atoms: C_9  and  C_10 
ROOT
HETATM    1  O   UNK N   1      29.655  18.015   9.255  0.00  0.00    -0.270 OA
HETATM    2  O   UNK N   1      28.622  17.680   4.764  0.00  0.00    -0.270 OA
HETATM    3  N   UNK N   1      30.775  17.365   7.381  0.00  0.00    -0.214 N 
HETATM    4  N   UNK N   1      30.471  17.273   6.036  0.00  0.00    -0.214 N 
HETATM    5  C   UNK N   1      28.512  18.093   7.132  0.00  0.00     0.174 A 
HETATM    6  C   UNK N   1      29.684  17.817   8.049  0.00  0.00     0.257 A 
HETATM    7  C   UNK N   1      29.190  17.690   5.844  0.00  0.00     0.257 A 
ENDROOT
BRANCH   3   8
HETATM    8  C   UNK N   1      32.049  17.127   8.034  0.00  0.00     0.060 A 
HETATM    9  C   UNK N   1      33.078  18.086   7.943  0.00  0.00     0.031 A 
HETATM   10  C   UNK N   1      34.322  17.878   8.543  0.00  0.00     0.002 A 
HETATM   11  C   UNK N   1      34.569  16.694   9.237  0.00  0.00     0.000 A 
HETATM   12  C   UNK N   1      33.578  15.715   9.311  0.00  0.00     0.002 A 
HETATM   13  C   UNK N   1      32.336  15.927   8.703  0.00  0.00     0.031 A 
ENDBRANCH   3   8
BRANCH   4  14
HETATM   14  C   UNK N   1      31.277  16.704   4.973  0.00  0.00     0.060 A 
HETATM   15  C   UNK N   1      32.088  17.498   4.150  0.00  0.00     0.031 A 
HETATM   16  C   UNK N   1      32.902  16.929   3.166  0.00  0.00     0.002 A 
HETATM   17  C   UNK N   1      32.940  15.544   3.006  0.00  0.00     0.000 A 
HETATM   18  C   UNK N   1      32.167  14.730   3.833  0.00  0.00     0.002 A 
HETATM   19  C   UNK N   1      31.349  15.306   4.809  0.00  0.00     0.031 A 
ENDBRANCH   4  14
BRANCH   5  20
HETATM   20  C   UNK N   1      28.124  19.574   7.056  0.00  0.00     0.024 C 
BRANCH  20  21
HETATM   21  C   UNK N   1      26.857  19.849   6.255  0.00  0.00     0.001 C 
BRANCH  21  22
HETATM   22  C   UNK N   1      27.055  20.935   5.219  0.00  0.00    -0.005 C 
HETATM   23  C   UNK N   1      26.607  20.405   3.872  0.00  0.00     0.005 C 
ENDBRANCH  21  22
ENDBRANCH  20  21
ENDBRANCH   5  20
TORSDOF 5
ENDMDL
MODEL 2
REMARK VINA RESULT:      -6.5      8.599     10.372
REMARK  5 active torsions:
REMARK  status: ('A' for Active; 'I' for Inactive)
REMARK    1  A    between atoms: N_3  and  C_11 
REMARK    2  A    between atoms: N_4  and  C_12 
REMARK    3  A    between atoms: C_5  and  C_6 
REMARK    4  A    between atoms: C_6  and  C_9 
REMARK    5  A    between atoms: C_9  and  C_10 
ROOT
HETATM    1  O   UNK N   1      21.364  18.512   6.752  0.00  0.00    -0.270 OA
HETATM    2  O   UNK N   1      22.471  14.133   5.778  0.00  0.00    -0.270 OA
HETATM    3  N   UNK N   1      21.859  17.352   4.855  0.00  0.00    -0.214 N 
HETATM    4  N   UNK N   1      22.181  16.041   4.561  0.00  0.00    -0.214 N 
HETATM    5  C   UNK N   1      21.854  16.156   6.925  0.00  0.00     0.174 A 
HETATM    6  C   UNK N   1      21.675  17.470   6.195  0.00  0.00     0.257 A 
HETATM    7  C   UNK N   1      22.179  15.317   5.713  0.00  0.00     0.257 A 
ENDROOT
BRANCH   3   8
HETATM    8  C   UNK N   1      21.643  18.454   3.936  0.00  0.00     0.060 A 
HETATM    9  C   UNK N   1      20.404  18.589   3.276  0.00  0.00     0.031 A 
HETATM   10  C   UNK N   1      20.172  19.626   2.370  0.00  0.00     0.002 A 
HETATM   11  C   UNK N   1      21.182  20.546   2.093  0.00  0.00     0.000 A 
HETATM   12  C   UNK N   1      22.428  20.413   2.709  0.00  0.00     0.002 A 
HETATM   13  C   UNK N   1      22.656  19.369   3.611  0.00  0.00     0.031 A 
ENDBRANCH   3   8
BRANCH   4  14
HETATM   14  C   UNK N   1      22.602  15.487   3.289  0.00  0.00     0.060 A 
HETATM   15  C   UNK N   1      23.954  15.297   2.971  0.00  0.00     0.031 A 
HETATM   16  C   UNK N   1      24.341  14.709   1.762  0.00  0.00     0.002 A 
HETATM   17  C   UNK N   1      23.374  14.273   0.857  0.00  0.00     0.000 A 
HETATM   18  C   UNK N   1      22.022  14.420   1.163  0.00  0.00     0.002 A 
HETATM   19  C   UNK N   1      21.642  15.016   2.369  0.00  0.00     0.031 A 
ENDBRANCH   4  14
BRANCH   5  20
HETATM   20  C   UNK N   1      20.567  15.631   7.573  0.00  0.00     0.024 C 
BRANCH  20  21
HETATM   21  C   UNK N   1      20.699  15.314   9.058  0.00  0.00     0.001 C 
BRANCH  21  22
HETATM   22  C   UNK N   1      21.521  14.068   9.309  0.00  0.00    -0.005 C 
HETATM   23  C   UNK N   1      20.769  13.181  10.280  0.00  0.00     0.005 C 
ENDBRANCH  21  22
ENDBRANCH  20  21
ENDBRANCH   5  20
TORSDOF 5
ENDMDL
MODEL 3
REMARK VINA RESULT:      -6.4      8.656     10.817
REMARK  5 active torsions:
REMARK  status: ('A' for Active; 'I' for Inactive)
REMARK    1  A    between atoms: N_3  and  C_11 
REMARK    2  A    between atoms: N_4  and  C_12 
REMARK    3  A    between atoms: C_5  and  C_6 
REMARK    4  A    between atoms: C_6  and  C_9 
REMARK    5  A    between atoms: C_9  and  C_10 
ROOT
HETATM    1  O   UNK N   1      19.981  14.443   5.643  0.00  0.00    -0.270 OA
HETATM    2  O   UNK N   1      21.087  18.701   7.056  0.00  0.00    -0.270 OA
HETATM    3  N   UNK N   1      21.080  16.216   4.729  0.00  0.00    -0.214 N 
HETATM    4  N   UNK N   1      21.420  17.487   5.154  0.00  0.00    -0.214 N 
HETATM    5  C   UNK N   1      20.247  16.448   6.959  0.00  0.00     0.174 A 
HETATM    6  C   UNK N   1      20.398  15.589   5.721  0.00  0.00     0.257 A 
HETATM    7  C   UNK N   1      20.974  17.660   6.427  0.00  0.00     0.257 A 
ENDROOT
BRANCH   3   8
HETATM    8  C   UNK N   1      21.435  15.557   3.487  0.00  0.00     0.060 A 
HETATM    9  C   UNK N   1      20.552  15.602   2.388  0.00  0.00     0.031 A 
HETATM   10  C   UNK N   1      20.854  14.960   1.186  0.00  0.00     0.002 A 
HETATM   11  C   UNK N   1      22.044  14.245   1.059  0.00  0.00     0.000 A 
HETATM   12  C   UNK N   1      22.918  14.158   2.144  0.00  0.00     0.002 A 
HETATM   13  C   UNK N   1      22.607  14.798   3.348  0.00  0.00     0.031 A 
ENDBRANCH   3   8
BRANCH   4  14
HETATM   14  C   UNK N   1      22.021  18.557   4.382  0.00  0.00     0.060 A 
HETATM   15  C   UNK N   1      23.410  18.739   4.319  0.00  0.00     0.031 A 
HETATM   16  C   UNK N   1      23.977  19.741   3.526  0.00  0.00     0.002 A 
HETATM   17  C   UNK N   1      23.160  20.566   2.754  0.00  0.00     0.000 A 
HETATM   18  C   UNK N   1      21.778  20.386   2.773  0.00  0.00     0.002 A 
HETATM   19  C   UNK N   1      21.217  19.388   3.575  0.00  0.00     0.031 A 
ENDBRANCH   4  14
BRANCH   5  20
HETATM   20  C   UNK N   1      20.997  15.905   8.181  0.00  0.00     0.024 C 
BRANCH  20  21
HETATM   21  C   UNK N   1      20.157  15.004   9.079  0.00  0.00     0.001 C 
BRANCH  21  22
HETATM   22  C   UNK N   1      20.985  13.927   9.748  0.00  0.00    -0.005 C 
HETATM   23  C   UNK N   1      21.363  12.893   8.708  0.00  0.00     0.005 C 
ENDBRANCH  21  22
ENDBRANCH  20  21
ENDBRANCH   5  20
TORSDOF 5
ENDMDL
MODEL 4
REMARK VINA RESULT:      -6.4     11.678     15.140
REMARK  5 active torsions:
REMARK  status: ('A' for Active; 'I' for Inactive)
REMARK    1  A    between atoms: N_3  and  C_11 
REMARK    2  A    between atoms: N_4  and  C_12 
REMARK    3  A    between atoms: C_5  and  C_6 
REMARK    4  A    between atoms: C_6  and  C_9 
REMARK    5  A    between atoms: C_9  and  C_10 
ROOT
HETATM    1  O   UNK N   1      26.348  25.846  -8.326  0.00  0.00    -0.270 OA
HETATM    2  O   UNK N   1      29.111  26.699  -4.722  0.00  0.00    -0.270 OA
HETATM    3  N   UNK N   1      27.337  24.580  -6.710  0.00  0.00    -0.214 N 
HETATM    4  N   UNK N   1      28.156  24.835  -5.627  0.00  0.00    -0.214 N 
HETATM    5  C   UNK N   1      27.707  26.942  -6.661  0.00  0.00     0.174 A 
HETATM    6  C   UNK N   1      27.064  25.752  -7.339  0.00  0.00     0.257 A 
HETATM    7  C   UNK N   1      28.385  26.174  -5.552  0.00  0.00     0.257 A 
ENDROOT
BRANCH   3   8
HETATM    8  C   UNK N   1      26.750  23.318  -7.118  0.00  0.00     0.060 A 
HETATM    9  C   UNK N   1      27.397  22.520  -8.085  0.00  0.00     0.031 A 
HETATM   10  C   UNK N   1      26.847  21.310  -8.515  0.00  0.00     0.002 A 
HETATM   11  C   UNK N   1      25.628  20.877  -7.995  0.00  0.00     0.000 A 
HETATM   12  C   UNK N   1      24.953  21.667  -7.064  0.00  0.00     0.002 A 
HETATM   13  C   UNK N   1      25.505  22.881  -6.642  0.00  0.00     0.031 A 
ENDBRANCH   3   8
BRANCH   4  14
HETATM   14  C   UNK N   1      28.814  23.878  -4.758  0.00  0.00     0.060 A 
HETATM   15  C   UNK N   1      29.834  23.033  -5.220  0.00  0.00     0.031 A 
HETATM   16  C   UNK N   1      30.497  22.155  -4.356  0.00  0.00     0.002 A 
HETATM   17  C   UNK N   1      30.169  22.128  -3.001  0.00  0.00     0.000 A 
HETATM   18  C   UNK N   1      29.181  22.981  -2.511  0.00  0.00     0.002 A 
HETATM   19  C   UNK N   1      28.516  23.850  -3.380  0.00  0.00     0.031 A 
ENDBRANCH   4  14
BRANCH   5  20
HETATM   20  C   UNK N   1      26.699  27.923  -6.052  0.00  0.00     0.024 C 
BRANCH  20  21
HETATM   21  C   UNK N   1      25.620  27.264  -5.200  0.00  0.00     0.001 C 
BRANCH  21  22
HETATM   22  C   UNK N   1      25.612  27.785  -3.778  0.00  0.00    -0.005 C 
HETATM   23  C   UNK N   1      26.295  29.137  -3.755  0.00  0.00     0.005 C 
ENDBRANCH  21  22
ENDBRANCH  20  21
ENDBRANCH   5  20
TORSDOF 5
ENDMDL
MODEL 5
REMARK VINA RESULT:      -6.3     11.410     14.307
REMARK  5 active torsions:
REMARK  status: ('A' for Active; 'I' for Inactive)
REMARK    1  A    between atoms: N_3  and  C_11 
REMARK    2  A    between atoms: N_4  and  C_12 
REMARK    3  A    between atoms: C_5  and  C_6 
REMARK    4  A    between atoms: C_6  and  C_9 
REMARK    5  A    between atoms: C_9  and  C_10 
ROOT
HETATM    1  O   UNK N   1      26.362  25.856  -3.062  0.00  0.00    -0.270 OA
HETATM    2  O   UNK N   1      25.378  25.064  -7.507  0.00  0.00    -0.270 OA
HETATM    3  N   UNK N   1      27.310  24.637  -4.737  0.00  0.00    -0.214 N 
HETATM    4  N   UNK N   1      27.023  24.406  -6.069  0.00  0.00    -0.214 N 
HETATM    5  C   UNK N   1      25.329  25.876  -5.242  0.00  0.00     0.174 A 
HETATM    6  C   UNK N   1      26.364  25.460  -4.218  0.00  0.00     0.257 A 
HETATM    7  C   UNK N   1      25.904  25.103  -6.405  0.00  0.00     0.257 A 
ENDROOT
BRANCH   3   8
HETATM    8  C   UNK N   1      28.459  24.188  -3.973  0.00  0.00     0.060 A 
HETATM    9  C   UNK N   1      29.753  24.623  -4.324  0.00  0.00     0.031 A 
HETATM   10  C   UNK N   1      30.881  24.192  -3.623  0.00  0.00     0.002 A 
HETATM   11  C   UNK N   1      30.740  23.303  -2.558  0.00  0.00     0.000 A 
HETATM   12  C   UNK N   1      29.473  22.831  -2.214  0.00  0.00     0.002 A 
HETATM   13  C   UNK N   1      28.347  23.261  -2.925  0.00  0.00     0.031 A 
ENDBRANCH   3   8
BRANCH   4  14
HETATM   14  C   UNK N   1      27.672  23.481  -6.977  0.00  0.00     0.060 A 
HETATM   15  C   UNK N   1      27.234  22.157  -7.128  0.00  0.00     0.031 A 
HETATM   16  C   UNK N   1      27.836  21.294  -8.050  0.00  0.00     0.002 A 
HETATM   17  C   UNK N   1      28.873  21.752  -8.861  0.00  0.00     0.000 A 
HETATM   18  C   UNK N   1      29.305  23.073  -8.753  0.00  0.00     0.002 A 
HETATM   19  C   UNK N   1      28.706  23.928  -7.825  0.00  0.00     0.031 A 
ENDBRANCH   4  14
BRANCH   5  20
HETATM   20  C   UNK N   1      25.352  27.373  -5.569  0.00  0.00     0.024 C 
BRANCH  20  21
HETATM   21  C   UNK N   1      26.737  27.920  -5.897  0.00  0.00     0.001 C 
BRANCH  21  22
HETATM   22  C   UNK N   1      27.020  29.230  -5.191  0.00  0.00    -0.005 C 
HETATM   23  C   UNK N   1      26.250  29.252  -3.887  0.00  0.00     0.005 C 
ENDBRANCH  21  22
ENDBRANCH  20  21
ENDBRANCH   5  20
TORSDOF 5
ENDMDL
MODEL 6
REMARK VINA RESULT:      -6.2      2.891      5.287
REMARK  5 active torsions:
REMARK  status: ('A' for Active; 'I' for Inactive)
REMARK    1  A    between atoms: N_3  and  C_11 
REMARK    2  A    between atoms: N_4  and  C_12 
REMARK    3  A    between atoms: C_5  and  C_6 
REMARK    4  A    between atoms: C_6  and  C_9 
REMARK    5  A    between atoms: C_9  and  C_10 
ROOT
HETATM    1  O   UNK N   1      25.855  16.280   5.456  0.00  0.00    -0.270 OA
HETATM    2  O   UNK N   1      29.834  14.000   4.896  0.00  0.00    -0.270 OA
HETATM    3  N   UNK N   1      28.055  16.864   5.363  0.00  0.00    -0.214 N 
HETATM    4  N   UNK N   1      29.245  16.184   5.186  0.00  0.00    -0.214 N 
HETATM    5  C   UNK N   1      27.502  14.551   5.112  0.00  0.00     0.174 A 
HETATM    6  C   UNK N   1      27.032  15.971   5.340  0.00  0.00     0.257 A 
HETATM    7  C   UNK N   1      28.978  14.860   5.028  0.00  0.00     0.257 A 
ENDROOT
BRANCH   3   8
HETATM    8  C   UNK N   1      27.841  18.295   5.468  0.00  0.00     0.060 A 
HETATM    9  C   UNK N   1      27.836  18.916   6.734  0.00  0.00     0.031 A 
HETATM   10  C   UNK N   1      27.613  20.287   6.870  0.00  0.00     0.002 A 
HETATM   11  C   UNK N   1      27.375  21.069   5.740  0.00  0.00     0.000 A 
HETATM   12  C   UNK N   1      27.341  20.470   4.480  0.00  0.00     0.002 A 
HETATM   13  C   UNK N   1      27.560  19.095   4.350  0.00  0.00     0.031 A 
ENDBRANCH   3   8
BRANCH   4  14
HETATM   14  C   UNK N   1      30.595  16.705   5.284  0.00  0.00     0.060 A 
HETATM   15  C   UNK N   1      31.284  16.761   6.504  0.00  0.00     0.031 A 
HETATM   16  C   UNK N   1      32.605  17.213   6.572  0.00  0.00     0.002 A 
HETATM   17  C   UNK N   1      33.274  17.592   5.409  0.00  0.00     0.000 A 
HETATM   18  C   UNK N   1      32.623  17.515   4.179  0.00  0.00     0.002 A 
HETATM   19  C   UNK N   1      31.300  17.070   4.119  0.00  0.00     0.031 A 
ENDBRANCH   4  14
BRANCH   5  20
HETATM   20  C   UNK N   1      27.034  13.953   3.781  0.00  0.00     0.024 C 
BRANCH  20  21
HETATM   21  C   UNK N   1      27.375  14.800   2.561  0.00  0.00     0.001 C 
BRANCH  21  22
HETATM   22  C   UNK N   1      26.143  15.210   1.782  0.00  0.00    -0.005 C 
HETATM   23  C   UNK N   1      24.928  14.585   2.437  0.00  0.00     0.005 C 
ENDBRANCH  21  22
ENDBRANCH  20  21
ENDBRANCH   5  20
TORSDOF 5
ENDMDL
MODEL 7
REMARK VINA RESULT:      -6.2      8.703     11.258
REMARK  5 active torsions:
REMARK  status: ('A' for Active; 'I' for Inactive)
REMARK    1  A    between atoms: N_3  and  C_11 
REMARK    2  A    between atoms: N_4  and  C_12 
REMARK    3  A    between atoms: C_5  and  C_6 
REMARK    4  A    between atoms: C_6  and  C_9 
REMARK    5  A    between atoms: C_9  and  C_10 
ROOT
HETATM    1  O   UNK N   1      33.383  10.731  15.066  0.00  0.00    -0.270 OA
HETATM    2  O   UNK N   1      36.234  14.275  14.252  0.00  0.00    -0.270 OA
HETATM    3  N   UNK N   1      34.781  11.326  13.369  0.00  0.00    -0.214 N 
HETATM    4  N   UNK N   1      35.642  12.380  13.128  0.00  0.00    -0.214 N 
HETATM    5  C   UNK N   1      34.655  12.771  15.269  0.00  0.00     0.174 A 
HETATM    6  C   UNK N   1      34.185  11.511  14.575  0.00  0.00     0.257 A 
HETATM    7  C   UNK N   1      35.611  13.227  14.193  0.00  0.00     0.257 A 
ENDROOT
BRANCH   3   8
HETATM    8  C   UNK N   1      34.565  10.138  12.565  0.00  0.00     0.060 A 
HETATM    9  C   UNK N   1      33.581  10.141  11.554  0.00  0.00     0.031 A 
HETATM   10  C   UNK N   1      33.334   9.007  10.777  0.00  0.00     0.002 A 
HETATM   11  C   UNK N   1      34.059   7.838  11.003  0.00  0.00     0.000 A 
HETATM   12  C   UNK N   1      35.013   7.801  12.020  0.00  0.00     0.002 A 
HETATM   13  C   UNK N   1      35.252   8.938  12.800  0.00  0.00     0.031 A 
ENDBRANCH   3   8
BRANCH   4  14
HETATM   14  C   UNK N   1      36.376  12.676  11.913  0.00  0.00     0.060 A 
HETATM   15  C   UNK N   1      37.670  12.187  11.689  0.00  0.00     0.031 A 
HETATM   16  C   UNK N   1      38.343  12.435  10.488  0.00  0.00     0.002 A 
HETATM   17  C   UNK N   1      37.717  13.158   9.474  0.00  0.00     0.000 A 
HETATM   18  C   UNK N   1      36.418  13.628   9.659  0.00  0.00     0.002 A 
HETATM   19  C   UNK N   1      35.754  13.384  10.864  0.00  0.00     0.031 A 
ENDBRANCH   4  14
BRANCH   5  20
HETATM   20  C   UNK N   1      35.437  12.508  16.561  0.00  0.00     0.024 C 
BRANCH  20  21
HETATM   21  C   UNK N   1      35.130  13.488  17.688  0.00  0.00     0.001 C 
BRANCH  21  22
HETATM   22  C   UNK N   1      35.201  12.835  19.053  0.00  0.00    -0.005 C 
HETATM   23  C   UNK N   1      35.434  11.349  18.866  0.00  0.00     0.005 C 
ENDBRANCH  21  22
ENDBRANCH  20  21
ENDBRANCH   5  20
TORSDOF 5
ENDMDL
MODEL 8
REMARK VINA RESULT:      -6.0     11.409     14.223
REMARK  5 active torsions:
REMARK  status: ('A' for Active; 'I' for Inactive)
REMARK    1  A    between atoms: N_3  and  C_11 
REMARK    2  A    between atoms: N_4  and  C_12 
REMARK    3  A    between atoms: C_5  and  C_6 
REMARK    4  A    between atoms: C_6  and  C_9 
REMARK    5  A    between atoms: C_9  and  C_10 
ROOT
HETATM    1  O   UNK N   1      27.613  28.615  -4.060  0.00  0.00    -0.270 OA
HETATM    2  O   UNK N   1      25.998  24.300  -3.714  0.00  0.00    -0.270 OA
HETATM    3  N   UNK N   1      28.530  26.532  -4.156  0.00  0.00    -0.214 N 
HETATM    4  N   UNK N   1      28.047  25.240  -4.062  0.00  0.00    -0.214 N 
HETATM    5  C   UNK N   1      26.169  26.698  -3.814  0.00  0.00     0.174 A 
HETATM    6  C   UNK N   1      27.496  27.400  -4.008  0.00  0.00     0.257 A 
HETATM    7  C   UNK N   1      26.700  25.285  -3.877  0.00  0.00     0.257 A 
ENDROOT
BRANCH   3   8
HETATM    8  C   UNK N   1      29.881  26.969  -4.453  0.00  0.00     0.060 A 
HETATM    9  C   UNK N   1      30.717  27.430  -3.416  0.00  0.00     0.031 A 
HETATM   10  C   UNK N   1      32.015  27.878  -3.672  0.00  0.00     0.002 A 
HETATM   11  C   UNK N   1      32.502  27.887  -4.979  0.00  0.00     0.000 A 
HETATM   12  C   UNK N   1      31.680  27.467  -6.026  0.00  0.00     0.002 A 
HETATM   13  C   UNK N   1      30.379  27.026  -5.764  0.00  0.00     0.031 A 
ENDBRANCH   3   8
BRANCH   4  14
HETATM   14  C   UNK N   1      28.803  24.004  -4.015  0.00  0.00     0.060 A 
HETATM   15  C   UNK N   1      29.044  23.236  -5.163  0.00  0.00     0.031 A 
HETATM   16  C   UNK N   1      29.823  22.075  -5.110  0.00  0.00     0.002 A 
HETATM   17  C   UNK N   1      30.401  21.676  -3.906  0.00  0.00     0.000 A 
HETATM   18  C   UNK N   1      30.204  22.440  -2.757  0.00  0.00     0.002 A 
HETATM   19  C   UNK N   1      29.418  23.594  -2.814  0.00  0.00     0.031 A 
ENDBRANCH   4  14
BRANCH   5  20
HETATM   20  C   UNK N   1      25.181  26.918  -4.965  0.00  0.00     0.024 C 
BRANCH  20  21
HETATM   21  C   UNK N   1      25.841  27.210  -6.308  0.00  0.00     0.001 C 
BRANCH  21  22
HETATM   22  C   UNK N   1      25.787  26.023  -7.246  0.00  0.00    -0.005 C 
HETATM   23  C   UNK N   1      27.204  25.611  -7.586  0.00  0.00     0.005 C 
ENDBRANCH  21  22
ENDBRANCH  20  21
ENDBRANCH   5  20
TORSDOF 5
ENDMDL
MODEL 9
REMARK VINA RESULT:      -6.0     10.621     14.114
REMARK  5 active torsions:
REMARK  status: ('A' for Active; 'I' for Inactive)
REMARK    1  A    between atoms: N_3  and  C_11 
REMARK    2  A    between atoms: N_4  and  C_12 
REMARK    3  A    between atoms: C_5  and  C_6 
REMARK    4  A    between atoms: C_6  and  C_9 
REMARK    5  A    between atoms: C_9  and  C_10 
ROOT
HETATM    1  O   UNK N   1      30.905  20.647  -5.472  0.00  0.00    -0.270 OA
HETATM    2  O   UNK N   1      30.389  23.486  -1.864  0.00  0.00    -0.270 OA
HETATM    3  N   UNK N   1      29.759  22.576  -5.083  0.00  0.00    -0.214 N 
HETATM    4  N   UNK N   1      29.611  23.432  -4.008  0.00  0.00    -0.214 N 
HETATM    5  C   UNK N   1      31.074  21.680  -3.298  0.00  0.00     0.174 A 
HETATM    6  C   UNK N   1      30.576  21.554  -4.722  0.00  0.00     0.257 A 
HETATM    7  C   UNK N   1      30.354  22.965  -2.968  0.00  0.00     0.257 A 
ENDROOT
BRANCH   3   8
HETATM    8  C   UNK N   1      29.239  22.724  -6.429  0.00  0.00     0.060 A 
HETATM    9  C   UNK N   1      30.002  23.391  -7.410  0.00  0.00     0.031 A 
HETATM   10  C   UNK N   1      29.521  23.569  -8.709  0.00  0.00     0.002 A 
HETATM   11  C   UNK N   1      28.256  23.093  -9.053  0.00  0.00     0.000 A 
HETATM   12  C   UNK N   1      27.469  22.461  -8.090  0.00  0.00     0.002 A 
HETATM   13  C   UNK N   1      27.954  22.292  -6.789  0.00  0.00     0.031 A 
ENDBRANCH   3   8
BRANCH   4  14
HETATM   14  C   UNK N   1      28.722  24.571  -3.886  0.00  0.00     0.060 A 
HETATM   15  C   UNK N   1      29.154  25.881  -4.139  0.00  0.00     0.031 A 
HETATM   16  C   UNK N   1      28.271  26.963  -4.072  0.00  0.00     0.002 A 
HETATM   17  C   UNK N   1      26.925  26.749  -3.777  0.00  0.00     0.000 A 
HETATM   18  C   UNK N   1      26.463  25.452  -3.554  0.00  0.00     0.002 A 
HETATM   19  C   UNK N   1      27.353  24.376  -3.614  0.00  0.00     0.031 A 
ENDBRANCH   4  14
BRANCH   5  20
HETATM   20  C   UNK N   1      32.586  21.906  -3.192  0.00  0.00     0.024 C 
BRANCH  20  21
HETATM   21  C   UNK N   1      33.381  20.656  -2.834  0.00  0.00     0.001 C 
BRANCH  21  22
HETATM   22  C   UNK N   1      34.267  20.193  -3.972  0.00  0.00    -0.005 C 
HETATM   23  C   UNK N   1      34.048  18.709  -4.181  0.00  0.00     0.005 C 
ENDBRANCH  21  22
ENDBRANCH  20  21
ENDBRANCH   5  20
TORSDOF 5
ENDMDL
