REMARK  5 active torsions:
REMARK  status: ('A' for Active; 'I' for Inactive)
REMARK    1  A    between atoms: N_3  and  C_11 
REMARK    2  A    between atoms: N_4  and  C_12 
REMARK    3  A    between atoms: C_5  and  C_6 
REMARK    4  A    between atoms: C_6  and  C_9 
REMARK    5  A    between atoms: C_9  and  C_10 
ROOT
HETATM    1  O   UNK N   1       3.974   2.291   0.514  0.00  0.00    -0.270 OA
HETATM    2  O   UNK N   1       0.297  -0.497   0.275  0.00  0.00    -0.270 OA
HETATM    3  N   UNK N   1       3.655   0.057   0.203  0.00  0.00    -0.214 N 
HETATM    4  N   UNK N   1       2.556  -0.777   0.122  0.00  0.00    -0.214 N 
HETATM    5  C   UNK N   1       1.719   1.434   0.472  0.00  0.00     0.174 A 
HETATM    6  C   UNK N   1       3.228   1.328   0.415  0.00  0.00     0.257 A 
HETATM    7  C   UNK N   1       1.426  -0.032   0.259  0.00  0.00     0.257 A 
ENDROOT
BRANCH   3   8
HETATM    8  C   UNK N   1       5.054  -0.276   0.012  0.00  0.00     0.060 A 
HETATM    9  C   UNK N   1       6.057   0.585   0.503  0.00  0.00     0.031 A 
HETATM   10  C   UNK N   1       7.412   0.304   0.317  0.00  0.00     0.002 A 
HETATM   11  C   UNK N   1       7.795  -0.842  -0.379  0.00  0.00     0.000 A 
HETATM   12  C   UNK N   1       6.820  -1.691  -0.904  0.00  0.00     0.002 A 
HETATM   13  C   UNK N   1       5.464  -1.401  -0.720  0.00  0.00     0.031 A 
ENDBRANCH   3   8
BRANCH   4  14
HETATM   14  C   UNK N   1       2.535  -2.225   0.048  0.00  0.00     0.060 A 
HETATM   15  C   UNK N   1       3.628  -3.006   0.450  0.00  0.00     0.031 A 
HETATM   16  C   UNK N   1       3.571  -4.403   0.425  0.00  0.00     0.002 A 
HETATM   17  C   UNK N   1       2.402  -5.047   0.022  0.00  0.00     0.000 A 
HETATM   18  C   UNK N   1       1.290  -4.294  -0.352  0.00  0.00     0.002 A 
HETATM   19  C   UNK N   1       1.356  -2.898  -0.333  0.00  0.00     0.031 A 
ENDBRANCH   4  14
BRANCH   5  20
HETATM   20  C   UNK N   1       1.114   2.243  -0.681  0.00  0.00     0.024 C 
BRANCH  20  21
HETATM   21  C   UNK N   1       1.757   3.609  -0.891  0.00  0.00     0.001 C 
BRANCH  21  22
HETATM   22  C   UNK N   1       1.530   4.538   0.283  0.00  0.00    -0.005 C 
HETATM   23  C   UNK N   1       2.530   5.673   0.201  0.00  0.00     0.005 C 
ENDBRANCH  21  22
ENDBRANCH  20  21
ENDBRANCH   5  20
TORSDOF 5
