REMARK  6 active torsions:
REMARK  status: ('A' for Active; 'I' for Inactive)
REMARK    1  A    between atoms: N_2  and  C_9 
REMARK    2  A    between atoms: N_3  and  C_4 
REMARK    3  A    between atoms: N_3  and  C_11 
REMARK       I    between atoms: N_3  and  C_12 
REMARK    4  A    between atoms: C_9  and  C_10 
REMARK    5  A    between atoms: C_10  and  C_13 
REMARK    6  A    between atoms: C_12  and  C_14 
ROOT
HETATM    1  N   UNK N   1       4.021  -0.174  -0.333  0.00  0.00    -0.412 N 
HETATM    2  C   UNK N   1       2.583   1.928   1.099  0.00  0.00     0.096 C 
HETATM    3  C   UNK N   1       3.741   1.211   1.807  0.00  0.00     0.045 C 
HETATM    4  C   UNK N   1       1.886   0.969   0.152  0.00  0.00     0.045 C 
HETATM    5  C   UNK N   1       4.640   0.343   0.901  0.00  0.00     0.119 C 
HETATM    6  C   UNK N   1       2.884   0.552  -0.909  0.00  0.00     0.119 C 
ENDROOT
BRANCH   2   7
HETATM    7  N   UNK N   1       2.787   3.268   0.498  0.00  0.00    -0.313 N 
HETATM    8  C   UNK N   1       1.638   3.985   0.206  0.00  0.00     0.224 C 
HETATM    9  O   UNK N   1       0.541   3.525   0.497  0.00  0.00    -0.273 OA
BRANCH   7  10
HETATM   10  C   UNK N   1       4.112   3.804   0.216  0.00  0.00     0.037 A 
HETATM   11  C   UNK N   1       4.333   5.190   0.083  0.00  0.00     0.030 A 
HETATM   12  C   UNK N   1       5.604   5.704  -0.191  0.00  0.00     0.002 A 
HETATM   13  C   UNK N   1       6.686   4.839  -0.347  0.00  0.00     0.000 A 
HETATM   14  C   UNK N   1       6.495   3.465  -0.222  0.00  0.00     0.002 A 
HETATM   15  C   UNK N   1       5.223   2.962   0.059  0.00  0.00     0.030 A 
ENDBRANCH   7  10
BRANCH   8  16
HETATM   16  C   UNK N   1       1.655   5.297  -0.530  0.00  0.00     0.099 C 
HETATM   17  C   UNK N   1       1.039   6.401   0.307  0.00  0.00     0.014 C 
ENDBRANCH   8  16
ENDBRANCH   2   7
BRANCH   1  18
HETATM   18  C   UNK N   1       3.843  -1.622  -0.334  0.00  0.00     0.121 C 
BRANCH  18  19
HETATM   19  C   UNK N   1       2.784  -2.091   0.653  0.00  0.00     0.058 C 
BRANCH  19  20
HETATM   20  C   UNK N   1       2.296  -3.436   0.237  0.00  0.00    -0.057 A 
HETATM   21  C   UNK N   1       3.171  -4.531   0.197  0.00  0.00     0.007 A 
HETATM   22  C   UNK N   1       2.707  -5.782  -0.220  0.00  0.00     0.001 A 
HETATM   23  C   UNK N   1       1.369  -5.941  -0.596  0.00  0.00     0.000 A 
HETATM   24  C   UNK N   1       0.495  -4.850  -0.551  0.00  0.00     0.001 A 
HETATM   25  C   UNK N   1       0.959  -3.599  -0.136  0.00  0.00     0.007 A 
ENDBRANCH  19  20
ENDBRANCH  18  19
ENDBRANCH   1  18
TORSDOF 6
