MODEL 1
REMARK VINA RESULT:      -7.0      0.000      0.000
REMARK  6 active torsions:
REMARK  status: ('A' for Active; 'I' for Inactive)
REMARK    1  A    between atoms: N_2  and  C_9 
REMARK    2  A    between atoms: N_3  and  C_4 
REMARK    3  A    between atoms: N_3  and  C_11 
REMARK       I    between atoms: N_3  and  C_12 
REMARK    4  A    between atoms: C_9  and  C_10 
REMARK    5  A    between atoms: C_10  and  C_13 
REMARK    6  A    between atoms: C_12  and  C_14 
ROOT
HETATM    1  N   UNK N   1      36.106  12.916  12.308  0.00  0.00    -0.412 N 
HETATM    2  C   UNK N   1      36.510  15.206  10.539  0.00  0.00     0.096 C 
HETATM    3  C   UNK N   1      37.455  14.002  10.417  0.00  0.00     0.045 C 
HETATM    4  C   UNK N   1      36.061  15.364  11.979  0.00  0.00     0.045 C 
HETATM    5  C   UNK N   1      37.003  12.724  11.154  0.00  0.00     0.119 C 
HETATM    6  C   UNK N   1      35.277  14.125  12.363  0.00  0.00     0.119 C 
ENDROOT
BRANCH   2   7
HETATM    7  N   UNK N   1      35.396  15.385   9.576  0.00  0.00    -0.313 N 
HETATM    8  C   UNK N   1      34.878  16.666   9.477  0.00  0.00     0.224 C 
HETATM    9  O   UNK N   1      35.378  17.578  10.122  0.00  0.00    -0.273 OA
BRANCH   7  10
HETATM   10  C   UNK N   1      34.863  14.283   8.785  0.00  0.00     0.037 A 
HETATM   11  C   UNK N   1      35.359  13.993   7.498  0.00  0.00     0.030 A 
HETATM   12  C   UNK N   1      34.845  12.938   6.738  0.00  0.00     0.002 A 
HETATM   13  C   UNK N   1      33.813  12.152   7.247  0.00  0.00     0.000 A 
HETATM   14  C   UNK N   1      33.303  12.418   8.516  0.00  0.00     0.002 A 
HETATM   15  C   UNK N   1      33.829  13.469   9.270  0.00  0.00     0.030 A 
ENDBRANCH   7  10
BRANCH   8  16
HETATM   16  C   UNK N   1      33.661  16.997   8.657  0.00  0.00     0.099 C 
HETATM   17  C   UNK N   1      33.857  18.287   7.884  0.00  0.00     0.014 C 
ENDBRANCH   8  16
ENDBRANCH   2   7
BRANCH   1  18
HETATM   18  C   UNK N   1      36.721  12.578  13.587  0.00  0.00     0.121 C 
BRANCH  18  19
HETATM   19  C   UNK N   1      35.708  12.444  14.716  0.00  0.00     0.058 C 
BRANCH  19  20
HETATM   20  C   UNK N   1      36.009  13.463  15.760  0.00  0.00    -0.057 A 
HETATM   21  C   UNK N   1      35.317  13.460  16.980  0.00  0.00     0.007 A 
HETATM   22  C   UNK N   1      35.590  14.437  17.941  0.00  0.00     0.001 A 
HETATM   23  C   UNK N   1      36.554  15.418  17.686  0.00  0.00     0.000 A 
HETATM   24  C   UNK N   1      37.248  15.419  16.471  0.00  0.00     0.001 A 
HETATM   25  C   UNK N   1      36.974  14.443  15.509  0.00  0.00     0.007 A 
ENDBRANCH  19  20
ENDBRANCH  18  19
ENDBRANCH   1  18
TORSDOF 6
ENDMDL
MODEL 2
REMARK VINA RESULT:      -6.8     12.977     15.209
REMARK  6 active torsions:
REMARK  status: ('A' for Active; 'I' for Inactive)
REMARK    1  A    between atoms: N_2  and  C_9 
REMARK    2  A    between atoms: N_3  and  C_4 
REMARK    3  A    between atoms: N_3  and  C_11 
REMARK       I    between atoms: N_3  and  C_12 
REMARK    4  A    between atoms: C_9  and  C_10 
REMARK    5  A    between atoms: C_10  and  C_13 
REMARK    6  A    between atoms: C_12  and  C_14 
ROOT
HETATM    1  N   UNK N   1      21.110  15.167   7.333  0.00  0.00    -0.412 N 
HETATM    2  C   UNK N   1      21.858  17.461   5.685  0.00  0.00     0.096 C 
HETATM    3  C   UNK N   1      22.911  16.381   5.970  0.00  0.00     0.045 C 
HETATM    4  C   UNK N   1      20.915  17.585   6.868  0.00  0.00     0.045 C 
HETATM    5  C   UNK N   1      22.372  15.068   6.576  0.00  0.00     0.119 C 
HETATM    6  C   UNK N   1      20.188  16.265   7.025  0.00  0.00     0.119 C 
ENDROOT
BRANCH   2   7
HETATM    7  N   UNK N   1      21.142  17.486   4.387  0.00  0.00    -0.313 N 
HETATM    8  C   UNK N   1      20.699  18.728   3.961  0.00  0.00     0.224 C 
HETATM    9  O   UNK N   1      20.955  19.727   4.621  0.00  0.00    -0.273 OA
BRANCH   7  10
HETATM   10  C   UNK N   1      20.904  16.282   3.603  0.00  0.00     0.037 A 
HETATM   11  C   UNK N   1      19.738  15.509   3.776  0.00  0.00     0.030 A 
HETATM   12  C   UNK N   1      19.510  14.351   3.026  0.00  0.00     0.002 A 
HETATM   13  C   UNK N   1      20.453  13.934   2.087  0.00  0.00     0.000 A 
HETATM   14  C   UNK N   1      21.615  14.678   1.897  0.00  0.00     0.002 A 
HETATM   15  C   UNK N   1      21.829  15.837   2.646  0.00  0.00     0.030 A 
ENDBRANCH   7  10
BRANCH   8  16
HETATM   16  C   UNK N   1      19.839  18.917   2.741  0.00  0.00     0.099 C 
HETATM   17  C   UNK N   1      20.619  19.573   1.619  0.00  0.00     0.014 C 
ENDBRANCH   8  16
ENDBRANCH   2   7
BRANCH   1  18
HETATM   18  C   UNK N   1      21.268  14.927   8.763  0.00  0.00     0.121 C 
BRANCH  18  19
HETATM   19  C   UNK N   1      21.028  13.476   9.152  0.00  0.00     0.058 C 
BRANCH  19  20
HETATM   20  C   UNK N   1      22.200  12.983   9.929  0.00  0.00    -0.057 A 
HETATM   21  C   UNK N   1      23.502  13.141   9.433  0.00  0.00     0.007 A 
HETATM   22  C   UNK N   1      24.592  12.651  10.159  0.00  0.00     0.001 A 
HETATM   23  C   UNK N   1      24.382  12.004  11.382  0.00  0.00     0.000 A 
HETATM   24  C   UNK N   1      23.084  11.851  11.879  0.00  0.00     0.001 A 
HETATM   25  C   UNK N   1      21.995  12.339  11.152  0.00  0.00     0.007 A 
ENDBRANCH  19  20
ENDBRANCH  18  19
ENDBRANCH   1  18
TORSDOF 6
ENDMDL
MODEL 3
REMARK VINA RESULT:      -6.6      4.382      9.311
REMARK  6 active torsions:
REMARK  status: ('A' for Active; 'I' for Inactive)
REMARK    1  A    between atoms: N_2  and  C_9 
REMARK    2  A    between atoms: N_3  and  C_4 
REMARK    3  A    between atoms: N_3  and  C_11 
REMARK       I    between atoms: N_3  and  C_12 
REMARK    4  A    between atoms: C_9  and  C_10 
REMARK    5  A    between atoms: C_10  and  C_13 
REMARK    6  A    between atoms: C_12  and  C_14 
ROOT
HETATM    1  N   UNK N   1      30.126  16.725   8.001  0.00  0.00    -0.412 N 
HETATM    2  C   UNK N   1      32.767  17.611   7.119  0.00  0.00     0.096 C 
HETATM    3  C   UNK N   1      32.083  18.361   8.270  0.00  0.00     0.045 C 
HETATM    4  C   UNK N   1      31.722  17.089   6.151  0.00  0.00     0.045 C 
HETATM    5  C   UNK N   1      30.849  17.661   8.880  0.00  0.00     0.119 C 
HETATM    6  C   UNK N   1      30.853  16.094   6.893  0.00  0.00     0.119 C 
ENDROOT
BRANCH   2   7
HETATM    7  N   UNK N   1      33.826  16.612   7.401  0.00  0.00    -0.313 N 
HETATM    8  C   UNK N   1      34.522  16.136   6.301  0.00  0.00     0.224 C 
HETATM    9  O   UNK N   1      34.282  16.585   5.187  0.00  0.00    -0.273 OA
BRANCH   7  10
HETATM   10  C   UNK N   1      34.118  16.142   8.749  0.00  0.00     0.037 A 
HETATM   11  C   UNK N   1      35.030  16.821   9.584  0.00  0.00     0.030 A 
HETATM   12  C   UNK N   1      35.312  16.368  10.876  0.00  0.00     0.002 A 
HETATM   13  C   UNK N   1      34.694  15.217  11.362  0.00  0.00     0.000 A 
HETATM   14  C   UNK N   1      33.790  14.527  10.557  0.00  0.00     0.002 A 
HETATM   15  C   UNK N   1      33.509  14.991   9.270  0.00  0.00     0.030 A 
ENDBRANCH   7  10
BRANCH   8  16
HETATM   16  C   UNK N   1      35.530  15.023   6.387  0.00  0.00     0.099 C 
HETATM   17  C   UNK N   1      34.907  13.692   6.012  0.00  0.00     0.014 C 
ENDBRANCH   8  16
ENDBRANCH   2   7
BRANCH   1  18
HETATM   18  C   UNK N   1      28.792  17.184   7.630  0.00  0.00     0.121 C 
BRANCH  18  19
HETATM   19  C   UNK N   1      28.564  18.657   7.938  0.00  0.00     0.058 C 
BRANCH  19  20
HETATM   20  C   UNK N   1      28.009  19.325   6.727  0.00  0.00    -0.057 A 
HETATM   21  C   UNK N   1      27.269  20.510   6.842  0.00  0.00     0.007 A 
HETATM   22  C   UNK N   1      26.732  21.113   5.701  0.00  0.00     0.001 A 
HETATM   23  C   UNK N   1      26.933  20.533   4.444  0.00  0.00     0.000 A 
HETATM   24  C   UNK N   1      27.676  19.354   4.328  0.00  0.00     0.001 A 
HETATM   25  C   UNK N   1      28.212  18.750   5.469  0.00  0.00     0.007 A 
ENDBRANCH  19  20
ENDBRANCH  18  19
ENDBRANCH   1  18
TORSDOF 6
ENDMDL
MODEL 4
REMARK VINA RESULT:      -6.5     17.568     21.492
REMARK  6 active torsions:
REMARK  status: ('A' for Active; 'I' for Inactive)
REMARK    1  A    between atoms: N_2  and  C_9 
REMARK    2  A    between atoms: N_3  and  C_4 
REMARK    3  A    between atoms: N_3  and  C_11 
REMARK       I    between atoms: N_3  and  C_12 
REMARK    4  A    between atoms: C_9  and  C_10 
REMARK    5  A    between atoms: C_10  and  C_13 
REMARK    6  A    between atoms: C_12  and  C_14 
ROOT
HETATM    1  N   UNK N   1      28.579  24.134  -3.796  0.00  0.00    -0.412 N 
HETATM    2  C   UNK N   1      26.320  24.010  -5.644  0.00  0.00     0.096 C 
HETATM    3  C   UNK N   1      26.039  24.053  -4.136  0.00  0.00     0.045 C 
HETATM    4  C   UNK N   1      27.621  23.276  -5.905  0.00  0.00     0.045 C 
HETATM    5  C   UNK N   1      27.243  24.423  -3.244  0.00  0.00     0.119 C 
HETATM    6  C   UNK N   1      28.740  24.062  -5.252  0.00  0.00     0.119 C 
ENDROOT
BRANCH   2   7
HETATM    7  N   UNK N   1      26.189  25.238  -6.466  0.00  0.00    -0.313 N 
HETATM    8  C   UNK N   1      25.831  25.048  -7.791  0.00  0.00     0.224 C 
HETATM    9  O   UNK N   1      25.591  23.920  -8.202  0.00  0.00    -0.273 OA
BRANCH   7  10
HETATM   10  C   UNK N   1      26.430  26.569  -5.925  0.00  0.00     0.037 A 
HETATM   11  C   UNK N   1      27.634  27.258  -6.176  0.00  0.00     0.030 A 
HETATM   12  C   UNK N   1      27.868  28.534  -5.654  0.00  0.00     0.002 A 
HETATM   13  C   UNK N   1      26.901  29.149  -4.859  0.00  0.00     0.000 A 
HETATM   14  C   UNK N   1      25.703  28.489  -4.595  0.00  0.00     0.002 A 
HETATM   15  C   UNK N   1      25.477  27.218  -5.127  0.00  0.00     0.030 A 
ENDBRANCH   7  10
BRANCH   8  16
HETATM   16  C   UNK N   1      25.788  26.165  -8.797  0.00  0.00     0.099 C 
HETATM   17  C   UNK N   1      25.375  25.655 -10.163  0.00  0.00     0.014 C 
ENDBRANCH   8  16
ENDBRANCH   2   7
BRANCH   1  18
HETATM   18  C   UNK N   1      29.288  23.077  -3.083  0.00  0.00     0.121 C 
BRANCH  18  19
HETATM   19  C   UNK N   1      30.793  23.297  -3.038  0.00  0.00     0.058 C 
BRANCH  19  20
HETATM   20  C   UNK N   1      31.477  22.064  -3.518  0.00  0.00    -0.057 A 
HETATM   21  C   UNK N   1      32.761  21.736  -3.060  0.00  0.00     0.007 A 
HETATM   22  C   UNK N   1      33.403  20.590  -3.538  0.00  0.00     0.001 A 
HETATM   23  C   UNK N   1      32.764  19.770  -4.473  0.00  0.00     0.000 A 
HETATM   24  C   UNK N   1      31.481  20.094  -4.927  0.00  0.00     0.001 A 
HETATM   25  C   UNK N   1      30.840  21.240  -4.450  0.00  0.00     0.007 A 
ENDBRANCH  19  20
ENDBRANCH  18  19
ENDBRANCH   1  18
TORSDOF 6
ENDMDL
MODEL 5
REMARK VINA RESULT:      -6.4      8.929     11.757
REMARK  6 active torsions:
REMARK  status: ('A' for Active; 'I' for Inactive)
REMARK    1  A    between atoms: N_2  and  C_9 
REMARK    2  A    between atoms: N_3  and  C_4 
REMARK    3  A    between atoms: N_3  and  C_11 
REMARK       I    between atoms: N_3  and  C_12 
REMARK    4  A    between atoms: C_9  and  C_10 
REMARK    5  A    between atoms: C_10  and  C_13 
REMARK    6  A    between atoms: C_12  and  C_14 
ROOT
HETATM    1  N   UNK N   1      25.297  15.619   6.565  0.00  0.00    -0.412 N 
HETATM    2  C   UNK N   1      27.149  15.877   4.319  0.00  0.00     0.096 C 
HETATM    3  C   UNK N   1      25.675  16.249   4.108  0.00  0.00     0.045 C 
HETATM    4  C   UNK N   1      27.255  14.753   5.334  0.00  0.00     0.045 C 
HETATM    5  C   UNK N   1      24.831  16.382   5.393  0.00  0.00     0.119 C 
HETATM    6  C   UNK N   1      26.718  15.264   6.655  0.00  0.00     0.119 C 
ENDROOT
BRANCH   2   7
HETATM    7  N   UNK N   1      28.165  16.934   4.538  0.00  0.00    -0.313 N 
HETATM    8  C   UNK N   1      29.479  16.577   4.283  0.00  0.00     0.224 C 
HETATM    9  O   UNK N   1      29.735  15.461   3.849  0.00  0.00    -0.273 OA
BRANCH   7  10
HETATM   10  C   UNK N   1      27.814  18.269   5.004  0.00  0.00     0.037 A 
HETATM   11  C   UNK N   1      27.873  18.611   6.371  0.00  0.00     0.030 A 
HETATM   12  C   UNK N   1      27.533  19.892   6.818  0.00  0.00     0.002 A 
HETATM   13  C   UNK N   1      27.118  20.861   5.906  0.00  0.00     0.000 A 
HETATM   14  C   UNK N   1      27.050  20.549   4.550  0.00  0.00     0.002 A 
HETATM   15  C   UNK N   1      27.399  19.269   4.112  0.00  0.00     0.030 A 
ENDBRANCH   7  10
BRANCH   8  16
HETATM   16  C   UNK N   1      30.646  17.478   4.582  0.00  0.00     0.099 C 
HETATM   17  C   UNK N   1      31.309  17.097   5.892  0.00  0.00     0.014 C 
ENDBRANCH   8  16
ENDBRANCH   2   7
BRANCH   1  18
HETATM   18  C   UNK N   1      24.404  14.530   6.945  0.00  0.00     0.121 C 
BRANCH  18  19
HETATM   19  C   UNK N   1      25.056  13.528   7.887  0.00  0.00     0.058 C 
BRANCH  19  20
HETATM   20  C   UNK N   1      24.069  13.133   8.931  0.00  0.00    -0.057 A 
HETATM   21  C   UNK N   1      22.725  13.518   8.825  0.00  0.00     0.007 A 
HETATM   22  C   UNK N   1      21.815  13.163   9.825  0.00  0.00     0.001 A 
HETATM   23  C   UNK N   1      22.246  12.421  10.931  0.00  0.00     0.000 A 
HETATM   24  C   UNK N   1      23.585  12.032  11.034  0.00  0.00     0.001 A 
HETATM   25  C   UNK N   1      24.496  12.389  10.035  0.00  0.00     0.007 A 
ENDBRANCH  19  20
ENDBRANCH  18  19
ENDBRANCH   1  18
TORSDOF 6
ENDMDL
MODEL 6
REMARK VINA RESULT:      -6.4     17.325     22.086
REMARK  6 active torsions:
REMARK  status: ('A' for Active; 'I' for Inactive)
REMARK    1  A    between atoms: N_2  and  C_9 
REMARK    2  A    between atoms: N_3  and  C_4 
REMARK    3  A    between atoms: N_3  and  C_11 
REMARK       I    between atoms: N_3  and  C_12 
REMARK    4  A    between atoms: C_9  and  C_10 
REMARK    5  A    between atoms: C_10  and  C_13 
REMARK    6  A    between atoms: C_12  and  C_14 
ROOT
HETATM    1  N   UNK N   1      28.836  23.279  -5.935  0.00  0.00    -0.412 N 
HETATM    2  C   UNK N   1      26.181  23.550  -7.126  0.00  0.00     0.096 C 
HETATM    3  C   UNK N   1      26.296  23.407  -5.602  0.00  0.00     0.045 C 
HETATM    4  C   UNK N   1      27.298  22.775  -7.801  0.00  0.00     0.045 C 
HETATM    5  C   UNK N   1      27.717  23.576  -5.022  0.00  0.00     0.119 C 
HETATM    6  C   UNK N   1      28.616  23.394  -7.381  0.00  0.00     0.119 C 
ENDROOT
BRANCH   2   7
HETATM    7  N   UNK N   1      25.966  24.883  -7.739  0.00  0.00    -0.313 N 
HETATM    8  C   UNK N   1      25.481  24.884  -9.037  0.00  0.00     0.224 C 
HETATM    9  O   UNK N   1      25.205  23.824  -9.586  0.00  0.00    -0.273 OA
BRANCH   7  10
HETATM   10  C   UNK N   1      26.256  26.123  -7.033  0.00  0.00     0.037 A 
HETATM   11  C   UNK N   1      25.377  26.639  -6.058  0.00  0.00     0.030 A 
HETATM   12  C   UNK N   1      25.653  27.831  -5.383  0.00  0.00     0.002 A 
HETATM   13  C   UNK N   1      26.816  28.543  -5.674  0.00  0.00     0.000 A 
HETATM   14  C   UNK N   1      27.701  28.057  -6.634  0.00  0.00     0.002 A 
HETATM   15  C   UNK N   1      27.419  26.861  -7.298  0.00  0.00     0.030 A 
ENDBRANCH   7  10
BRANCH   8  16
HETATM   16  C   UNK N   1      25.335  26.136  -9.857  0.00  0.00     0.099 C 
HETATM   17  C   UNK N   1      24.513  25.880 -11.104  0.00  0.00     0.014 C 
ENDBRANCH   8  16
ENDBRANCH   2   7
BRANCH   1  18
HETATM   18  C   UNK N   1      29.596  22.092  -5.558  0.00  0.00     0.121 C 
BRANCH  18  19
HETATM   19  C   UNK N   1      30.058  22.118  -4.109  0.00  0.00     0.058 C 
BRANCH  19  20
HETATM   20  C   UNK N   1      31.357  21.396  -4.001  0.00  0.00    -0.057 A 
HETATM   21  C   UNK N   1      31.720  20.436  -4.956  0.00  0.00     0.007 A 
HETATM   22  C   UNK N   1      32.930  19.747  -4.829  0.00  0.00     0.001 A 
HETATM   23  C   UNK N   1      33.778  20.017  -3.750  0.00  0.00     0.000 A 
HETATM   24  C   UNK N   1      33.418  20.978  -2.801  0.00  0.00     0.001 A 
HETATM   25  C   UNK N   1      32.208  21.666  -2.926  0.00  0.00     0.007 A 
ENDBRANCH  19  20
ENDBRANCH  18  19
ENDBRANCH   1  18
TORSDOF 6
ENDMDL
MODEL 7
REMARK VINA RESULT:      -6.3      7.438     12.073
REMARK  6 active torsions:
REMARK  status: ('A' for Active; 'I' for Inactive)
REMARK    1  A    between atoms: N_2  and  C_9 
REMARK    2  A    between atoms: N_3  and  C_4 
REMARK    3  A    between atoms: N_3  and  C_11 
REMARK       I    between atoms: N_3  and  C_12 
REMARK    4  A    between atoms: C_9  and  C_10 
REMARK    5  A    between atoms: C_10  and  C_13 
REMARK    6  A    between atoms: C_12  and  C_14 
ROOT
HETATM    1  N   UNK N   1      27.986  17.569   4.107  0.00  0.00    -0.412 N 
HETATM    2  C   UNK N   1      29.214  16.552   6.556  0.00  0.00     0.096 C 
HETATM    3  C   UNK N   1      28.678  15.548   5.526  0.00  0.00     0.045 C 
HETATM    4  C   UNK N   1      28.368  17.811   6.535  0.00  0.00     0.045 C 
HETATM    5  C   UNK N   1      28.329  16.136   4.142  0.00  0.00     0.119 C 
HETATM    6  C   UNK N   1      28.503  18.443   5.165  0.00  0.00     0.119 C 
ENDROOT
BRANCH   2   7
HETATM    7  N   UNK N   1      30.665  16.847   6.630  0.00  0.00    -0.313 N 
HETATM    8  C   UNK N   1      31.111  17.411   7.814  0.00  0.00     0.224 C 
HETATM    9  O   UNK N   1      30.329  17.585   8.740  0.00  0.00    -0.273 OA
BRANCH   7  10
HETATM   10  C   UNK N   1      31.575  16.575   5.525  0.00  0.00     0.037 A 
HETATM   11  C   UNK N   1      31.763  17.504   4.480  0.00  0.00     0.030 A 
HETATM   12  C   UNK N   1      32.634  17.241   3.418  0.00  0.00     0.002 A 
HETATM   13  C   UNK N   1      33.332  16.036   3.372  0.00  0.00     0.000 A 
HETATM   14  C   UNK N   1      33.163  15.100   4.390  0.00  0.00     0.002 A 
HETATM   15  C   UNK N   1      32.297  15.375   5.450  0.00  0.00     0.030 A 
ENDBRANCH   7  10
BRANCH   8  16
HETATM   16  C   UNK N   1      32.521  17.900   8.009  0.00  0.00     0.099 C 
HETATM   17  C   UNK N   1      33.334  16.912   8.823  0.00  0.00     0.014 C 
ENDBRANCH   8  16
ENDBRANCH   2   7
BRANCH   1  18
HETATM   18  C   UNK N   1      26.589  17.827   3.776  0.00  0.00     0.121 C 
BRANCH  18  19
HETATM   19  C   UNK N   1      26.180  19.274   4.009  0.00  0.00     0.058 C 
BRANCH  19  20
HETATM   20  C   UNK N   1      24.716  19.408   3.769  0.00  0.00    -0.057 A 
HETATM   21  C   UNK N   1      24.216  20.443   2.966  0.00  0.00     0.007 A 
HETATM   22  C   UNK N   1      22.838  20.573   2.770  0.00  0.00     0.001 A 
HETATM   23  C   UNK N   1      21.958  19.670   3.376  0.00  0.00     0.000 A 
HETATM   24  C   UNK N   1      22.456  18.635   4.173  0.00  0.00     0.001 A 
HETATM   25  C   UNK N   1      23.834  18.505   4.370  0.00  0.00     0.007 A 
ENDBRANCH  19  20
ENDBRANCH  18  19
ENDBRANCH   1  18
TORSDOF 6
ENDMDL
MODEL 8
REMARK VINA RESULT:      -6.2      2.775      4.738
REMARK  6 active torsions:
REMARK  status: ('A' for Active; 'I' for Inactive)
REMARK    1  A    between atoms: N_2  and  C_9 
REMARK    2  A    between atoms: N_3  and  C_4 
REMARK    3  A    between atoms: N_3  and  C_11 
REMARK       I    between atoms: N_3  and  C_12 
REMARK    4  A    between atoms: C_9  and  C_10 
REMARK    5  A    between atoms: C_10  and  C_13 
REMARK    6  A    between atoms: C_12  and  C_14 
ROOT
HETATM    1  N   UNK N   1      34.269  14.952   9.736  0.00  0.00    -0.412 N 
HETATM    2  C   UNK N   1      33.508  14.627   6.933  0.00  0.00     0.096 C 
HETATM    3  C   UNK N   1      32.765  13.810   8.000  0.00  0.00     0.045 C 
HETATM    4  C   UNK N   1      34.947  14.846   7.363  0.00  0.00     0.045 C 
HETATM    5  C   UNK N   1      33.001  14.251   9.460  0.00  0.00     0.119 C 
HETATM    6  C   UNK N   1      34.934  15.663   8.639  0.00  0.00     0.119 C 
ENDROOT
BRANCH   2   7
HETATM    7  N   UNK N   1      32.895  15.851   6.365  0.00  0.00    -0.313 N 
HETATM    8  C   UNK N   1      33.387  16.264   5.137  0.00  0.00     0.224 C 
HETATM    9  O   UNK N   1      34.239  15.596   4.565  0.00  0.00    -0.273 OA
BRANCH   7  10
HETATM   10  C   UNK N   1      31.844  16.590   7.052  0.00  0.00     0.037 A 
HETATM   11  C   UNK N   1      30.482  16.381   6.756  0.00  0.00     0.030 A 
HETATM   12  C   UNK N   1      29.474  17.092   7.414  0.00  0.00     0.002 A 
HETATM   13  C   UNK N   1      29.808  18.040   8.381  0.00  0.00     0.000 A 
HETATM   14  C   UNK N   1      31.146  18.267   8.691  0.00  0.00     0.002 A 
HETATM   15  C   UNK N   1      32.145  17.546   8.034  0.00  0.00     0.030 A 
ENDBRANCH   7  10
BRANCH   8  16
HETATM   16  C   UNK N   1      32.979  17.556   4.483  0.00  0.00     0.099 C 
HETATM   17  C   UNK N   1      32.149  17.300   3.240  0.00  0.00     0.014 C 
ENDBRANCH   8  16
ENDBRANCH   2   7
BRANCH   1  18
HETATM   18  C   UNK N   1      35.188  14.186  10.570  0.00  0.00     0.121 C 
BRANCH  18  19
HETATM   19  C   UNK N   1      35.770  15.002  11.716  0.00  0.00     0.058 C 
BRANCH  19  20
HETATM   20  C   UNK N   1      36.261  14.072  12.772  0.00  0.00    -0.057 A 
HETATM   21  C   UNK N   1      36.349  14.492  14.107  0.00  0.00     0.007 A 
HETATM   22  C   UNK N   1      36.836  13.619  15.084  0.00  0.00     0.001 A 
HETATM   23  C   UNK N   1      37.234  12.326  14.729  0.00  0.00     0.000 A 
HETATM   24  C   UNK N   1      37.142  11.905  13.398  0.00  0.00     0.001 A 
HETATM   25  C   UNK N   1      36.657  12.778  12.421  0.00  0.00     0.007 A 
ENDBRANCH  19  20
ENDBRANCH  18  19
ENDBRANCH   1  18
TORSDOF 6
ENDMDL
MODEL 9
REMARK VINA RESULT:      -6.1      2.226      3.546
REMARK  6 active torsions:
REMARK  status: ('A' for Active; 'I' for Inactive)
REMARK    1  A    between atoms: N_2  and  C_9 
REMARK    2  A    between atoms: N_3  and  C_4 
REMARK    3  A    between atoms: N_3  and  C_11 
REMARK       I    between atoms: N_3  and  C_12 
REMARK    4  A    between atoms: C_9  and  C_10 
REMARK    5  A    between atoms: C_10  and  C_13 
REMARK    6  A    between atoms: C_12  and  C_14 
ROOT
HETATM    1  N   UNK N   1      35.345  10.826  13.916  0.00  0.00    -0.412 N 
HETATM    2  C   UNK N   1      36.670  13.327  13.190  0.00  0.00     0.096 C 
HETATM    3  C   UNK N   1      37.502  12.210  13.835  0.00  0.00     0.045 C 
HETATM    4  C   UNK N   1      35.251  13.287  13.727  0.00  0.00     0.045 C 
HETATM    5  C   UNK N   1      36.819  10.828  13.908  0.00  0.00     0.119 C 
HETATM    6  C   UNK N   1      34.635  11.964  13.321  0.00  0.00     0.119 C 
ENDROOT
BRANCH   2   7
HETATM    7  N   UNK N   1      36.713  13.543  11.724  0.00  0.00    -0.313 N 
HETATM    8  C   UNK N   1      36.196  14.746  11.270  0.00  0.00     0.224 C 
HETATM    9  O   UNK N   1      35.789  15.577  12.073  0.00  0.00    -0.273 OA
BRANCH   7  10
HETATM   10  C   UNK N   1      37.255  12.552  10.804  0.00  0.00     0.037 A 
HETATM   11  C   UNK N   1      38.589  12.617  10.352  0.00  0.00     0.030 A 
HETATM   12  C   UNK N   1      39.108  11.667   9.467  0.00  0.00     0.002 A 
HETATM   13  C   UNK N   1      38.299  10.631   9.005  0.00  0.00     0.000 A 
HETATM   14  C   UNK N   1      36.977  10.544   9.435  0.00  0.00     0.002 A 
HETATM   15  C   UNK N   1      36.470  11.493  10.324  0.00  0.00     0.030 A 
ENDBRANCH   7  10
BRANCH   8  16
HETATM   16  C   UNK N   1      36.034  15.070   9.810  0.00  0.00     0.099 C 
HETATM   17  C   UNK N   1      34.644  14.715   9.322  0.00  0.00     0.014 C 
ENDBRANCH   8  16
ENDBRANCH   2   7
BRANCH   1  18
HETATM   18  C   UNK N   1      34.769  10.383  15.181  0.00  0.00     0.121 C 
BRANCH  18  19
HETATM   19  C   UNK N   1      35.822  10.054  16.230  0.00  0.00     0.058 C 
BRANCH  19  20
HETATM   20  C   UNK N   1      35.657  10.977  17.388  0.00  0.00    -0.057 A 
HETATM   21  C   UNK N   1      35.826  10.512  18.700  0.00  0.00     0.007 A 
HETATM   22  C   UNK N   1      35.644  11.382  19.779  0.00  0.00     0.001 A 
HETATM   23  C   UNK N   1      35.294  12.717  19.549  0.00  0.00     0.000 A 
HETATM   24  C   UNK N   1      35.131  13.182  18.240  0.00  0.00     0.001 A 
HETATM   25  C   UNK N   1      35.311  12.312  17.161  0.00  0.00     0.007 A 
ENDBRANCH  19  20
ENDBRANCH  18  19
ENDBRANCH   1  18
TORSDOF 6
ENDMDL
