MODEL 1
REMARK VINA RESULT:      -5.3      0.000      0.000
REMARK  7 active torsions:
REMARK  status: ('A' for Active; 'I' for Inactive)
REMARK    1  A    between atoms: O_1  and  C_5 
REMARK    2  A    between atoms: O_2  and  C_13 
REMARK    3  A    between atoms: O_3  and  C_14 
REMARK    4  A    between atoms: N_4  and  C_6 
REMARK    5  A    between atoms: N_4  and  C_7 
REMARK    6  A    between atoms: C_5  and  C_6 
REMARK    7  A    between atoms: C_5  and  C_8 
ROOT
HETATM    1  C   UNK N   1      29.436  17.500   6.484  0.00  0.00    -0.023 A 
HETATM    2  C   UNK N   1      30.702  17.375   7.078  0.00  0.00     0.046 A 
HETATM    3  C   UNK N   1      28.324  17.759   7.301  0.00  0.00     0.046 A 
HETATM    4  C   UNK N   1      28.475  17.871   8.687  0.00  0.00     0.069 A 
HETATM    5  C   UNK N   1      30.851  17.476   8.463  0.00  0.00     0.069 A 
HETATM    6  C   UNK N   1      29.738  17.728   9.267  0.00  0.00     0.073 A 
ENDROOT
BRANCH   1   7
HETATM    7  C   UNK N   1      29.279  17.467   4.979  0.00  0.00     0.168 C 
BRANCH   7   8
HETATM    8  O   UNK N   1      30.407  17.988   4.340  0.00  0.00    -0.389 OA
HETATM    9  H   UNK N   1      30.644  18.928   4.348  0.00  0.00     0.210 HD
ENDBRANCH   7   8
BRANCH   7  10
HETATM   10  C   UNK N   1      28.026  18.170   4.467  0.00  0.00     0.150 C 
BRANCH  10  11
HETATM   11  N   UNK N   1      28.328  19.569   4.204  0.00  0.00    -0.415 N 
HETATM   12  H   UNK N   1      29.187  19.929   3.789  0.00  0.00     0.153 HD
BRANCH  11  13
HETATM   13  C   UNK N   1      27.192  20.365   4.635  0.00  0.00     0.068 C 
HETATM   14  C   UNK N   1      25.993  19.464   4.856  0.00  0.00     0.031 C 
HETATM   15  C   UNK N   1      27.538  21.054   5.939  0.00  0.00     0.031 C 
ENDBRANCH  11  13
ENDBRANCH  10  11
ENDBRANCH   7  10
ENDBRANCH   1   7
BRANCH   5  16
HETATM   16  O   UNK N   1      32.067  17.345   9.018  0.00  0.00    -0.361 OA
HETATM   17  H   UNK N   1      32.266  17.784   9.820  0.00  0.00     0.217 HD
ENDBRANCH   5  16
BRANCH   4  18
HETATM   18  O   UNK N   1      27.409  18.130   9.460  0.00  0.00    -0.361 OA
HETATM   19  H   UNK N   1      27.517  18.249  10.383  0.00  0.00     0.217 HD
ENDBRANCH   4  18
TORSDOF 7
ENDMDL
MODEL 2
REMARK VINA RESULT:      -5.3      0.526      2.349
REMARK  7 active torsions:
REMARK  status: ('A' for Active; 'I' for Inactive)
REMARK    1  A    between atoms: O_1  and  C_5 
REMARK    2  A    between atoms: O_2  and  C_13 
REMARK    3  A    between atoms: O_3  and  C_14 
REMARK    4  A    between atoms: N_4  and  C_6 
REMARK    5  A    between atoms: N_4  and  C_7 
REMARK    6  A    between atoms: C_5  and  C_6 
REMARK    7  A    between atoms: C_5  and  C_8 
ROOT
HETATM    1  C   UNK N   1      29.548  17.505   6.504  0.00  0.00    -0.023 A 
HETATM    2  C   UNK N   1      28.414  17.782   7.285  0.00  0.00     0.046 A 
HETATM    3  C   UNK N   1      30.788  17.339   7.141  0.00  0.00     0.046 A 
HETATM    4  C   UNK N   1      30.893  17.465   8.530  0.00  0.00     0.069 A 
HETATM    5  C   UNK N   1      28.522  17.919   8.671  0.00  0.00     0.069 A 
HETATM    6  C   UNK N   1      29.760  17.757   9.294  0.00  0.00     0.073 A 
ENDROOT
BRANCH   1   7
HETATM    7  C   UNK N   1      29.425  17.281   5.012  0.00  0.00     0.168 C 
BRANCH   7   8
HETATM    8  O   UNK N   1      30.452  17.923   4.316  0.00  0.00    -0.389 OA
HETATM    9  H   UNK N   1      30.471  18.016   3.351  0.00  0.00     0.210 HD
ENDBRANCH   7   8
BRANCH   7  10
HETATM   10  C   UNK N   1      28.075  17.685   4.430  0.00  0.00     0.150 C 
BRANCH  10  11
HETATM   11  N   UNK N   1      28.152  19.051   3.932  0.00  0.00    -0.415 N 
HETATM   12  H   UNK N   1      28.889  19.432   3.341  0.00  0.00     0.153 HD
BRANCH  11  13
HETATM   13  C   UNK N   1      26.994  19.777   4.425  0.00  0.00     0.068 C 
HETATM   14  C   UNK N   1      27.438  20.816   5.438  0.00  0.00     0.031 C 
HETATM   15  C   UNK N   1      26.319  20.479   3.265  0.00  0.00     0.031 C 
ENDBRANCH  11  13
ENDBRANCH  10  11
ENDBRANCH   7  10
ENDBRANCH   1   7
BRANCH   5  16
HETATM   16  O   UNK N   1      27.431  18.194   9.404  0.00  0.00    -0.361 OA
HETATM   17  H   UNK N   1      26.824  17.513   9.615  0.00  0.00     0.217 HD
ENDBRANCH   5  16
BRANCH   4  18
HETATM   18  O   UNK N   1      32.081  17.292   9.131  0.00  0.00    -0.361 OA
HETATM   19  H   UNK N   1      32.815  17.816   8.878  0.00  0.00     0.217 HD
ENDBRANCH   4  18
TORSDOF 7
ENDMDL
MODEL 3
REMARK VINA RESULT:      -5.2      5.400      8.296
REMARK  7 active torsions:
REMARK  status: ('A' for Active; 'I' for Inactive)
REMARK    1  A    between atoms: O_1  and  C_5 
REMARK    2  A    between atoms: O_2  and  C_13 
REMARK    3  A    between atoms: O_3  and  C_14 
REMARK    4  A    between atoms: N_4  and  C_6 
REMARK    5  A    between atoms: N_4  and  C_7 
REMARK    6  A    between atoms: C_5  and  C_6 
REMARK    7  A    between atoms: C_5  and  C_8 
ROOT
HETATM    1  C   UNK N   1      22.395  18.772   3.673  0.00  0.00    -0.023 A 
HETATM    2  C   UNK N   1      21.245  17.967   3.735  0.00  0.00     0.046 A 
HETATM    3  C   UNK N   1      22.311  20.030   3.056  0.00  0.00     0.046 A 
HETATM    4  C   UNK N   1      21.106  20.464   2.495  0.00  0.00     0.069 A 
HETATM    5  C   UNK N   1      20.045  18.397   3.165  0.00  0.00     0.069 A 
HETATM    6  C   UNK N   1      19.974  19.646   2.548  0.00  0.00     0.073 A 
ENDROOT
BRANCH   1   7
HETATM    7  C   UNK N   1      23.677  18.345   4.355  0.00  0.00     0.168 C 
BRANCH   7   8
HETATM    8  O   UNK N   1      23.453  18.009   5.692  0.00  0.00    -0.389 OA
HETATM    9  H   UNK N   1      23.365  17.097   6.010  0.00  0.00     0.210 HD
ENDBRANCH   7   8
BRANCH   7  10
HETATM   10  C   UNK N   1      24.803  19.369   4.262  0.00  0.00     0.150 C 
BRANCH  10  11
HETATM   11  N   UNK N   1      25.503  19.438   5.536  0.00  0.00    -0.415 N 
HETATM   12  H   UNK N   1      25.109  19.212   6.449  0.00  0.00     0.153 HD
BRANCH  11  13
HETATM   13  C   UNK N   1      26.861  19.886   5.283  0.00  0.00     0.068 C 
HETATM   14  C   UNK N   1      27.075  20.045   3.790  0.00  0.00     0.031 C 
HETATM   15  C   UNK N   1      27.074  21.226   5.956  0.00  0.00     0.031 C 
ENDBRANCH  11  13
ENDBRANCH  10  11
ENDBRANCH   7  10
ENDBRANCH   1   7
BRANCH   5  16
HETATM   16  O   UNK N   1      18.957  17.611   3.223  0.00  0.00    -0.361 OA
HETATM   17  H   UNK N   1      19.050  16.691   3.371  0.00  0.00     0.217 HD
ENDBRANCH   5  16
BRANCH   4  18
HETATM   18  O   UNK N   1      21.032  21.674   1.917  0.00  0.00    -0.361 OA
HETATM   19  H   UNK N   1      20.624  22.386   2.370  0.00  0.00     0.217 HD
ENDBRANCH   4  18
TORSDOF 7
ENDMDL
MODEL 4
REMARK VINA RESULT:      -5.2      2.334      5.339
REMARK  7 active torsions:
REMARK  status: ('A' for Active; 'I' for Inactive)
REMARK    1  A    between atoms: O_1  and  C_5 
REMARK    2  A    between atoms: O_2  and  C_13 
REMARK    3  A    between atoms: O_3  and  C_14 
REMARK    4  A    between atoms: N_4  and  C_6 
REMARK    5  A    between atoms: N_4  and  C_7 
REMARK    6  A    between atoms: C_5  and  C_6 
REMARK    7  A    between atoms: C_5  and  C_8 
ROOT
HETATM    1  C   UNK N   1      28.245  18.521   7.159  0.00  0.00    -0.023 A 
HETATM    2  C   UNK N   1      27.746  19.833   7.118  0.00  0.00     0.046 A 
HETATM    3  C   UNK N   1      28.590  17.887   5.955  0.00  0.00     0.046 A 
HETATM    4  C   UNK N   1      28.421  18.547   4.733  0.00  0.00     0.069 A 
HETATM    5  C   UNK N   1      27.567  20.488   5.897  0.00  0.00     0.069 A 
HETATM    6  C   UNK N   1      27.907  19.846   4.705  0.00  0.00     0.073 A 
ENDROOT
BRANCH   1   7
HETATM    7  C   UNK N   1      28.513  17.835   8.481  0.00  0.00     0.168 C 
BRANCH   7   8
HETATM    8  O   UNK N   1      27.544  18.167   9.430  0.00  0.00    -0.389 OA
HETATM    9  H   UNK N   1      26.591  18.054   9.289  0.00  0.00     0.210 HD
ENDBRANCH   7   8
BRANCH   7  10
HETATM   10  C   UNK N   1      29.903  18.096   9.049  0.00  0.00     0.150 C 
BRANCH  10  11
HETATM   11  N   UNK N   1      30.524  16.831   9.416  0.00  0.00    -0.415 N 
HETATM   12  H   UNK N   1      30.170  16.170  10.106  0.00  0.00     0.153 HD
BRANCH  11  13
HETATM   13  C   UNK N   1      31.734  16.676   8.628  0.00  0.00     0.068 C 
HETATM   14  C   UNK N   1      31.420  15.911   7.357  0.00  0.00     0.031 C 
HETATM   15  C   UNK N   1      32.264  18.046   8.260  0.00  0.00     0.031 C 
ENDBRANCH  11  13
ENDBRANCH  10  11
ENDBRANCH   7  10
ENDBRANCH   1   7
BRANCH   5  16
HETATM   16  O   UNK N   1      27.079  21.739   5.873  0.00  0.00    -0.361 OA
HETATM   17  H   UNK N   1      26.219  21.901   5.539  0.00  0.00     0.217 HD
ENDBRANCH   5  16
BRANCH   4  18
HETATM   18  O   UNK N   1      28.764  17.938   3.588  0.00  0.00    -0.361 OA
HETATM   19  H   UNK N   1      28.508  18.307   2.765  0.00  0.00     0.217 HD
ENDBRANCH   4  18
TORSDOF 7
ENDMDL
MODEL 5
REMARK VINA RESULT:      -5.2      2.337      5.118
REMARK  7 active torsions:
REMARK  status: ('A' for Active; 'I' for Inactive)
REMARK    1  A    between atoms: O_1  and  C_5 
REMARK    2  A    between atoms: O_2  and  C_13 
REMARK    3  A    between atoms: O_3  and  C_14 
REMARK    4  A    between atoms: N_4  and  C_6 
REMARK    5  A    between atoms: N_4  and  C_7 
REMARK    6  A    between atoms: C_5  and  C_6 
REMARK    7  A    between atoms: C_5  and  C_8 
ROOT
HETATM    1  C   UNK N   1      28.354  18.570   7.169  0.00  0.00    -0.023 A 
HETATM    2  C   UNK N   1      28.644  17.919   5.959  0.00  0.00     0.046 A 
HETATM    3  C   UNK N   1      27.794  19.856   7.132  0.00  0.00     0.046 A 
HETATM    4  C   UNK N   1      27.547  20.486   5.907  0.00  0.00     0.069 A 
HETATM    5  C   UNK N   1      28.408  18.552   4.737  0.00  0.00     0.069 A 
HETATM    6  C   UNK N   1      27.856  19.834   4.711  0.00  0.00     0.073 A 
ENDROOT
BRANCH   1   7
HETATM    7  C   UNK N   1      28.537  17.860   8.494  0.00  0.00     0.168 C 
BRANCH   7   8
HETATM    8  O   UNK N   1      27.530  18.207   9.398  0.00  0.00    -0.389 OA
HETATM    9  H   UNK N   1      27.205  17.616  10.094  0.00  0.00     0.210 HD
ENDBRANCH   7   8
BRANCH   7  10
HETATM   10  C   UNK N   1      29.903  18.077   9.134  0.00  0.00     0.150 C 
BRANCH  10  11
HETATM   11  N   UNK N   1      30.509  16.788   9.432  0.00  0.00    -0.415 N 
HETATM   12  H   UNK N   1      30.144  16.090  10.079  0.00  0.00     0.153 HD
BRANCH  11  13
HETATM   13  C   UNK N   1      31.727  16.669   8.649  0.00  0.00     0.068 C 
HETATM   14  C   UNK N   1      31.436  15.909   7.369  0.00  0.00     0.031 C 
HETATM   15  C   UNK N   1      32.227  18.054   8.297  0.00  0.00     0.031 C 
ENDBRANCH  11  13
ENDBRANCH  10  11
ENDBRANCH   7  10
ENDBRANCH   1   7
BRANCH   5  16
HETATM   16  O   UNK N   1      28.700  17.921   3.587  0.00  0.00    -0.361 OA
HETATM   17  H   UNK N   1      28.446  18.298   2.768  0.00  0.00     0.217 HD
ENDBRANCH   5  16
BRANCH   4  18
HETATM   18  O   UNK N   1      27.000  21.711   5.881  0.00  0.00    -0.361 OA
HETATM   19  H   UNK N   1      26.091  21.814   5.677  0.00  0.00     0.217 HD
ENDBRANCH   4  18
TORSDOF 7
ENDMDL
MODEL 6
REMARK VINA RESULT:      -5.0      1.634      2.323
REMARK  7 active torsions:
REMARK  status: ('A' for Active; 'I' for Inactive)
REMARK    1  A    between atoms: O_1  and  C_5 
REMARK    2  A    between atoms: O_2  and  C_13 
REMARK    3  A    between atoms: O_3  and  C_14 
REMARK    4  A    between atoms: N_4  and  C_6 
REMARK    5  A    between atoms: N_4  and  C_7 
REMARK    6  A    between atoms: C_5  and  C_6 
REMARK    7  A    between atoms: C_5  and  C_8 
ROOT
HETATM    1  C   UNK N   1      31.176  17.112   5.921  0.00  0.00    -0.023 A 
HETATM    2  C   UNK N   1      32.555  17.359   5.823  0.00  0.00     0.046 A 
HETATM    3  C   UNK N   1      30.546  17.256   7.167  0.00  0.00     0.046 A 
HETATM    4  C   UNK N   1      31.286  17.621   8.296  0.00  0.00     0.069 A 
HETATM    5  C   UNK N   1      33.296  17.712   6.953  0.00  0.00     0.069 A 
HETATM    6  C   UNK N   1      32.661  17.846   8.189  0.00  0.00     0.073 A 
ENDROOT
BRANCH   1   7
HETATM    7  C   UNK N   1      30.355  16.804   4.687  0.00  0.00     0.168 C 
BRANCH   7   8
HETATM    8  O   UNK N   1      30.902  17.404   3.550  0.00  0.00    -0.389 OA
HETATM    9  H   UNK N   1      30.527  17.312   2.661  0.00  0.00     0.210 HD
ENDBRANCH   7   8
BRANCH   7  10
HETATM   10  C   UNK N   1      28.882  17.178   4.809  0.00  0.00     0.150 C 
BRANCH  10  11
HETATM   11  N   UNK N   1      28.636  18.423   4.095  0.00  0.00    -0.415 N 
HETATM   12  H   UNK N   1      29.208  18.803   3.341  0.00  0.00     0.153 HD
BRANCH  11  13
HETATM   13  C   UNK N   1      27.436  19.029   4.643  0.00  0.00     0.068 C 
HETATM   14  C   UNK N   1      27.754  19.674   5.977  0.00  0.00     0.031 C 
HETATM   15  C   UNK N   1      26.939  20.095   3.687  0.00  0.00     0.031 C 
ENDBRANCH  11  13
ENDBRANCH  10  11
ENDBRANCH   7  10
ENDBRANCH   1   7
BRANCH   5  16
HETATM   16  O   UNK N   1      34.616  17.935   6.846  0.00  0.00    -0.361 OA
HETATM   17  H   UNK N   1      35.102  18.234   7.589  0.00  0.00     0.217 HD
ENDBRANCH   5  16
BRANCH   4  18
HETATM   18  O   UNK N   1      30.674  17.767   9.482  0.00  0.00    -0.361 OA
HETATM   19  H   UNK N   1      30.358  17.015   9.942  0.00  0.00     0.217 HD
ENDBRANCH   4  18
TORSDOF 7
ENDMDL
MODEL 7
REMARK VINA RESULT:      -5.0      5.462      8.251
REMARK  7 active torsions:
REMARK  status: ('A' for Active; 'I' for Inactive)
REMARK    1  A    between atoms: O_1  and  C_5 
REMARK    2  A    between atoms: O_2  and  C_13 
REMARK    3  A    between atoms: O_3  and  C_14 
REMARK    4  A    between atoms: N_4  and  C_6 
REMARK    5  A    between atoms: N_4  and  C_7 
REMARK    6  A    between atoms: C_5  and  C_6 
REMARK    7  A    between atoms: C_5  and  C_8 
ROOT
HETATM    1  C   UNK N   1      22.298  18.451   3.656  0.00  0.00    -0.023 A 
HETATM    2  C   UNK N   1      22.424  19.828   3.407  0.00  0.00     0.046 A 
HETATM    3  C   UNK N   1      21.190  17.765   3.137  0.00  0.00     0.046 A 
HETATM    4  C   UNK N   1      20.216  18.447   2.399  0.00  0.00     0.069 A 
HETATM    5  C   UNK N   1      21.446  20.511   2.680  0.00  0.00     0.069 A 
HETATM    6  C   UNK N   1      20.345  19.820   2.173  0.00  0.00     0.073 A 
ENDROOT
BRANCH   1   7
HETATM    7  C   UNK N   1      23.391  17.692   4.377  0.00  0.00     0.168 C 
BRANCH   7   8
HETATM    8  O   UNK N   1      23.175  17.681   5.757  0.00  0.00    -0.389 OA
HETATM    9  H   UNK N   1      22.722  16.962   6.225  0.00  0.00     0.210 HD
ENDBRANCH   7   8
BRANCH   7  10
HETATM   10  C   UNK N   1      24.800  18.193   4.079  0.00  0.00     0.150 C 
BRANCH  10  11
HETATM   11  N   UNK N   1      25.355  18.817   5.271  0.00  0.00    -0.415 N 
HETATM   12  H   UNK N   1      25.416  18.392   6.196  0.00  0.00     0.153 HD
BRANCH  11  13
HETATM   13  C   UNK N   1      25.808  20.150   4.915  0.00  0.00     0.068 C 
HETATM   14  C   UNK N   1      27.020  20.516   5.750  0.00  0.00     0.031 C 
HETATM   15  C   UNK N   1      26.196  20.166   3.451  0.00  0.00     0.031 C 
ENDBRANCH  11  13
ENDBRANCH  10  11
ENDBRANCH   7  10
ENDBRANCH   1   7
BRANCH   5  16
HETATM   16  O   UNK N   1      21.575  21.830   2.459  0.00  0.00    -0.361 OA
HETATM   17  H   UNK N   1      20.821  22.346   2.252  0.00  0.00     0.217 HD
ENDBRANCH   5  16
BRANCH   4  18
HETATM   18  O   UNK N   1      19.166  17.781   1.896  0.00  0.00    -0.361 OA
HETATM   19  H   UNK N   1      18.337  17.813   2.333  0.00  0.00     0.217 HD
ENDBRANCH   4  18
TORSDOF 7
ENDMDL
MODEL 8
REMARK VINA RESULT:      -5.0      1.580      3.018
REMARK  7 active torsions:
REMARK  status: ('A' for Active; 'I' for Inactive)
REMARK    1  A    between atoms: O_1  and  C_5 
REMARK    2  A    between atoms: O_2  and  C_13 
REMARK    3  A    between atoms: O_3  and  C_14 
REMARK    4  A    between atoms: N_4  and  C_6 
REMARK    5  A    between atoms: N_4  and  C_7 
REMARK    6  A    between atoms: C_5  and  C_6 
REMARK    7  A    between atoms: C_5  and  C_8 
ROOT
HETATM    1  C   UNK N   1      30.943  17.202   5.804  0.00  0.00    -0.023 A 
HETATM    2  C   UNK N   1      30.432  17.289   7.109  0.00  0.00     0.046 A 
HETATM    3  C   UNK N   1      32.325  17.351   5.604  0.00  0.00     0.046 A 
HETATM    4  C   UNK N   1      33.174  17.601   6.687  0.00  0.00     0.069 A 
HETATM    5  C   UNK N   1      31.279  17.549   8.189  0.00  0.00     0.069 A 
HETATM    6  C   UNK N   1      32.650  17.702   7.978  0.00  0.00     0.073 A 
ENDROOT
BRANCH   1   7
HETATM    7  C   UNK N   1      30.043  16.845   4.641  0.00  0.00     0.168 C 
BRANCH   7   8
HETATM    8  O   UNK N   1      30.619  17.212   3.422  0.00  0.00    -0.389 OA
HETATM    9  H   UNK N   1      30.755  18.132   3.147  0.00  0.00     0.210 HD
ENDBRANCH   7   8
BRANCH   7  10
HETATM   10  C   UNK N   1      28.636  17.424   4.742  0.00  0.00     0.150 C 
BRANCH  10  11
HETATM   11  N   UNK N   1      28.653  18.818   4.321  0.00  0.00    -0.415 N 
HETATM   12  H   UNK N   1      29.405  19.279   3.810  0.00  0.00     0.153 HD
BRANCH  11  13
HETATM   13  C   UNK N   1      27.413  19.437   4.754  0.00  0.00     0.068 C 
HETATM   14  C   UNK N   1      27.702  20.439   5.856  0.00  0.00     0.031 C 
HETATM   15  C   UNK N   1      26.785  20.162   3.582  0.00  0.00     0.031 C 
ENDBRANCH  11  13
ENDBRANCH  10  11
ENDBRANCH   7  10
ENDBRANCH   1   7
BRANCH   5  16
HETATM   16  O   UNK N   1      30.774  17.640   9.430  0.00  0.00    -0.361 OA
HETATM   17  H   UNK N   1      30.768  16.888   9.989  0.00  0.00     0.217 HD
ENDBRANCH   5  16
BRANCH   4  18
HETATM   18  O   UNK N   1      34.495  17.730   6.488  0.00  0.00    -0.361 OA
HETATM   19  H   UNK N   1      34.841  18.527   6.135  0.00  0.00     0.217 HD
ENDBRANCH   4  18
TORSDOF 7
ENDMDL
MODEL 9
REMARK VINA RESULT:      -4.9      5.621      7.995
REMARK  7 active torsions:
REMARK  status: ('A' for Active; 'I' for Inactive)
REMARK    1  A    between atoms: O_1  and  C_5 
REMARK    2  A    between atoms: O_2  and  C_13 
REMARK    3  A    between atoms: O_3  and  C_14 
REMARK    4  A    between atoms: N_4  and  C_6 
REMARK    5  A    between atoms: N_4  and  C_7 
REMARK    6  A    between atoms: C_5  and  C_6 
REMARK    7  A    between atoms: C_5  and  C_8 
ROOT
HETATM    1  C   UNK N   1      23.045  19.960   3.144  0.00  0.00    -0.023 A 
HETATM    2  C   UNK N   1      22.984  18.917   4.083  0.00  0.00     0.046 A 
HETATM    3  C   UNK N   1      24.292  20.529   2.841  0.00  0.00     0.046 A 
HETATM    4  C   UNK N   1      25.452  20.076   3.479  0.00  0.00     0.069 A 
HETATM    5  C   UNK N   1      24.140  18.472   4.728  0.00  0.00     0.069 A 
HETATM    6  C   UNK N   1      25.374  19.049   4.423  0.00  0.00     0.073 A 
ENDROOT
BRANCH   1   7
HETATM    7  C   UNK N   1      21.809  20.395   2.387  0.00  0.00     0.168 C 
BRANCH   7   8
HETATM    8  O   UNK N   1      21.424  21.689   2.744  0.00  0.00    -0.389 OA
HETATM    9  H   UNK N   1      21.700  22.125   3.566  0.00  0.00     0.210 HD
ENDBRANCH   7   8
BRANCH   7  10
HETATM   10  C   UNK N   1      20.624  19.446   2.531  0.00  0.00     0.150 C 
BRANCH  10  11
HETATM   11  N   UNK N   1      20.349  18.815   1.248  0.00  0.00    -0.415 N 
HETATM   12  H   UNK N   1      20.496  19.235   0.331  0.00  0.00     0.153 HD
BRANCH  11  13
HETATM   13  C   UNK N   1      19.827  17.484   1.501  0.00  0.00     0.068 C 
HETATM   14  C   UNK N   1      19.712  16.725   0.193  0.00  0.00     0.031 C 
HETATM   15  C   UNK N   1      20.780  16.744   2.417  0.00  0.00     0.031 C 
ENDBRANCH  11  13
ENDBRANCH  10  11
ENDBRANCH   7  10
ENDBRANCH   1   7
BRANCH   5  16
HETATM   16  O   UNK N   1      24.065  17.481   5.631  0.00  0.00    -0.361 OA
HETATM   17  H   UNK N   1      23.776  17.662   6.503  0.00  0.00     0.217 HD
ENDBRANCH   5  16
BRANCH   4  18
HETATM   18  O   UNK N   1      26.641  20.618   3.174  0.00  0.00    -0.361 OA
HETATM   19  H   UNK N   1      27.418  20.311   3.599  0.00  0.00     0.217 HD
ENDBRANCH   4  18
TORSDOF 7
ENDMDL
