REMARK  4 active torsions:
REMARK  status: ('A' for Active; 'I' for Inactive)
REMARK    1  A    between atoms: O_2  and  C_19 
REMARK    2  A    between atoms: N_4  and  C_9 
REMARK    3  A    between atoms: C_11  and  C_17 
REMARK    4  A    between atoms: C_14  and  C_19 
ROOT
HETATM    1  O   UNK N   1       3.487   3.164   0.000  0.00  0.00    -0.286 OA
HETATM    2  N   UNK N   1       3.557  -0.854  -0.000  0.00  0.00    -0.355 N 
HETATM    3  C   UNK N   1       4.736  -0.155   0.000  0.00  0.00     0.049 A 
HETATM    4  C   UNK N   1       4.734   1.259  -0.000  0.00  0.00     0.042 A 
HETATM    5  C   UNK N   1       5.959  -0.834  -0.000  0.00  0.00     0.043 A 
HETATM    6  C   UNK N   1       7.178  -0.151  -0.000  0.00  0.00    -0.024 A 
HETATM    7  C   UNK N   1       2.366  -0.188   0.000  0.00  0.00     0.113 A 
HETATM    8  C   UNK N   1       3.506   1.944   0.000  0.00  0.00     0.202 A 
HETATM    9  C   UNK N   1       2.302   1.207   0.000  0.00  0.00     0.104 A 
HETATM   10  C   UNK N   1       5.957   1.953   0.000  0.00  0.00     0.018 A 
HETATM   11  C   UNK N   1       7.171   1.253  -0.000  0.00  0.00     0.013 A 
ENDROOT
BRANCH   6  12
HETATM   12  C   UNK N   1       8.440  -0.929  -0.000  0.00  0.00    -0.023 A 
HETATM   13  C   UNK N   1       9.687  -0.292  -0.000  0.00  0.00     0.029 A 
HETATM   14  C   UNK N   1      10.854  -1.064   0.000  0.00  0.00     0.088 A 
HETATM   15  N   UNK N   1      10.779  -2.422   0.000  0.00  0.00    -0.375 N 
HETATM   16  C   UNK N   1       9.581  -3.065  -0.000  0.00  0.00     0.088 A 
ATOM     17  HN  UNK N   1      11.639  -2.970   0.000  1.00  0.00     0.164 HD
HETATM   18  C   UNK N   1       8.396  -2.332  -0.000  0.00  0.00     0.029 A 
ENDBRANCH   6  12
BRANCH   2  19
HETATM   19  C   UNK N   1       3.587  -2.328  -0.000  0.00  0.00     0.124 C 
HETATM   20  C   UNK N   1       2.213  -2.986  -0.000  0.00  0.00     0.027 C 
ENDBRANCH   2  19
BRANCH   9  21
HETATM   21  C   UNK N   1       0.962   1.848   0.000  0.00  0.00     0.181 C 
HETATM   22  O   UNK N   1       0.846   3.063   0.000  0.00  0.00    -0.646 OA
BRANCH  21  23
HETATM   23  O   UNK N   1      -0.148   1.082   0.000  0.00  0.00    -0.772 OA
HETATM   24  H   UNK N   1      -0.995   1.483   0.000  0.00  0.00     0.167 HD
ENDBRANCH  21  23
ENDBRANCH   9  21
TORSDOF 4
