MODEL 1
REMARK VINA RESULT:      -7.2      0.000      0.000
REMARK  4 active torsions:
REMARK  status: ('A' for Active; 'I' for Inactive)
REMARK    1  A    between atoms: O_2  and  C_19 
REMARK    2  A    between atoms: N_4  and  C_9 
REMARK    3  A    between atoms: C_11  and  C_17 
REMARK    4  A    between atoms: C_14  and  C_19 
ROOT
HETATM    1  O   UNK N   1      24.247  21.358   2.449  0.00  0.00    -0.286 OA
HETATM    2  N   UNK N   1      23.934  18.007   4.644  0.00  0.00    -0.355 N 
HETATM    3  C   UNK N   1      25.157  18.606   4.491  0.00  0.00     0.049 A 
HETATM    4  C   UNK N   1      25.290  19.785   3.723  0.00  0.00     0.042 A 
HETATM    5  C   UNK N   1      26.293  18.055   5.094  0.00  0.00     0.043 A 
HETATM    6  C   UNK N   1      27.554  18.641   4.957  0.00  0.00    -0.024 A 
HETATM    7  C   UNK N   1      22.828  18.547   4.054  0.00  0.00     0.113 A 
HETATM    8  C   UNK N   1      24.150  20.341   3.115  0.00  0.00     0.202 A 
HETATM    9  C   UNK N   1      22.898  19.710   3.284  0.00  0.00     0.104 A 
HETATM   10  C   UNK N   1      26.556  20.380   3.580  0.00  0.00     0.018 A 
HETATM   11  C   UNK N   1      27.681  19.813   4.193  0.00  0.00     0.013 A 
ENDROOT
BRANCH   6  12
HETATM   12  C   UNK N   1      28.719  18.009   5.622  0.00  0.00    -0.023 A 
HETATM   13  C   UNK N   1      28.720  17.754   6.999  0.00  0.00     0.029 A 
HETATM   14  C   UNK N   1      29.840  17.156   7.586  0.00  0.00     0.088 A 
HETATM   15  N   UNK N   1      30.919  16.823   6.828  0.00  0.00    -0.375 N 
HETATM   16  C   UNK N   1      30.943  17.060   5.489  0.00  0.00     0.088 A 
ATOM     17  HN  UNK N   1      31.727  16.388   7.271  1.00  0.00     0.164 HD
HETATM   18  C   UNK N   1      29.847  17.654   4.866  0.00  0.00     0.029 A 
ENDBRANCH   6  12
BRANCH   2  19
HETATM   19  C   UNK N   1      23.823  16.778   5.451  0.00  0.00     0.124 C 
HETATM   20  C   UNK N   1      22.444  16.541   6.053  0.00  0.00     0.027 C 
ENDBRANCH   2  19
BRANCH   9  21
HETATM   21  C   UNK N   1      21.644  20.227   2.679  0.00  0.00     0.181 C 
HETATM   22  O   UNK N   1      20.830  19.470   2.175  0.00  0.00    -0.646 OA
BRANCH  21  23
HETATM   23  O   UNK N   1      21.394  21.552   2.684  0.00  0.00    -0.772 OA
HETATM   24  H   UNK N   1      21.312  22.017   1.874  0.00  0.00     0.167 HD
ENDBRANCH  21  23
ENDBRANCH   9  21
TORSDOF 4
ENDMDL
MODEL 2
REMARK VINA RESULT:      -6.8     10.647     12.767
REMARK  4 active torsions:
REMARK  status: ('A' for Active; 'I' for Inactive)
REMARK    1  A    between atoms: O_2  and  C_19 
REMARK    2  A    between atoms: N_4  and  C_9 
REMARK    3  A    between atoms: C_11  and  C_17 
REMARK    4  A    between atoms: C_14  and  C_19 
ROOT
HETATM    1  O   UNK N   1      32.788  21.321  -2.139  0.00  0.00    -0.286 OA
HETATM    2  N   UNK N   1      30.966  20.990  -5.706  0.00  0.00    -0.355 N 
HETATM    3  C   UNK N   1      30.487  21.879  -4.779  0.00  0.00     0.049 A 
HETATM    4  C   UNK N   1      31.113  22.012  -3.518  0.00  0.00     0.042 A 
HETATM    5  C   UNK N   1      29.369  22.669  -5.070  0.00  0.00     0.043 A 
HETATM    6  C   UNK N   1      28.857  23.584  -4.147  0.00  0.00    -0.024 A 
HETATM    7  C   UNK N   1      32.056  20.222  -5.418  0.00  0.00     0.113 A 
HETATM    8  C   UNK N   1      32.236  21.219  -3.223  0.00  0.00     0.202 A 
HETATM    9  C   UNK N   1      32.715  20.309  -4.190  0.00  0.00     0.104 A 
HETATM   10  C   UNK N   1      30.602  22.931  -2.585  0.00  0.00     0.018 A 
HETATM   11  C   UNK N   1      29.482  23.712  -2.897  0.00  0.00     0.013 A 
ENDROOT
BRANCH   6  12
HETATM   12  C   UNK N   1      27.669  24.392  -4.517  0.00  0.00    -0.023 A 
HETATM   13  C   UNK N   1      26.816  23.997  -5.554  0.00  0.00     0.029 A 
HETATM   14  C   UNK N   1      25.706  24.788  -5.871  0.00  0.00     0.088 A 
HETATM   15  N   UNK N   1      25.457  25.932  -5.177  0.00  0.00    -0.375 N 
HETATM   16  C   UNK N   1      26.271  26.337  -4.166  0.00  0.00     0.088 A 
ATOM     17  HN  UNK N   1      24.644  26.497  -5.421  1.00  0.00     0.164 HD
HETATM   18  C   UNK N   1      27.386  25.577  -3.820  0.00  0.00     0.029 A 
ENDBRANCH   6  12
BRANCH   2  19
HETATM   19  C   UNK N   1      30.294  20.872  -7.013  0.00  0.00     0.124 C 
HETATM   20  C   UNK N   1      29.892  19.451  -7.388  0.00  0.00     0.027 C 
ENDBRANCH   2  19
BRANCH   9  21
HETATM   21  C   UNK N   1      33.894  19.434  -3.963  0.00  0.00     0.181 C 
HETATM   22  O   UNK N   1      35.029  19.868  -4.071  0.00  0.00    -0.646 OA
BRANCH  21  23
HETATM   23  O   UNK N   1      33.714  18.139  -3.631  0.00  0.00    -0.772 OA
HETATM   24  H   UNK N   1      34.456  17.585  -3.484  0.00  0.00     0.167 HD
ENDBRANCH  21  23
ENDBRANCH   9  21
TORSDOF 4
ENDMDL
MODEL 3
REMARK VINA RESULT:      -6.7      5.308      8.815
REMARK  4 active torsions:
REMARK  status: ('A' for Active; 'I' for Inactive)
REMARK    1  A    between atoms: O_2  and  C_19 
REMARK    2  A    between atoms: N_4  and  C_9 
REMARK    3  A    between atoms: C_11  and  C_17 
REMARK    4  A    between atoms: C_14  and  C_19 
ROOT
HETATM    1  O   UNK N   1      31.463  17.781   9.045  0.00  0.00    -0.286 OA
HETATM    2  N   UNK N   1      32.547  17.242   5.213  0.00  0.00    -0.355 N 
HETATM    3  C   UNK N   1      31.233  17.096   5.573  0.00  0.00     0.049 A 
HETATM    4  C   UNK N   1      30.830  17.281   6.915  0.00  0.00     0.042 A 
HETATM    5  C   UNK N   1      30.271  16.761   4.613  0.00  0.00     0.043 A 
HETATM    6  C   UNK N   1      28.924  16.604   4.948  0.00  0.00    -0.024 A 
HETATM    7  C   UNK N   1      33.482  17.569   6.151  0.00  0.00     0.113 A 
HETATM    8  C   UNK N   1      31.794  17.618   7.882  0.00  0.00     0.202 A 
HETATM    9  C   UNK N   1      33.143  17.764   7.492  0.00  0.00     0.104 A 
HETATM   10  C   UNK N   1      29.475  17.125   7.259  0.00  0.00     0.018 A 
HETATM   11  C   UNK N   1      28.528  16.789   6.282  0.00  0.00     0.013 A 
ENDROOT
BRANCH   6  12
HETATM   12  C   UNK N   1      27.954  16.249   3.885  0.00  0.00    -0.023 A 
HETATM   13  C   UNK N   1      26.671  16.808   3.854  0.00  0.00     0.029 A 
HETATM   14  C   UNK N   1      25.786  16.445   2.832  0.00  0.00     0.088 A 
HETATM   15  N   UNK N   1      26.168  15.556   1.877  0.00  0.00    -0.375 N 
HETATM   16  C   UNK N   1      27.408  14.998   1.884  0.00  0.00     0.088 A 
ATOM     17  HN  UNK N   1      25.511  15.302   1.139  1.00  0.00     0.164 HD
HETATM   18  C   UNK N   1      28.318  15.334   2.884  0.00  0.00     0.029 A 
ENDBRANCH   6  12
BRANCH   2  19
HETATM   19  C   UNK N   1      32.941  17.043   3.806  0.00  0.00     0.124 C 
HETATM   20  C   UNK N   1      33.537  15.674   3.506  0.00  0.00     0.027 C 
ENDBRANCH   2  19
BRANCH   9  21
HETATM   21  C   UNK N   1      34.226  18.118   8.445  0.00  0.00     0.181 C 
HETATM   22  O   UNK N   1      34.993  19.038   8.212  0.00  0.00    -0.646 OA
BRANCH  21  23
HETATM   23  O   UNK N   1      34.369  17.416   9.588  0.00  0.00    -0.772 OA
HETATM   24  H   UNK N   1      34.729  16.551   9.566  0.00  0.00     0.167 HD
ENDBRANCH  21  23
ENDBRANCH   9  21
TORSDOF 4
ENDMDL
MODEL 4
REMARK VINA RESULT:      -6.6      5.570      9.001
REMARK  4 active torsions:
REMARK  status: ('A' for Active; 'I' for Inactive)
REMARK    1  A    between atoms: O_2  and  C_19 
REMARK    2  A    between atoms: N_4  and  C_9 
REMARK    3  A    between atoms: C_11  and  C_17 
REMARK    4  A    between atoms: C_14  and  C_19 
ROOT
HETATM    1  O   UNK N   1      34.540  16.914   6.236  0.00  0.00    -0.286 OA
HETATM    2  N   UNK N   1      31.175  17.138   8.422  0.00  0.00    -0.355 N 
HETATM    3  C   UNK N   1      31.106  17.241   7.057  0.00  0.00     0.049 A 
HETATM    4  C   UNK N   1      32.278  17.165   6.269  0.00  0.00     0.042 A 
HETATM    5  C   UNK N   1      29.871  17.423   6.425  0.00  0.00     0.043 A 
HETATM    6  C   UNK N   1      29.767  17.531   5.036  0.00  0.00    -0.024 A 
HETATM    7  C   UNK N   1      32.382  16.961   9.035  0.00  0.00     0.113 A 
HETATM    8  C   UNK N   1      33.520  16.982   6.902  0.00  0.00     0.202 A 
HETATM    9  C   UNK N   1      33.572  16.878   8.309  0.00  0.00     0.104 A 
HETATM   10  C   UNK N   1      32.180  17.273   4.870  0.00  0.00     0.018 A 
HETATM   11  C   UNK N   1      30.933  17.455   4.257  0.00  0.00     0.013 A 
ENDROOT
BRANCH   6  12
HETATM   12  C   UNK N   1      28.429  17.723   4.426  0.00  0.00    -0.023 A 
HETATM   13  C   UNK N   1      27.716  16.648   3.883  0.00  0.00     0.029 A 
HETATM   14  C   UNK N   1      26.456  16.872   3.317  0.00  0.00     0.088 A 
HETATM   15  N   UNK N   1      25.927  18.125   3.296  0.00  0.00    -0.375 N 
HETATM   16  C   UNK N   1      26.598  19.186   3.817  0.00  0.00     0.088 A 
ATOM     17  HN  UNK N   1      25.007  18.272   2.880  1.00  0.00     0.164 HD
HETATM   18  C   UNK N   1      27.855  19.004   4.389  0.00  0.00     0.029 A 
ENDBRANCH   6  12
BRANCH   2  19
HETATM   19  C   UNK N   1      29.939  17.221   9.220  0.00  0.00     0.124 C 
HETATM   20  C   UNK N   1      29.659  18.598   9.807  0.00  0.00     0.027 C 
ENDBRANCH   2  19
BRANCH   9  21
HETATM   21  C   UNK N   1      34.839  16.685   9.059  0.00  0.00     0.181 C 
HETATM   22  O   UNK N   1      35.272  17.554   9.798  0.00  0.00    -0.646 OA
BRANCH  21  23
HETATM   23  O   UNK N   1      35.528  15.532   8.926  0.00  0.00    -0.772 OA
HETATM   24  H   UNK N   1      35.256  14.767   9.394  0.00  0.00     0.167 HD
ENDBRANCH  21  23
ENDBRANCH   9  21
TORSDOF 4
ENDMDL
MODEL 5
REMARK VINA RESULT:      -6.5      7.926     11.369
REMARK  4 active torsions:
REMARK  status: ('A' for Active; 'I' for Inactive)
REMARK    1  A    between atoms: O_2  and  C_19 
REMARK    2  A    between atoms: N_4  and  C_9 
REMARK    3  A    between atoms: C_11  and  C_17 
REMARK    4  A    between atoms: C_14  and  C_19 
ROOT
HETATM    1  O   UNK N   1      35.349  17.040  11.154  0.00  0.00    -0.286 OA
HETATM    2  N   UNK N   1      33.772  13.953   9.121  0.00  0.00    -0.355 N 
HETATM    3  C   UNK N   1      33.703  15.217   8.596  0.00  0.00     0.049 A 
HETATM    4  C   UNK N   1      34.251  16.317   9.295  0.00  0.00     0.042 A 
HETATM    5  C   UNK N   1      33.087  15.435   7.359  0.00  0.00     0.043 A 
HETATM    6  C   UNK N   1      33.000  16.711   6.797  0.00  0.00    -0.024 A 
HETATM    7  C   UNK N   1      34.374  13.745  10.328  0.00  0.00     0.113 A 
HETATM    8  C   UNK N   1      34.871  16.101  10.538  0.00  0.00     0.202 A 
HETATM    9  C   UNK N   1      34.933  14.792  11.063  0.00  0.00     0.104 A 
HETATM   10  C   UNK N   1      34.167  17.605   8.735  0.00  0.00     0.018 A 
HETATM   11  C   UNK N   1      33.546  17.800   7.494  0.00  0.00     0.013 A 
ENDROOT
BRANCH   6  12
HETATM   12  C   UNK N   1      32.334  16.875   5.482  0.00  0.00    -0.023 A 
HETATM   13  C   UNK N   1      33.063  16.832   4.288  0.00  0.00     0.029 A 
HETATM   14  C   UNK N   1      32.395  16.992   3.068  0.00  0.00     0.088 A 
HETATM   15  N   UNK N   1      31.050  17.187   3.042  0.00  0.00    -0.375 N 
HETATM   16  C   UNK N   1      30.319  17.233   4.188  0.00  0.00     0.088 A 
ATOM     17  HN  UNK N   1      30.578  17.302   2.145  1.00  0.00     0.164 HD
HETATM   18  C   UNK N   1      30.946  17.079   5.422  0.00  0.00     0.029 A 
ENDBRANCH   6  12
BRANCH   2  19
HETATM   19  C   UNK N   1      33.192  12.823   8.372  0.00  0.00     0.124 C 
HETATM   20  C   UNK N   1      34.219  11.862   7.788  0.00  0.00     0.027 C 
ENDBRANCH   2  19
BRANCH   9  21
HETATM   21  C   UNK N   1      35.568  14.474  12.367  0.00  0.00     0.181 C 
HETATM   22  O   UNK N   1      34.981  13.811  13.208  0.00  0.00    -0.646 OA
BRANCH  21  23
HETATM   23  O   UNK N   1      36.812  14.920  12.635  0.00  0.00    -0.772 OA
HETATM   24  H   UNK N   1      37.205  15.572  12.087  0.00  0.00     0.167 HD
ENDBRANCH  21  23
ENDBRANCH   9  21
TORSDOF 4
ENDMDL
MODEL 6
REMARK VINA RESULT:      -6.4     13.316     16.432
REMARK  4 active torsions:
REMARK  status: ('A' for Active; 'I' for Inactive)
REMARK    1  A    between atoms: O_2  and  C_19 
REMARK    2  A    between atoms: N_4  and  C_9 
REMARK    3  A    between atoms: C_11  and  C_17 
REMARK    4  A    between atoms: C_14  and  C_19 
ROOT
HETATM    1  O   UNK N   1      34.518  12.563  11.663  0.00  0.00    -0.286 OA
HETATM    2  N   UNK N   1      36.359  14.068  14.902  0.00  0.00    -0.355 N 
HETATM    3  C   UNK N   1      35.695  12.873  14.994  0.00  0.00     0.049 A 
HETATM    4  C   UNK N   1      35.040  12.325  13.866  0.00  0.00     0.042 A 
HETATM    5  C   UNK N   1      35.656  12.178  16.207  0.00  0.00     0.043 A 
HETATM    6  C   UNK N   1      34.988  10.957  16.333  0.00  0.00    -0.024 A 
HETATM    7  C   UNK N   1      36.394  14.743  13.717  0.00  0.00     0.113 A 
HETATM    8  C   UNK N   1      35.077  13.022  12.645  0.00  0.00     0.202 A 
HETATM    9  C   UNK N   1      35.767  14.252  12.570  0.00  0.00     0.104 A 
HETATM   10  C   UNK N   1      34.365  11.098  13.986  0.00  0.00     0.018 A 
HETATM   11  C   UNK N   1      34.339  10.418  15.211  0.00  0.00     0.013 A 
ENDROOT
BRANCH   6  12
HETATM   12  C   UNK N   1      34.983  10.270  17.647  0.00  0.00    -0.023 A 
HETATM   13  C   UNK N   1      34.645   8.916  17.758  0.00  0.00     0.029 A 
HETATM   14  C   UNK N   1      34.653   8.306  19.017  0.00  0.00     0.088 A 
HETATM   15  N   UNK N   1      34.988   9.021  20.125  0.00  0.00    -0.375 N 
HETATM   16  C   UNK N   1      35.321  10.337  20.044  0.00  0.00     0.088 A 
ATOM     17  HN  UNK N   1      34.990   8.561  21.035  1.00  0.00     0.164 HD
HETATM   18  C   UNK N   1      35.324  10.981  18.808  0.00  0.00     0.029 A 
ENDBRANCH   6  12
BRANCH   2  19
HETATM   19  C   UNK N   1      37.033  14.617  16.093  0.00  0.00     0.124 C 
HETATM   20  C   UNK N   1      37.471  16.069  15.956  0.00  0.00     0.027 C 
ENDBRANCH   2  19
BRANCH   9  21
HETATM   21  C   UNK N   1      35.857  15.053  11.323  0.00  0.00     0.181 C 
HETATM   22  O   UNK N   1      36.736  14.844  10.503  0.00  0.00    -0.646 OA
BRANCH  21  23
HETATM   23  O   UNK N   1      34.956  16.029  11.086  0.00  0.00    -0.772 OA
HETATM   24  H   UNK N   1      34.171  15.838  10.611  0.00  0.00     0.167 HD
ENDBRANCH  21  23
ENDBRANCH   9  21
TORSDOF 4
ENDMDL
MODEL 7
REMARK VINA RESULT:      -6.3     11.448     12.370
REMARK  4 active torsions:
REMARK  status: ('A' for Active; 'I' for Inactive)
REMARK    1  A    between atoms: O_2  and  C_19 
REMARK    2  A    between atoms: N_4  and  C_9 
REMARK    3  A    between atoms: C_11  and  C_17 
REMARK    4  A    between atoms: C_14  and  C_19 
ROOT
HETATM    1  O   UNK N   1      24.968  25.428  -5.680  0.00  0.00    -0.286 OA
HETATM    2  N   UNK N   1      28.706  24.860  -4.317  0.00  0.00    -0.355 N 
HETATM    3  C   UNK N   1      28.196  24.017  -5.271  0.00  0.00     0.049 A 
HETATM    4  C   UNK N   1      26.883  24.199  -5.764  0.00  0.00     0.042 A 
HETATM    5  C   UNK N   1      28.971  22.964  -5.768  0.00  0.00     0.043 A 
HETATM    6  C   UNK N   1      28.480  22.088  -6.740  0.00  0.00    -0.024 A 
HETATM    7  C   UNK N   1      27.948  25.886  -3.834  0.00  0.00     0.113 A 
HETATM    8  C   UNK N   1      26.103  25.257  -5.265  0.00  0.00     0.202 A 
HETATM    9  C   UNK N   1      26.645  26.115  -4.283  0.00  0.00     0.104 A 
HETATM   10  C   UNK N   1      26.383  23.321  -6.742  0.00  0.00     0.018 A 
HETATM   11  C   UNK N   1      27.176  22.272  -7.227  0.00  0.00     0.013 A 
ENDROOT
BRANCH   6  12
HETATM   12  C   UNK N   1      29.351  20.991  -7.227  0.00  0.00    -0.023 A 
HETATM   13  C   UNK N   1      28.820  19.888  -7.905  0.00  0.00     0.029 A 
HETATM   14  C   UNK N   1      29.677  18.874  -8.348  0.00  0.00     0.088 A 
HETATM   15  N   UNK N   1      31.016  18.959  -8.122  0.00  0.00    -0.375 N 
HETATM   16  C   UNK N   1      31.557  20.020  -7.465  0.00  0.00     0.088 A 
ATOM     17  HN  UNK N   1      31.627  18.212  -8.451  1.00  0.00     0.164 HD
HETATM   18  C   UNK N   1      30.736  21.050  -7.009  0.00  0.00     0.029 A 
ENDBRANCH   6  12
BRANCH   2  19
HETATM   19  C   UNK N   1      30.078  24.649  -3.820  0.00  0.00     0.124 C 
HETATM   20  C   UNK N   1      30.867  25.930  -3.583  0.00  0.00     0.027 C 
ENDBRANCH   2  19
BRANCH   9  21
HETATM   21  C   UNK N   1      25.892  27.256  -3.702  0.00  0.00     0.181 C 
HETATM   22  O   UNK N   1      25.909  27.474  -2.501  0.00  0.00    -0.646 OA
BRANCH  21  23
HETATM   23  O   UNK N   1      25.177  28.067  -4.507  0.00  0.00    -0.772 OA
HETATM   24  H   UNK N   1      25.445  28.204  -5.395  0.00  0.00     0.167 HD
ENDBRANCH  21  23
ENDBRANCH   9  21
TORSDOF 4
ENDMDL
MODEL 8
REMARK VINA RESULT:      -6.2     11.007     13.272
REMARK  4 active torsions:
REMARK  status: ('A' for Active; 'I' for Inactive)
REMARK    1  A    between atoms: O_2  and  C_19 
REMARK    2  A    between atoms: N_4  and  C_9 
REMARK    3  A    between atoms: C_11  and  C_17 
REMARK    4  A    between atoms: C_14  and  C_19 
ROOT
HETATM    1  O   UNK N   1      27.182  20.920  -9.097  0.00  0.00    -0.286 OA
HETATM    2  N   UNK N   1      29.278  22.007  -5.845  0.00  0.00    -0.355 N 
HETATM    3  C   UNK N   1      28.175  22.732  -6.215  0.00  0.00     0.049 A 
HETATM    4  C   UNK N   1      27.424  22.367  -7.356  0.00  0.00     0.042 A 
HETATM    5  C   UNK N   1      27.779  23.846  -5.467  0.00  0.00     0.043 A 
HETATM    6  C   UNK N   1      26.660  24.606  -5.817  0.00  0.00    -0.024 A 
HETATM    7  C   UNK N   1      29.661  20.922  -6.578  0.00  0.00     0.113 A 
HETATM    8  C   UNK N   1      27.820  21.248  -8.110  0.00  0.00     0.202 A 
HETATM    9  C   UNK N   1      28.958  20.514  -7.714  0.00  0.00     0.104 A 
HETATM   10  C   UNK N   1      26.296  23.127  -7.714  0.00  0.00     0.018 A 
HETATM   11  C   UNK N   1      25.917  24.239  -6.950  0.00  0.00     0.013 A 
ENDROOT
BRANCH   6  12
HETATM   12  C   UNK N   1      26.293  25.774  -4.982  0.00  0.00    -0.023 A 
HETATM   13  C   UNK N   1      25.551  26.839  -5.508  0.00  0.00     0.029 A 
HETATM   14  C   UNK N   1      25.226  27.923  -4.686  0.00  0.00     0.088 A 
HETATM   15  N   UNK N   1      25.625  27.944  -3.386  0.00  0.00    -0.375 N 
HETATM   16  C   UNK N   1      26.346  26.922  -2.851  0.00  0.00     0.088 A 
ATOM     17  HN  UNK N   1      25.379  28.741  -2.800  1.00  0.00     0.164 HD
HETATM   18  C   UNK N   1      26.690  25.825  -3.637  0.00  0.00     0.029 A 
ENDBRANCH   6  12
BRANCH   2  19
HETATM   19  C   UNK N   1      30.045  22.409  -4.652  0.00  0.00     0.124 C 
HETATM   20  C   UNK N   1      30.467  21.252  -3.756  0.00  0.00     0.027 C 
ENDBRANCH   2  19
BRANCH   9  21
HETATM   21  C   UNK N   1      29.447  19.320  -8.451  0.00  0.00     0.181 C 
HETATM   22  O   UNK N   1      29.497  18.226  -7.913  0.00  0.00    -0.646 OA
BRANCH  21  23
HETATM   23  O   UNK N   1      29.843  19.441  -9.734  0.00  0.00    -0.772 OA
HETATM   24  H   UNK N   1      29.663  18.755 -10.347  0.00  0.00     0.167 HD
ENDBRANCH  21  23
ENDBRANCH   9  21
TORSDOF 4
ENDMDL
MODEL 9
REMARK VINA RESULT:      -6.2     14.996     17.341
REMARK  4 active torsions:
REMARK  status: ('A' for Active; 'I' for Inactive)
REMARK    1  A    between atoms: O_2  and  C_19 
REMARK    2  A    between atoms: N_4  and  C_9 
REMARK    3  A    between atoms: C_11  and  C_17 
REMARK    4  A    between atoms: C_14  and  C_19 
ROOT
HETATM    1  O   UNK N   1      36.432  14.695  13.970  0.00  0.00    -0.286 OA
HETATM    2  N   UNK N   1      36.520  10.678  13.990  0.00  0.00    -0.355 N 
HETATM    3  C   UNK N   1      36.125  11.353  15.116  0.00  0.00     0.049 A 
HETATM    4  C   UNK N   1      36.087  12.767  15.130  0.00  0.00     0.042 A 
HETATM    5  C   UNK N   1      35.753  10.651  16.267  0.00  0.00     0.043 A 
HETATM    6  C   UNK N   1      35.346  11.309  17.430  0.00  0.00    -0.024 A 
HETATM    7  C   UNK N   1      36.881  11.367  12.869  0.00  0.00     0.113 A 
HETATM    8  C   UNK N   1      36.459  13.475  13.974  0.00  0.00     0.202 A 
HETATM    9  C   UNK N   1      36.863  12.762  12.825  0.00  0.00     0.104 A 
HETATM   10  C   UNK N   1      35.678  13.436  16.297  0.00  0.00     0.018 A 
HETATM   11  C   UNK N   1      35.310  12.713  17.439  0.00  0.00     0.013 A 
ENDROOT
BRANCH   6  12
HETATM   12  C   UNK N   1      34.965  10.507  18.617  0.00  0.00    -0.023 A 
HETATM   13  C   UNK N   1      35.291  10.926  19.913  0.00  0.00     0.029 A 
HETATM   14  C   UNK N   1      34.912  10.139  21.006  0.00  0.00     0.088 A 
HETATM   15  N   UNK N   1      34.234   8.976  20.812  0.00  0.00    -0.375 N 
HETATM   16  C   UNK N   1      33.905   8.547  19.565  0.00  0.00     0.088 A 
ATOM     17  HN  UNK N   1      33.965   8.414  21.620  1.00  0.00     0.164 HD
HETATM   18  C   UNK N   1      34.264   9.302  18.450  0.00  0.00     0.029 A 
ENDBRANCH   6  12
BRANCH   2  19
HETATM   19  C   UNK N   1      36.550   9.204  14.002  0.00  0.00     0.124 C 
HETATM   20  C   UNK N   1      35.451   8.544  13.178  0.00  0.00     0.027 C 
ENDBRANCH   2  19
BRANCH   9  21
HETATM   21  C   UNK N   1      37.273  13.429  11.562  0.00  0.00     0.181 C 
HETATM   22  O   UNK N   1      37.991  12.861  10.755  0.00  0.00    -0.646 OA
BRANCH  21  23
HETATM   23  O   UNK N   1      36.849  14.682  11.297  0.00  0.00    -0.772 OA
HETATM   24  H   UNK N   1      37.463  15.339  11.034  0.00  0.00     0.167 HD
ENDBRANCH  21  23
ENDBRANCH   9  21
TORSDOF 4
ENDMDL
