MODEL 1
REMARK VINA RESULT:      -5.0      0.000      0.000
REMARK  3 active torsions:
REMARK  status: ('A' for Active; 'I' for Inactive)
REMARK    1  A    between atoms: O_1  and  C_6 
REMARK    2  A    between atoms: C_2  and  C_4 
REMARK    3  A    between atoms: C_3  and  C_5 
ROOT
HETATM    1  C   UNK N   1      35.339  11.627  19.022  0.00  0.00    -0.021 A 
HETATM    2  C   UNK N   1      35.079  11.871  16.592  0.00  0.00    -0.021 A 
HETATM    3  C   UNK N   1      35.231  11.047  17.735  0.00  0.00     0.079 A 
HETATM    4  C   UNK N   1      35.294  13.023  19.147  0.00  0.00     0.010 A 
HETATM    5  C   UNK N   1      35.037  13.262  16.757  0.00  0.00     0.010 A 
HETATM    6  C   UNK N   1      35.143  13.835  18.023  0.00  0.00     0.001 A 
ENDROOT
BRANCH   1   7
HETATM    7  C   UNK N   1      35.501  10.787  20.276  0.00  0.00     0.013 C 
HETATM    8  C   UNK N   1      36.885  10.453  20.807  0.00  0.00     0.015 C 
HETATM    9  C   UNK N   1      34.323  10.214  21.048  0.00  0.00     0.015 C 
ENDBRANCH   1   7
BRANCH   3  10
HETATM   10  O   UNK N   1      35.273   9.712  17.597  0.00  0.00    -0.360 OA
HETATM   11  H   UNK N   1      34.793   9.164  18.186  0.00  0.00     0.217 HD
ENDBRANCH   3  10
BRANCH   2  12
HETATM   12  C   UNK N   1      34.961  11.296  15.191  0.00  0.00     0.013 C 
HETATM   13  C   UNK N   1      36.158  11.294  14.256  0.00  0.00     0.015 C 
HETATM   14  C   UNK N   1      33.665  10.729  14.635  0.00  0.00     0.015 C 
ENDBRANCH   2  12
TORSDOF 3
ENDMDL
MODEL 2
REMARK VINA RESULT:      -5.0      0.115      4.372
REMARK  3 active torsions:
REMARK  status: ('A' for Active; 'I' for Inactive)
REMARK    1  A    between atoms: O_1  and  C_6 
REMARK    2  A    between atoms: C_2  and  C_4 
REMARK    3  A    between atoms: C_3  and  C_5 
ROOT
HETATM    1  C   UNK N   1      35.073  11.770  16.570  0.00  0.00    -0.021 A 
HETATM    2  C   UNK N   1      35.361  11.565  19.000  0.00  0.00    -0.021 A 
HETATM    3  C   UNK N   1      35.248  10.964  17.721  0.00  0.00     0.079 A 
HETATM    4  C   UNK N   1      35.014  13.162  16.714  0.00  0.00     0.010 A 
HETATM    5  C   UNK N   1      35.298  12.961  19.104  0.00  0.00     0.010 A 
HETATM    6  C   UNK N   1      35.126  13.755  17.971  0.00  0.00     0.001 A 
ENDROOT
BRANCH   1   7
HETATM    7  C   UNK N   1      34.950  11.174  15.178  0.00  0.00     0.013 C 
HETATM    8  C   UNK N   1      36.177  11.018  14.296  0.00  0.00     0.015 C 
HETATM    9  C   UNK N   1      33.624  10.734  14.579  0.00  0.00     0.015 C 
ENDBRANCH   1   7
BRANCH   3  10
HETATM   10  O   UNK N   1      35.307   9.628  17.601  0.00  0.00    -0.360 OA
HETATM   11  H   UNK N   1      34.589   9.159  17.224  0.00  0.00     0.217 HD
ENDBRANCH   3  10
BRANCH   2  12
HETATM   12  C   UNK N   1      35.548  10.744  20.264  0.00  0.00     0.013 C 
HETATM   13  C   UNK N   1      36.942  10.419  20.772  0.00  0.00     0.015 C 
HETATM   14  C   UNK N   1      34.385  10.182  21.067  0.00  0.00     0.015 C 
ENDBRANCH   2  12
TORSDOF 3
ENDMDL
MODEL 3
REMARK VINA RESULT:      -4.7     10.501     12.918
REMARK  3 active torsions:
REMARK  status: ('A' for Active; 'I' for Inactive)
REMARK    1  A    between atoms: O_1  and  C_6 
REMARK    2  A    between atoms: C_2  and  C_4 
REMARK    3  A    between atoms: C_3  and  C_5 
ROOT
HETATM    1  C   UNK N   1      32.316  17.218   7.586  0.00  0.00    -0.021 A 
HETATM    2  C   UNK N   1      29.900  17.611   7.384  0.00  0.00    -0.021 A 
HETATM    3  C   UNK N   1      31.096  17.678   8.140  0.00  0.00     0.079 A 
HETATM    4  C   UNK N   1      32.320  16.698   6.285  0.00  0.00     0.010 A 
HETATM    5  C   UNK N   1      29.945  17.085   6.086  0.00  0.00     0.010 A 
HETATM    6  C   UNK N   1      31.143  16.632   5.539  0.00  0.00     0.001 A 
ENDROOT
BRANCH   1   7
HETATM    7  C   UNK N   1      33.624  17.271   8.355  0.00  0.00     0.013 C 
HETATM    8  C   UNK N   1      34.568  18.450   8.189  0.00  0.00     0.015 C 
HETATM    9  C   UNK N   1      34.080  16.166   9.294  0.00  0.00     0.015 C 
ENDBRANCH   1   7
BRANCH   3  10
HETATM   10  O   UNK N   1      31.074  18.180   9.386  0.00  0.00    -0.360 OA
HETATM   11  H   UNK N   1      31.875  18.304   9.856  0.00  0.00     0.217 HD
ENDBRANCH   3  10
BRANCH   2  12
HETATM   12  C   UNK N   1      28.568  18.090   7.934  0.00  0.00     0.013 C 
HETATM   13  C   UNK N   1      27.843  17.289   9.002  0.00  0.00     0.015 C 
HETATM   14  C   UNK N   1      27.875  19.352   7.446  0.00  0.00     0.015 C 
ENDBRANCH   2  12
TORSDOF 3
ENDMDL
MODEL 4
REMARK VINA RESULT:      -4.7     10.519     13.087
REMARK  3 active torsions:
REMARK  status: ('A' for Active; 'I' for Inactive)
REMARK    1  A    between atoms: O_1  and  C_6 
REMARK    2  A    between atoms: C_2  and  C_4 
REMARK    3  A    between atoms: C_3  and  C_5 
ROOT
HETATM    1  C   UNK N   1      29.910  17.604   7.360  0.00  0.00    -0.021 A 
HETATM    2  C   UNK N   1      32.333  17.238   7.525  0.00  0.00    -0.021 A 
HETATM    3  C   UNK N   1      31.113  17.666   8.105  0.00  0.00     0.079 A 
HETATM    4  C   UNK N   1      29.946  17.115   6.047  0.00  0.00     0.010 A 
HETATM    5  C   UNK N   1      32.328  16.754   6.210  0.00  0.00     0.010 A 
HETATM    6  C   UNK N   1      31.146  16.693   5.475  0.00  0.00     0.001 A 
ENDROOT
BRANCH   1   7
HETATM    7  C   UNK N   1      28.578  18.048   7.937  0.00  0.00     0.013 C 
HETATM    8  C   UNK N   1      27.915  19.325   7.450  0.00  0.00     0.015 C 
HETATM    9  C   UNK N   1      27.853  17.283   9.032  0.00  0.00     0.015 C 
ENDBRANCH   1   7
BRANCH   3  10
HETATM   10  O   UNK N   1      31.097  18.132   9.364  0.00  0.00    -0.360 OA
HETATM   11  H   UNK N   1      31.045  19.053   9.523  0.00  0.00     0.217 HD
ENDBRANCH   3  10
BRANCH   2  12
HETATM   12  C   UNK N   1      33.648  17.286   8.282  0.00  0.00     0.013 C 
HETATM   13  C   UNK N   1      34.053  16.143   9.197  0.00  0.00     0.015 C 
HETATM   14  C   UNK N   1      34.608  18.463   8.203  0.00  0.00     0.015 C 
ENDBRANCH   2  12
TORSDOF 3
ENDMDL
MODEL 5
REMARK VINA RESULT:      -4.7      2.269      5.777
REMARK  3 active torsions:
REMARK  status: ('A' for Active; 'I' for Inactive)
REMARK    1  A    between atoms: O_1  and  C_6 
REMARK    2  A    between atoms: C_2  and  C_4 
REMARK    3  A    between atoms: C_3  and  C_5 
ROOT
HETATM    1  C   UNK N   1      35.492  12.490  13.575  0.00  0.00    -0.021 A 
HETATM    2  C   UNK N   1      35.096  11.807  15.901  0.00  0.00    -0.021 A 
HETATM    3  C   UNK N   1      35.774  12.619  14.957  0.00  0.00     0.079 A 
HETATM    4  C   UNK N   1      34.538  11.552  13.159  0.00  0.00     0.010 A 
HETATM    5  C   UNK N   1      34.148  10.882  15.446  0.00  0.00     0.010 A 
HETATM    6  C   UNK N   1      33.870  10.753  14.087  0.00  0.00     0.001 A 
ENDROOT
BRANCH   1   7
HETATM    7  C   UNK N   1      36.189  13.337  12.526  0.00  0.00     0.013 C 
HETATM    8  C   UNK N   1      37.333  12.764  11.708  0.00  0.00     0.015 C 
HETATM    9  C   UNK N   1      35.820  14.786  12.251  0.00  0.00     0.015 C 
ENDBRANCH   1   7
BRANCH   3  10
HETATM   10  O   UNK N   1      36.685  13.513  15.374  0.00  0.00    -0.360 OA
HETATM   11  H   UNK N   1      37.593  13.377  15.189  0.00  0.00     0.217 HD
ENDBRANCH   3  10
BRANCH   2  12
HETATM   12  C   UNK N   1      35.364  11.907  17.392  0.00  0.00     0.013 C 
HETATM   13  C   UNK N   1      35.900  10.711  18.160  0.00  0.00     0.015 C 
HETATM   14  C   UNK N   1      35.094  13.166  18.201  0.00  0.00     0.015 C 
ENDBRANCH   2  12
TORSDOF 3
ENDMDL
MODEL 6
REMARK VINA RESULT:      -4.7      2.302      3.933
REMARK  3 active torsions:
REMARK  status: ('A' for Active; 'I' for Inactive)
REMARK    1  A    between atoms: O_1  and  C_6 
REMARK    2  A    between atoms: C_2  and  C_4 
REMARK    3  A    between atoms: C_3  and  C_5 
ROOT
HETATM    1  C   UNK N   1      35.074  11.924  15.904  0.00  0.00    -0.021 A 
HETATM    2  C   UNK N   1      35.501  12.573  13.574  0.00  0.00    -0.021 A 
HETATM    3  C   UNK N   1      35.766  12.719  14.959  0.00  0.00     0.079 A 
HETATM    4  C   UNK N   1      34.128  10.994  15.451  0.00  0.00     0.010 A 
HETATM    5  C   UNK N   1      34.549  11.632  13.160  0.00  0.00     0.010 A 
HETATM    6  C   UNK N   1      33.867  10.848  14.089  0.00  0.00     0.001 A 
ENDROOT
BRANCH   1   7
HETATM    7  C   UNK N   1      35.325  12.041  17.397  0.00  0.00     0.013 C 
HETATM    8  C   UNK N   1      35.796  10.838  18.197  0.00  0.00     0.015 C 
HETATM    9  C   UNK N   1      35.098  13.326  18.178  0.00  0.00     0.015 C 
ENDBRANCH   1   7
BRANCH   3  10
HETATM   10  O   UNK N   1      36.676  13.615  15.376  0.00  0.00    -0.360 OA
HETATM   11  H   UNK N   1      37.294  13.973  14.769  0.00  0.00     0.217 HD
ENDBRANCH   3  10
BRANCH   2  12
HETATM   12  C   UNK N   1      36.215  13.404  12.523  0.00  0.00     0.013 C 
HETATM   13  C   UNK N   1      37.349  12.805  11.708  0.00  0.00     0.015 C 
HETATM   14  C   UNK N   1      35.874  14.859  12.243  0.00  0.00     0.015 C 
ENDBRANCH   2  12
TORSDOF 3
ENDMDL
MODEL 7
REMARK VINA RESULT:      -4.7     11.292     13.853
REMARK  3 active torsions:
REMARK  status: ('A' for Active; 'I' for Inactive)
REMARK    1  A    between atoms: O_1  and  C_6 
REMARK    2  A    between atoms: C_2  and  C_4 
REMARK    3  A    between atoms: C_3  and  C_5 
ROOT
HETATM    1  C   UNK N   1      30.587  17.178   5.758  0.00  0.00    -0.021 A 
HETATM    2  C   UNK N   1      32.951  17.249   6.418  0.00  0.00    -0.021 A 
HETATM    3  C   UNK N   1      31.586  17.075   6.756  0.00  0.00     0.079 A 
HETATM    4  C   UNK N   1      30.968  17.452   4.437  0.00  0.00     0.010 A 
HETATM    5  C   UNK N   1      33.293  17.521   5.087  0.00  0.00     0.010 A 
HETATM    6  C   UNK N   1      32.311  17.623   4.103  0.00  0.00     0.001 A 
ENDROOT
BRANCH   1   7
HETATM    7  C   UNK N   1      29.112  16.997   6.069  0.00  0.00     0.013 C 
HETATM    8  C   UNK N   1      28.409  15.691   5.740  0.00  0.00     0.015 C 
HETATM    9  C   UNK N   1      28.254  18.091   6.686  0.00  0.00     0.015 C 
ENDBRANCH   1   7
BRANCH   3  10
HETATM   10  O   UNK N   1      31.238  16.813   8.027  0.00  0.00    -0.360 OA
HETATM   11  H   UNK N   1      31.839  16.373   8.596  0.00  0.00     0.217 HD
ENDBRANCH   3  10
BRANCH   2  12
HETATM   12  C   UNK N   1      34.058  17.150   7.453  0.00  0.00     0.013 C 
HETATM   13  C   UNK N   1      34.540  18.390   8.186  0.00  0.00     0.015 C 
HETATM   14  C   UNK N   1      34.761  15.846   7.793  0.00  0.00     0.015 C 
ENDBRANCH   2  12
TORSDOF 3
ENDMDL
MODEL 8
REMARK VINA RESULT:      -4.6     26.338     28.575
REMARK  3 active torsions:
REMARK  status: ('A' for Active; 'I' for Inactive)
REMARK    1  A    between atoms: O_1  and  C_6 
REMARK    2  A    between atoms: C_2  and  C_4 
REMARK    3  A    between atoms: C_3  and  C_5 
ROOT
HETATM    1  C   UNK N   1      27.088  25.355  -4.685  0.00  0.00    -0.021 A 
HETATM    2  C   UNK N   1      26.869  27.725  -5.289  0.00  0.00    -0.021 A 
HETATM    3  C   UNK N   1      27.625  26.664  -4.730  0.00  0.00     0.079 A 
HETATM    4  C   UNK N   1      25.804  25.126  -5.198  0.00  0.00     0.010 A 
HETATM    5  C   UNK N   1      25.590  27.457  -5.793  0.00  0.00     0.010 A 
HETATM    6  C   UNK N   1      25.060  26.169  -5.749  0.00  0.00     0.001 A 
ENDROOT
BRANCH   1   7
HETATM    7  C   UNK N   1      27.858  24.185  -4.098  0.00  0.00     0.013 C 
HETATM    8  C   UNK N   1      28.802  23.371  -4.968  0.00  0.00     0.015 C 
HETATM    9  C   UNK N   1      27.720  23.742  -2.651  0.00  0.00     0.015 C 
ENDBRANCH   1   7
BRANCH   3  10
HETATM   10  O   UNK N   1      28.853  26.901  -4.243  0.00  0.00    -0.360 OA
HETATM   11  H   UNK N   1      28.998  26.907  -3.317  0.00  0.00     0.217 HD
ENDBRANCH   3  10
BRANCH   2  12
HETATM   12  C   UNK N   1      27.401  29.146  -5.360  0.00  0.00     0.013 C 
HETATM   13  C   UNK N   1      26.943  30.190  -4.355  0.00  0.00     0.015 C 
HETATM   14  C   UNK N   1      28.375  29.615  -6.429  0.00  0.00     0.015 C 
ENDBRANCH   2  12
TORSDOF 3
ENDMDL
MODEL 9
REMARK VINA RESULT:      -4.5     12.234     13.512
REMARK  3 active torsions:
REMARK  status: ('A' for Active; 'I' for Inactive)
REMARK    1  A    between atoms: O_1  and  C_6 
REMARK    2  A    between atoms: C_2  and  C_4 
REMARK    3  A    between atoms: C_3  and  C_5 
ROOT
HETATM    1  C   UNK N   1      30.185  17.797   7.745  0.00  0.00    -0.021 A 
HETATM    2  C   UNK N   1      31.848  16.979   6.135  0.00  0.00    -0.021 A 
HETATM    3  C   UNK N   1      30.499  17.233   6.485  0.00  0.00     0.079 A 
HETATM    4  C   UNK N   1      31.224  18.098   8.636  0.00  0.00     0.010 A 
HETATM    5  C   UNK N   1      32.860  17.295   7.051  0.00  0.00     0.010 A 
HETATM    6  C   UNK N   1      32.552  17.850   8.292  0.00  0.00     0.001 A 
ENDROOT
BRANCH   1   7
HETATM    7  C   UNK N   1      28.755  18.091   8.166  0.00  0.00     0.013 C 
HETATM    8  C   UNK N   1      27.998  19.259   7.558  0.00  0.00     0.015 C 
HETATM    9  C   UNK N   1      28.016  17.277   9.216  0.00  0.00     0.015 C 
ENDBRANCH   1   7
BRANCH   3  10
HETATM   10  O   UNK N   1      29.515  16.939   5.620  0.00  0.00    -0.360 OA
HETATM   11  H   UNK N   1      29.068  17.625   5.166  0.00  0.00     0.217 HD
ENDBRANCH   3  10
BRANCH   2  12
HETATM   12  C   UNK N   1      32.235  16.375   4.796  0.00  0.00     0.013 C 
HETATM   13  C   UNK N   1      32.290  14.867   4.620  0.00  0.00     0.015 C 
HETATM   14  C   UNK N   1      32.613  17.213   3.586  0.00  0.00     0.015 C 
ENDBRANCH   2  12
TORSDOF 3
ENDMDL
