MODEL 1
REMARK VINA RESULT:      -5.7      0.000      0.000
REMARK  3 active torsions:
REMARK  status: ('A' for Active; 'I' for Inactive)
REMARK    1  A    between atoms: S_1  and  N_9 
REMARK    2  A    between atoms: S_1  and  C_12 
REMARK    3  A    between atoms: N_6  and  C_13 
REMARK       I    between atoms: N_6  and  C_14 
ROOT
HETATM    1  S   UNK N   1      34.767  14.803   9.623  0.00  0.00    -0.020 SA
HETATM    2  N   UNK N   1      35.045  16.795  11.033  0.00  0.00    -0.281 N 
ATOM      3  HN  UNK N   1      35.262  17.414  11.815  1.00  0.00     0.188 HD
HETATM    4  N   UNK N   1      34.521  17.228   9.869  0.00  0.00    -0.278 N 
ATOM      5  HN  UNK N   1      34.306  18.207   9.683  1.00  0.00     0.189 HD
HETATM    6  C   UNK N   1      35.255  15.446  11.062  0.00  0.00     0.208 A 
HETATM    7  C   UNK N   1      34.305  16.228   8.963  0.00  0.00     0.168 A 
ENDROOT
BRANCH   6   8
HETATM    8  S   UNK N   1      35.854  14.467  12.438  0.00  0.00     0.280 S 
HETATM    9  O   UNK N   1      34.659  13.672  12.978  0.00  0.00    -0.199 OA
HETATM   10  O   UNK N   1      35.831  13.525  11.227  0.00  0.00    -0.199 OA
BRANCH   8  11
HETATM   11  N   UNK N   1      37.233  13.414  12.768  0.00  0.00    -0.323 N 
HETATM   12  H   UNK N   1      37.552  13.191  13.710  0.00  0.00     0.169 HD
HETATM   13  H   UNK N   1      37.735  13.010  11.977  0.00  0.00     0.169 HD
ENDBRANCH   8  11
ENDBRANCH   6   8
BRANCH   7  14
HETATM   14  N   UNK N   1      33.709  16.361   7.686  0.00  0.00    -0.306 N 
HETATM   15  C   UNK N   1      33.902  17.406   6.845  0.00  0.00     0.219 C 
HETATM   16  O   UNK N   1      34.647  18.326   7.144  0.00  0.00    -0.274 OA
HETATM   17  C   UNK N   1      33.179  17.436   5.544  0.00  0.00     0.117 C 
HETATM   18  H   UNK N   1      33.108  15.640   7.386  0.00  0.00     0.171 HD
ENDBRANCH   7  14
TORSDOF 3
ENDMDL
MODEL 2
REMARK VINA RESULT:      -5.4      2.191      5.951
REMARK  3 active torsions:
REMARK  status: ('A' for Active; 'I' for Inactive)
REMARK    1  A    between atoms: S_1  and  N_9 
REMARK    2  A    between atoms: S_1  and  C_12 
REMARK    3  A    between atoms: N_6  and  C_13 
REMARK       I    between atoms: N_6  and  C_14 
ROOT
HETATM    1  S   UNK N   1      35.565  16.706  10.430  0.00  0.00    -0.020 SA
HETATM    2  N   UNK N   1      33.366  15.703   9.989  0.00  0.00    -0.281 N 
ATOM      3  HN  UNK N   1      32.450  15.500   9.589  1.00  0.00     0.188 HD
HETATM    4  N   UNK N   1      33.882  15.033  11.039  0.00  0.00    -0.278 N 
ATOM      5  HN  UNK N   1      33.395  14.271  11.510  1.00  0.00     0.189 HD
HETATM    6  C   UNK N   1      34.192  16.682   9.514  0.00  0.00     0.208 A 
HETATM    7  C   UNK N   1      35.120  15.476  11.413  0.00  0.00     0.168 A 
ENDROOT
BRANCH   6   8
HETATM    8  S   UNK N   1      33.855  17.847   8.195  0.00  0.00     0.280 S 
HETATM    9  O   UNK N   1      34.927  18.941   8.277  0.00  0.00    -0.199 OA
HETATM   10  O   UNK N   1      34.957  16.918   7.668  0.00  0.00    -0.199 OA
BRANCH   8  11
HETATM   11  N   UNK N   1      33.474  17.770   6.473  0.00  0.00    -0.323 N 
HETATM   12  H   UNK N   1      32.523  17.693   6.114  0.00  0.00     0.169 HD
HETATM   13  H   UNK N   1      34.244  17.803   5.804  0.00  0.00     0.169 HD
ENDBRANCH   8  11
ENDBRANCH   6   8
BRANCH   7  14
HETATM   14  N   UNK N   1      35.883  15.016  12.513  0.00  0.00    -0.306 N 
HETATM   15  C   UNK N   1      35.603  13.907  13.242  0.00  0.00     0.219 C 
HETATM   16  O   UNK N   1      34.645  13.201  12.971  0.00  0.00    -0.274 OA
HETATM   17  C   UNK N   1      36.470  13.562  14.402  0.00  0.00     0.117 C 
HETATM   18  H   UNK N   1      36.677  15.540  12.769  0.00  0.00     0.171 HD
ENDBRANCH   7  14
TORSDOF 3
ENDMDL
MODEL 3
REMARK VINA RESULT:      -5.0      2.136      5.773
REMARK  3 active torsions:
REMARK  status: ('A' for Active; 'I' for Inactive)
REMARK    1  A    between atoms: S_1  and  N_9 
REMARK    2  A    between atoms: S_1  and  C_12 
REMARK    3  A    between atoms: N_6  and  C_13 
REMARK       I    between atoms: N_6  and  C_14 
ROOT
HETATM    1  S   UNK N   1      33.489  15.120   9.401  0.00  0.00    -0.020 SA
HETATM    2  N   UNK N   1      34.639  17.182  10.078  0.00  0.00    -0.281 N 
ATOM      3  HN  UNK N   1      35.000  18.136  10.096  1.00  0.00     0.188 HD
HETATM    4  N   UNK N   1      34.895  16.275  11.042  0.00  0.00    -0.278 N 
ATOM      5  HN  UNK N   1      35.465  16.477  11.863  1.00  0.00     0.189 HD
HETATM    6  C   UNK N   1      33.851  16.696   9.074  0.00  0.00     0.208 A 
HETATM    7  C   UNK N   1      34.316  15.058  10.812  0.00  0.00     0.168 A 
ENDROOT
BRANCH   6   8
HETATM    8  S   UNK N   1      33.351  17.543   7.576  0.00  0.00     0.280 S 
HETATM    9  O   UNK N   1      34.597  18.239   7.016  0.00  0.00    -0.199 OA
HETATM   10  O   UNK N   1      33.984  16.220   7.123  0.00  0.00    -0.199 OA
BRANCH   8  11
HETATM   11  N   UNK N   1      32.407  17.161   6.134  0.00  0.00    -0.323 N 
HETATM   12  H   UNK N   1      31.620  17.726   5.816  0.00  0.00     0.169 HD
HETATM   13  H   UNK N   1      32.661  16.334   5.593  0.00  0.00     0.169 HD
ENDBRANCH   8  11
ENDBRANCH   6   8
BRANCH   7  14
HETATM   14  N   UNK N   1      34.455  13.895  11.607  0.00  0.00    -0.306 N 
HETATM   15  C   UNK N   1      35.322  13.760  12.640  0.00  0.00     0.219 C 
HETATM   16  O   UNK N   1      36.055  14.678  12.971  0.00  0.00    -0.274 OA
HETATM   17  C   UNK N   1      35.391  12.462  13.367  0.00  0.00     0.117 C 
HETATM   18  H   UNK N   1      33.878  13.125  11.393  0.00  0.00     0.171 HD
ENDBRANCH   7  14
TORSDOF 3
ENDMDL
MODEL 4
REMARK VINA RESULT:      -5.0      4.667      6.138
REMARK  3 active torsions:
REMARK  status: ('A' for Active; 'I' for Inactive)
REMARK    1  A    between atoms: S_1  and  N_9 
REMARK    2  A    between atoms: S_1  and  C_12 
REMARK    3  A    between atoms: N_6  and  C_13 
REMARK       I    between atoms: N_6  and  C_14 
ROOT
HETATM    1  S   UNK N   1      30.673  16.258   7.280  0.00  0.00    -0.020 SA
HETATM    2  N   UNK N   1      31.083  17.786   9.159  0.00  0.00    -0.281 N 
ATOM      3  HN  UNK N   1      30.954  18.468   9.907  1.00  0.00     0.188 HD
HETATM    4  N   UNK N   1      32.277  17.244   8.847  0.00  0.00    -0.278 N 
ATOM      5  HN  UNK N   1      33.141  17.474   9.339  1.00  0.00     0.189 HD
HETATM    6  C   UNK N   1      30.062  17.332   8.373  0.00  0.00     0.208 A 
HETATM    7  C   UNK N   1      32.219  16.359   7.808  0.00  0.00     0.168 A 
ENDROOT
BRANCH   6   8
HETATM    8  S   UNK N   1      28.349  17.857   8.402  0.00  0.00     0.280 S 
HETATM    9  O   UNK N   1      27.673  17.120   9.565  0.00  0.00    -0.199 OA
HETATM   10  O   UNK N   1      29.068  18.703   9.462  0.00  0.00    -0.199 OA
BRANCH   8  11
HETATM   11  N   UNK N   1      27.466  19.383   8.312  0.00  0.00    -0.323 N 
HETATM   12  H   UNK N   1      27.325  19.995   9.115  0.00  0.00     0.169 HD
HETATM   13  H   UNK N   1      27.077  19.666   7.413  0.00  0.00     0.169 HD
ENDBRANCH   8  11
ENDBRANCH   6   8
BRANCH   7  14
HETATM   14  N   UNK N   1      33.312  15.682   7.214  0.00  0.00    -0.306 N 
HETATM   15  C   UNK N   1      34.330  16.285   6.551  0.00  0.00     0.219 C 
HETATM   16  O   UNK N   1      34.375  17.499   6.436  0.00  0.00    -0.274 OA
HETATM   17  C   UNK N   1      35.397  15.446   5.940  0.00  0.00     0.117 C 
HETATM   18  H   UNK N   1      33.335  14.700   7.288  0.00  0.00     0.171 HD
ENDBRANCH   7  14
TORSDOF 3
ENDMDL
MODEL 5
REMARK VINA RESULT:      -4.9     11.396     13.916
REMARK  3 active torsions:
REMARK  status: ('A' for Active; 'I' for Inactive)
REMARK    1  A    between atoms: S_1  and  N_9 
REMARK    2  A    between atoms: S_1  and  C_12 
REMARK    3  A    between atoms: N_6  and  C_13 
REMARK       I    between atoms: N_6  and  C_14 
ROOT
HETATM    1  S   UNK N   1      23.390  18.656   4.499  0.00  0.00    -0.020 SA
HETATM    2  N   UNK N   1      24.031  20.541   3.060  0.00  0.00    -0.281 N 
ATOM      3  HN  UNK N   1      24.003  21.307   2.387  1.00  0.00     0.188 HD
HETATM    4  N   UNK N   1      25.154  20.157   3.700  0.00  0.00    -0.278 N 
ATOM      5  HN  UNK N   1      26.058  20.607   3.561  1.00  0.00     0.189 HD
HETATM    6  C   UNK N   1      22.935  19.800   3.401  0.00  0.00     0.208 A 
HETATM    7  C   UNK N   1      24.963  19.105   4.551  0.00  0.00     0.168 A 
ENDROOT
BRANCH   6   8
HETATM    8  S   UNK N   1      21.280  19.929   2.725  0.00  0.00     0.280 S 
HETATM    9  O   UNK N   1      20.395  20.539   3.818  0.00  0.00    -0.199 OA
HETATM   10  O   UNK N   1      21.909  21.320   2.570  0.00  0.00    -0.199 OA
BRANCH   8  11
HETATM   11  N   UNK N   1      20.540  20.499   1.227  0.00  0.00    -0.323 N 
HETATM   12  H   UNK N   1      20.604  19.993   0.344  0.00  0.00     0.169 HD
HETATM   13  H   UNK N   1      20.024  21.379   1.245  0.00  0.00     0.169 HD
ENDBRANCH   8  11
ENDBRANCH   6   8
BRANCH   7  14
HETATM   14  N   UNK N   1      25.958  18.442   5.309  0.00  0.00    -0.306 N 
HETATM   15  C   UNK N   1      27.110  19.011   5.743  0.00  0.00     0.219 C 
HETATM   16  O   UNK N   1      27.360  20.183   5.511  0.00  0.00    -0.274 OA
HETATM   17  C   UNK N   1      28.090  18.183   6.499  0.00  0.00     0.117 C 
HETATM   18  H   UNK N   1      25.803  17.496   5.538  0.00  0.00     0.171 HD
ENDBRANCH   7  14
TORSDOF 3
ENDMDL
MODEL 6
REMARK VINA RESULT:      -4.9     15.953     18.286
REMARK  3 active torsions:
REMARK  status: ('A' for Active; 'I' for Inactive)
REMARK    1  A    between atoms: S_1  and  N_9 
REMARK    2  A    between atoms: S_1  and  C_12 
REMARK    3  A    between atoms: N_6  and  C_13 
REMARK       I    between atoms: N_6  and  C_14 
ROOT
HETATM    1  S   UNK N   1      28.812  25.646  -4.314  0.00  0.00    -0.020 SA
HETATM    2  N   UNK N   1      26.751  25.016  -3.134  0.00  0.00    -0.281 N 
ATOM      3  HN  UNK N   1      25.820  25.040  -2.717  1.00  0.00     0.188 HD
HETATM    4  N   UNK N   1      27.564  23.942  -3.073  0.00  0.00    -0.278 N 
ATOM      5  HN  UNK N   1      27.306  23.072  -2.608  1.00  0.00     0.189 HD
HETATM    6  C   UNK N   1      27.299  26.070  -3.808  0.00  0.00     0.208 A 
HETATM    7  C   UNK N   1      28.767  24.133  -3.693  0.00  0.00     0.168 A 
ENDROOT
BRANCH   6   8
HETATM    8  S   UNK N   1      26.591  27.699  -4.044  0.00  0.00     0.280 S 
HETATM    9  O   UNK N   1      25.189  27.499  -4.633  0.00  0.00    -0.199 OA
HETATM   10  O   UNK N   1      26.021  27.178  -2.718  0.00  0.00    -0.199 OA
BRANCH   8  11
HETATM   11  N   UNK N   1      26.436  29.186  -3.104  0.00  0.00    -0.323 N 
HETATM   12  H   UNK N   1      25.681  29.349  -2.438  0.00  0.00     0.169 HD
HETATM   13  H   UNK N   1      27.135  29.917  -3.235  0.00  0.00     0.169 HD
ENDBRANCH   8  11
ENDBRANCH   6   8
BRANCH   7  14
HETATM   14  N   UNK N   1      29.845  23.217  -3.740  0.00  0.00    -0.306 N 
HETATM   15  C   UNK N   1      30.536  22.775  -2.660  0.00  0.00     0.219 C 
HETATM   16  O   UNK N   1      30.246  23.143  -1.533  0.00  0.00    -0.274 OA
HETATM   17  C   UNK N   1      31.677  21.840  -2.860  0.00  0.00     0.117 C 
HETATM   18  H   UNK N   1      30.115  22.875  -4.624  0.00  0.00     0.171 HD
ENDBRANCH   7  14
TORSDOF 3
ENDMDL
MODEL 7
REMARK VINA RESULT:      -4.8      3.399      6.787
REMARK  3 active torsions:
REMARK  status: ('A' for Active; 'I' for Inactive)
REMARK    1  A    between atoms: S_1  and  N_9 
REMARK    2  A    between atoms: S_1  and  C_12 
REMARK    3  A    between atoms: N_6  and  C_13 
REMARK       I    between atoms: N_6  and  C_14 
ROOT
HETATM    1  S   UNK N   1      35.207  13.431  12.185  0.00  0.00    -0.020 SA
HETATM    2  N   UNK N   1      36.455  15.453  12.810  0.00  0.00    -0.281 N 
ATOM      3  HN  UNK N   1      36.850  16.393  12.811  1.00  0.00     0.188 HD
HETATM    4  N   UNK N   1      36.714  14.539  13.767  0.00  0.00    -0.278 N 
ATOM      5  HN  UNK N   1      37.322  14.722  14.565  1.00  0.00     0.189 HD
HETATM    6  C   UNK N   1      35.612  14.993  11.839  0.00  0.00     0.208 A 
HETATM    7  C   UNK N   1      36.085  13.343  13.564  0.00  0.00     0.168 A 
ENDROOT
BRANCH   6   8
HETATM    8  S   UNK N   1      35.084  15.853  10.359  0.00  0.00     0.280 S 
HETATM    9  O   UNK N   1      35.565  17.304  10.486  0.00  0.00    -0.199 OA
HETATM   10  O   UNK N   1      36.552  15.471  10.125  0.00  0.00    -0.199 OA
BRANCH   8  11
HETATM   11  N   UNK N   1      35.112  15.560   8.618  0.00  0.00    -0.323 N 
HETATM   12  H   UNK N   1      35.912  15.155   8.132  0.00  0.00     0.169 HD
HETATM   13  H   UNK N   1      34.288  15.809   8.070  0.00  0.00     0.169 HD
ENDBRANCH   8  11
ENDBRANCH   6   8
BRANCH   7  14
HETATM   14  N   UNK N   1      36.213  12.177  14.357  0.00  0.00    -0.306 N 
HETATM   15  C   UNK N   1      36.086  12.139  15.706  0.00  0.00     0.219 C 
HETATM   16  O   UNK N   1      35.827  13.147  16.343  0.00  0.00    -0.274 OA
HETATM   17  C   UNK N   1      36.286  10.847  16.419  0.00  0.00     0.117 C 
HETATM   18  H   UNK N   1      36.408  11.330  13.893  0.00  0.00     0.171 HD
ENDBRANCH   7  14
TORSDOF 3
ENDMDL
MODEL 8
REMARK VINA RESULT:      -4.8      2.314      3.104
REMARK  3 active torsions:
REMARK  status: ('A' for Active; 'I' for Inactive)
REMARK    1  A    between atoms: S_1  and  N_9 
REMARK    2  A    between atoms: S_1  and  C_12 
REMARK    3  A    between atoms: N_6  and  C_13 
REMARK       I    between atoms: N_6  and  C_14 
ROOT
HETATM    1  S   UNK N   1      34.972  13.603  11.864  0.00  0.00    -0.020 SA
HETATM    2  N   UNK N   1      36.502  14.998  13.187  0.00  0.00    -0.281 N 
ATOM      3  HN  UNK N   1      37.126  15.335  13.920  1.00  0.00     0.188 HD
HETATM    4  N   UNK N   1      36.175  15.725  12.099  0.00  0.00    -0.278 N 
ATOM      5  HN  UNK N   1      36.532  16.664  11.928  1.00  0.00     0.189 HD
HETATM    6  C   UNK N   1      35.913  13.766  13.210  0.00  0.00     0.208 A 
HETATM    7  C   UNK N   1      35.320  15.080  11.250  0.00  0.00     0.168 A 
ENDROOT
BRANCH   6   8
HETATM    8  S   UNK N   1      36.017  12.533  14.506  0.00  0.00     0.280 S 
HETATM    9  O   UNK N   1      36.297  13.281  15.816  0.00  0.00    -0.199 OA
HETATM   10  O   UNK N   1      34.594  13.104  14.579  0.00  0.00    -0.199 OA
BRANCH   8  11
HETATM   11  N   UNK N   1      35.085  11.126  15.026  0.00  0.00    -0.323 N 
HETATM   12  H   UNK N   1      34.072  11.139  15.142  0.00  0.00     0.169 HD
HETATM   13  H   UNK N   1      35.585  10.258  15.220  0.00  0.00     0.169 HD
ENDBRANCH   8  11
ENDBRANCH   6   8
BRANCH   7  14
HETATM   14  N   UNK N   1      34.751  15.607  10.066  0.00  0.00    -0.306 N 
HETATM   15  C   UNK N   1      34.906  16.882   9.632  0.00  0.00     0.219 C 
HETATM   16  O   UNK N   1      35.587  17.681  10.255  0.00  0.00    -0.274 OA
HETATM   17  C   UNK N   1      34.216  17.315   8.386  0.00  0.00     0.117 C 
HETATM   18  H   UNK N   1      34.202  15.003   9.516  0.00  0.00     0.171 HD
ENDBRANCH   7  14
TORSDOF 3
ENDMDL
MODEL 9
REMARK VINA RESULT:      -4.7     13.060     14.416
REMARK  3 active torsions:
REMARK  status: ('A' for Active; 'I' for Inactive)
REMARK    1  A    between atoms: S_1  and  N_9 
REMARK    2  A    between atoms: S_1  and  C_12 
REMARK    3  A    between atoms: N_6  and  C_13 
REMARK       I    between atoms: N_6  and  C_14 
ROOT
HETATM    1  S   UNK N   1      43.644  22.830   1.131  0.00  0.00    -0.020 SA
HETATM    2  N   UNK N   1      42.837  23.233   3.416  0.00  0.00    -0.281 N 
ATOM      3  HN  UNK N   1      42.259  23.256   4.256  1.00  0.00     0.188 HD
HETATM    4  N   UNK N   1      44.066  23.786   3.347  0.00  0.00    -0.278 N 
ATOM      5  HN  UNK N   1      44.508  24.264   4.132  1.00  0.00     0.189 HD
HETATM    6  C   UNK N   1      42.445  22.642   2.249  0.00  0.00     0.208 A 
HETATM    7  C   UNK N   1      44.659  23.644   2.124  0.00  0.00     0.168 A 
ENDROOT
BRANCH   6   8
HETATM    8  S   UNK N   1      40.866  21.873   1.896  0.00  0.00     0.280 S 
HETATM    9  O   UNK N   1      41.000  21.175   0.537  0.00  0.00    -0.199 OA
HETATM   10  O   UNK N   1      41.759  20.762   2.465  0.00  0.00    -0.199 OA
BRANCH   8  11
HETATM   11  N   UNK N   1      39.696  20.872   2.760  0.00  0.00    -0.323 N 
HETATM   12  H   UNK N   1      39.133  21.216   3.537  0.00  0.00     0.169 HD
HETATM   13  H   UNK N   1      39.580  19.901   2.469  0.00  0.00     0.169 HD
ENDBRANCH   8  11
ENDBRANCH   6   8
BRANCH   7  14
HETATM   14  N   UNK N   1      45.912  24.170   1.729  0.00  0.00    -0.306 N 
HETATM   15  C   UNK N   1      46.291  25.464   1.873  0.00  0.00     0.219 C 
HETATM   16  O   UNK N   1      45.548  26.284   2.390  0.00  0.00    -0.274 OA
HETATM   17  C   UNK N   1      47.627  25.890   1.375  0.00  0.00     0.117 C 
HETATM   18  H   UNK N   1      46.558  23.550   1.319  0.00  0.00     0.171 HD
ENDBRANCH   7  14
TORSDOF 3
ENDMDL
