MODEL 1
REMARK VINA RESULT:      -8.7      0.000      0.000
REMARK  1 active torsions:
REMARK  status: ('A' for Active; 'I' for Inactive)
REMARK    1  A    between atoms: C_9  and  C_16 
ROOT
HETATM    1  O   UNK N   1      29.341  12.936   4.117  0.00  0.00    -0.271 OA
HETATM    2  O   UNK N   1      25.787  16.399   2.327  0.00  0.00    -0.271 OA
HETATM    3  N   UNK N   1      27.046  15.760   4.100  0.00  0.00    -0.323 N 
HETATM    4  N   UNK N   1      27.402  18.077   7.078  0.00  0.00    -0.356 N 
HETATM    5  N   UNK N   1      28.083  13.662   2.419  0.00  0.00    -0.346 N 
HETATM    6  C   UNK N   1      28.054  14.832   4.636  0.00  0.00     0.185 A 
HETATM    7  C   UNK N   1      26.508  16.785   5.051  0.00  0.00     0.172 C 
HETATM    8  C   UNK N   1      29.286  15.625   5.106  0.00  0.00     0.076 C 
HETATM    9  C   UNK N   1      27.558  17.192   6.062  0.00  0.00     0.045 A 
HETATM   10  C   UNK N   1      28.828  16.663   6.064  0.00  0.00    -0.018 A 
HETATM   11  C   UNK N   1      28.530  13.752   3.698  0.00  0.00     0.243 A 
HETATM   12  C   UNK N   1      29.490  17.244   7.109  0.00  0.00    -0.001 A 
HETATM   13  C   UNK N   1      26.619  15.644   2.791  0.00  0.00     0.239 A 
HETATM   14  C   UNK N   1      27.133  14.584   1.863  0.00  0.00     0.228 A 
HETATM   15  C   UNK N   1      28.599  18.099   7.708  0.00  0.00     0.043 A 
HETATM   16  C   UNK N   1      30.789  17.078   7.581  0.00  0.00     0.014 A 
HETATM   17  C   UNK N   1      28.950  18.854   8.824  0.00  0.00     0.030 A 
HETATM   18  C   UNK N   1      28.565  12.608   1.561  0.00  0.00     0.153 C 
HETATM   19  C   UNK N   1      31.175  17.829   8.705  0.00  0.00     0.001 A 
HETATM   20  C   UNK N   1      30.259  18.712   9.325  0.00  0.00     0.002 A 
HETATM   21  H   UNK N   1      26.595  18.592   7.308  0.00  0.00     0.166 HD
ENDROOT
BRANCH   7  22
HETATM   22  C   UNK N   1      25.797  17.981   4.446  0.00  0.00    -0.027 A 
HETATM   23  C   UNK N   1      24.384  18.015   4.421  0.00  0.00     0.049 A 
HETATM   24  C   UNK N   1      23.771  19.082   3.769  0.00  0.00     0.105 A 
HETATM   25  O   UNK N   1      22.471  19.291   3.567  0.00  0.00    -0.323 OA
HETATM   26  C   UNK N   1      24.470  20.076   3.211  0.00  0.00     0.105 A 
HETATM   27  C   UNK N   1      22.323  20.477   2.839  0.00  0.00     0.352 A 
HETATM   28  O   UNK N   1      23.628  20.942   2.648  0.00  0.00    -0.323 OA
HETATM   29  C   UNK N   1      25.860  20.117   3.240  0.00  0.00     0.040 A 
HETATM   30  C   UNK N   1      26.531  19.044   3.856  0.00  0.00     0.012 A 
ENDBRANCH   7  22
TORSDOF 1
ENDMDL
MODEL 2
REMARK VINA RESULT:      -8.7      3.052      6.614
REMARK  1 active torsions:
REMARK  status: ('A' for Active; 'I' for Inactive)
REMARK    1  A    between atoms: C_9  and  C_16 
ROOT
HETATM    1  O   UNK N   1      28.234  13.272   1.631  0.00  0.00    -0.271 OA
HETATM    2  O   UNK N   1      31.834  14.483   5.290  0.00  0.00    -0.271 OA
HETATM    3  N   UNK N   1      30.222  15.288   3.916  0.00  0.00    -0.323 N 
HETATM    4  N   UNK N   1      28.937  18.820   4.402  0.00  0.00    -0.356 N 
HETATM    5  N   UNK N   1      29.818  12.572   3.041  0.00  0.00    -0.346 N 
HETATM    6  C   UNK N   1      29.190  14.995   2.910  0.00  0.00     0.185 A 
HETATM    7  C   UNK N   1      30.418  16.730   4.275  0.00  0.00     0.172 C 
HETATM    8  C   UNK N   1      27.819  15.466   3.427  0.00  0.00     0.076 C 
HETATM    9  C   UNK N   1      29.116  17.495   4.173  0.00  0.00     0.045 A 
HETATM   10  C   UNK N   1      27.934  16.899   3.798  0.00  0.00    -0.018 A 
HETATM   11  C   UNK N   1      29.056  13.553   2.493  0.00  0.00     0.243 A 
HETATM   12  C   UNK N   1      26.984  17.882   3.804  0.00  0.00    -0.001 A 
HETATM   13  C   UNK N   1      30.976  14.265   4.458  0.00  0.00     0.239 A 
HETATM   14  C   UNK N   1      30.801  12.831   4.056  0.00  0.00     0.228 A 
HETATM   15  C   UNK N   1      27.621  19.039   4.175  0.00  0.00     0.043 A 
HETATM   16  C   UNK N   1      25.624  17.848   3.502  0.00  0.00     0.014 A 
HETATM   17  C   UNK N   1      26.939  20.248   4.273  0.00  0.00     0.030 A 
HETATM   18  C   UNK N   1      29.657  11.207   2.607  0.00  0.00     0.153 C 
HETATM   19  C   UNK N   1      24.907  19.054   3.596  0.00  0.00     0.001 A 
HETATM   20  C   UNK N   1      25.561  20.249   3.978  0.00  0.00     0.002 A 
HETATM   21  H   UNK N   1      29.615  19.480   4.676  0.00  0.00     0.166 HD
ENDROOT
BRANCH   7  22
HETATM   22  C   UNK N   1      31.159  17.025   5.565  0.00  0.00    -0.027 A 
HETATM   23  C   UNK N   1      32.503  17.462   5.513  0.00  0.00     0.049 A 
HETATM   24  C   UNK N   1      33.180  17.628   6.719  0.00  0.00     0.105 A 
HETATM   25  O   UNK N   1      34.452  17.968   6.913  0.00  0.00    -0.323 OA
HETATM   26  C   UNK N   1      32.592  17.424   7.902  0.00  0.00     0.105 A 
HETATM   27  C   UNK N   1      34.700  17.982   8.290  0.00  0.00     0.352 A 
HETATM   28  O   UNK N   1      33.477  17.638   8.874  0.00  0.00    -0.323 OA
HETATM   29  C   UNK N   1      31.261  17.033   8.016  0.00  0.00     0.040 A 
HETATM   30  C   UNK N   1      30.541  16.818   6.826  0.00  0.00     0.012 A 
ENDBRANCH   7  22
TORSDOF 1
ENDMDL
MODEL 3
REMARK VINA RESULT:      -8.3      5.324      9.251
REMARK  1 active torsions:
REMARK  status: ('A' for Active; 'I' for Inactive)
REMARK    1  A    between atoms: C_9  and  C_16 
ROOT
HETATM    1  O   UNK N   1      32.976  15.725   3.238  0.00  0.00    -0.271 OA
HETATM    2  O   UNK N   1      35.931  14.617   7.464  0.00  0.00    -0.271 OA
HETATM    3  N   UNK N   1      34.197  15.837   6.664  0.00  0.00    -0.323 N 
HETATM    4  N   UNK N   1      31.899  17.638   9.081  0.00  0.00    -0.356 N 
HETATM    5  N   UNK N   1      34.651  14.546   4.128  0.00  0.00    -0.346 N 
HETATM    6  C   UNK N   1      33.332  16.160   5.519  0.00  0.00     0.185 A 
HETATM    7  C   UNK N   1      33.941  16.593   7.932  0.00  0.00     0.172 C 
HETATM    8  C   UNK N   1      31.867  15.852   5.878  0.00  0.00     0.076 C 
HETATM    9  C   UNK N   1      32.473  16.938   8.070  0.00  0.00     0.045 A 
HETATM   10  C   UNK N   1      31.537  16.579   7.129  0.00  0.00    -0.018 A 
HETATM   11  C   UNK N   1      33.649  15.456   4.225  0.00  0.00     0.243 A 
HETATM   12  C   UNK N   1      30.336  17.061   7.572  0.00  0.00    -0.001 A 
HETATM   13  C   UNK N   1      35.204  14.900   6.532  0.00  0.00     0.239 A 
HETATM   14  C   UNK N   1      35.479  14.183   5.245  0.00  0.00     0.228 A 
HETATM   15  C   UNK N   1      30.586  17.699   8.760  0.00  0.00     0.043 A 
HETATM   16  C   UNK N   1      29.060  16.997   7.019  0.00  0.00     0.014 A 
HETATM   17  C   UNK N   1      29.571  18.319   9.483  0.00  0.00     0.030 A 
HETATM   18  C   UNK N   1      34.920  13.901   2.867  0.00  0.00     0.153 C 
HETATM   19  C   UNK N   1      28.012  17.611   7.728  0.00  0.00     0.001 A 
HETATM   20  C   UNK N   1      28.266  18.270   8.954  0.00  0.00     0.002 A 
HETATM   21  H   UNK N   1      32.340  18.017   9.876  0.00  0.00     0.166 HD
ENDROOT
BRANCH   7  22
HETATM   22  C   UNK N   1      34.519  16.014   9.209  0.00  0.00    -0.027 A 
HETATM   23  C   UNK N   1      34.163  14.704   9.606  0.00  0.00     0.049 A 
HETATM   24  C   UNK N   1      34.636  14.245  10.833  0.00  0.00     0.105 A 
HETATM   25  O   UNK N   1      34.384  13.084  11.434  0.00  0.00    -0.323 OA
HETATM   26  C   UNK N   1      35.433  14.982  11.613  0.00  0.00     0.105 A 
HETATM   27  C   UNK N   1      35.048  13.072  12.665  0.00  0.00     0.352 A 
HETATM   28  O   UNK N   1      35.710  14.303  12.724  0.00  0.00    -0.323 OA
HETATM   29  C   UNK N   1      35.849  16.262  11.256  0.00  0.00     0.040 A 
HETATM   30  C   UNK N   1      35.371  16.787  10.040  0.00  0.00     0.012 A 
ENDBRANCH   7  22
TORSDOF 1
ENDMDL
MODEL 4
REMARK VINA RESULT:      -8.0     11.161     13.555
REMARK  1 active torsions:
REMARK  status: ('A' for Active; 'I' for Inactive)
REMARK    1  A    between atoms: C_9  and  C_16 
ROOT
HETATM    1  O   UNK N   1      31.012  23.487  -2.210  0.00  0.00    -0.271 OA
HETATM    2  O   UNK N   1      28.713  21.822  -6.655  0.00  0.00    -0.271 OA
HETATM    3  N   UNK N   1      28.576  23.252  -4.902  0.00  0.00    -0.323 N 
HETATM    4  N   UNK N   1      26.075  26.099  -4.996  0.00  0.00    -0.356 N 
HETATM    5  N   UNK N   1      31.071  22.138  -3.989  0.00  0.00    -0.346 N 
HETATM    6  C   UNK N   1      29.192  23.765  -3.669  0.00  0.00     0.185 A 
HETATM    7  C   UNK N   1      27.249  23.836  -5.280  0.00  0.00     0.172 C 
HETATM    8  C   UNK N   1      29.447  25.276  -3.810  0.00  0.00     0.076 C 
HETATM    9  C   UNK N   1      27.145  25.279  -4.838  0.00  0.00     0.045 A 
HETATM   10  C   UNK N   1      28.165  25.927  -4.179  0.00  0.00    -0.018 A 
HETATM   11  C   UNK N   1      30.486  23.116  -3.250  0.00  0.00     0.243 A 
HETATM   12  C   UNK N   1      27.722  27.196  -3.928  0.00  0.00    -0.001 A 
HETATM   13  C   UNK N   1      29.202  22.261  -5.633  0.00  0.00     0.239 A 
HETATM   14  C   UNK N   1      30.509  21.654  -5.219  0.00  0.00     0.228 A 
HETATM   15  C   UNK N   1      26.449  27.272  -4.435  0.00  0.00     0.043 A 
HETATM   16  C   UNK N   1      28.330  28.272  -3.288  0.00  0.00     0.014 A 
HETATM   17  C   UNK N   1      25.694  28.438  -4.339  0.00  0.00     0.030 A 
HETATM   18  C   UNK N   1      32.308  21.543  -3.546  0.00  0.00     0.153 C 
HETATM   19  C   UNK N   1      27.594  29.466  -3.178  0.00  0.00     0.001 A 
HETATM   20  C   UNK N   1      26.281  29.548  -3.700  0.00  0.00     0.002 A 
HETATM   21  H   UNK N   1      25.215  25.888  -5.426  0.00  0.00     0.166 HD
ENDROOT
BRANCH   7  22
HETATM   22  C   UNK N   1      26.792  23.639  -6.714  0.00  0.00    -0.027 A 
HETATM   23  C   UNK N   1      27.360  24.427  -7.742  0.00  0.00     0.049 A 
HETATM   24  C   UNK N   1      26.845  24.286  -9.028  0.00  0.00     0.105 A 
HETATM   25  O   UNK N   1      27.176  24.958 -10.129  0.00  0.00    -0.323 OA
HETATM   26  C   UNK N   1      25.873  23.415  -9.318  0.00  0.00     0.105 A 
HETATM   27  C   UNK N   1      26.376  24.501 -11.182  0.00  0.00     0.352 A 
HETATM   28  O   UNK N   1      25.570  23.510 -10.611  0.00  0.00    -0.323 OA
HETATM   29  C   UNK N   1      25.305  22.586  -8.356  0.00  0.00     0.040 A 
HETATM   30  C   UNK N   1      25.765  22.712  -7.032  0.00  0.00     0.012 A 
ENDBRANCH   7  22
TORSDOF 1
ENDMDL
MODEL 5
REMARK VINA RESULT:      -8.0     10.933     13.754
REMARK  1 active torsions:
REMARK  status: ('A' for Active; 'I' for Inactive)
REMARK    1  A    between atoms: C_9  and  C_16 
ROOT
HETATM    1  O   UNK N   1      25.524  24.443  -8.601  0.00  0.00    -0.271 OA
HETATM    2  O   UNK N   1      29.266  21.747  -6.044  0.00  0.00    -0.271 OA
HETATM    3  N   UNK N   1      28.373  23.793  -6.433  0.00  0.00    -0.323 N 
HETATM    4  N   UNK N   1      29.366  26.721  -4.242  0.00  0.00    -0.356 N 
HETATM    5  N   UNK N   1      26.456  22.469  -8.130  0.00  0.00    -0.346 N 
HETATM    6  C   UNK N   1      27.332  24.584  -7.108  0.00  0.00     0.185 A 
HETATM    7  C   UNK N   1      29.371  24.557  -5.618  0.00  0.00     0.172 C 
HETATM    8  C   UNK N   1      26.497  25.337  -6.058  0.00  0.00     0.076 C 
HETATM    9  C   UNK N   1      28.744  25.794  -5.012  0.00  0.00     0.045 A 
HETATM   10  C   UNK N   1      27.425  26.128  -5.212  0.00  0.00    -0.018 A 
HETATM   11  C   UNK N   1      26.381  23.818  -7.992  0.00  0.00     0.243 A 
HETATM   12  C   UNK N   1      27.213  27.296  -4.534  0.00  0.00    -0.001 A 
HETATM   13  C   UNK N   1      28.416  22.421  -6.591  0.00  0.00     0.239 A 
HETATM   14  C   UNK N   1      27.437  21.673  -7.446  0.00  0.00     0.228 A 
HETATM   15  C   UNK N   1      28.410  27.634  -3.954  0.00  0.00     0.043 A 
HETATM   16  C   UNK N   1      26.074  28.086  -4.396  0.00  0.00     0.014 A 
HETATM   17  C   UNK N   1      28.550  28.789  -3.189  0.00  0.00     0.030 A 
HETATM   18  C   UNK N   1      25.527  21.780  -8.991  0.00  0.00     0.153 C 
HETATM   19  C   UNK N   1      26.183  29.257  -3.626  0.00  0.00     0.001 A 
HETATM   20  C   UNK N   1      27.416  29.608  -3.026  0.00  0.00     0.002 A 
HETATM   21  H   UNK N   1      30.308  26.729  -3.953  0.00  0.00     0.166 HD
ENDROOT
BRANCH   7  22
HETATM   22  C   UNK N   1      30.184  23.769  -4.608  0.00  0.00    -0.027 A 
HETATM   23  C   UNK N   1      31.476  23.313  -4.954  0.00  0.00     0.049 A 
HETATM   24  C   UNK N   1      32.150  22.510  -4.037  0.00  0.00     0.105 A 
HETATM   25  O   UNK N   1      33.336  21.921  -4.169  0.00  0.00    -0.323 OA
HETATM   26  C   UNK N   1      31.632  22.198  -2.844  0.00  0.00     0.105 A 
HETATM   27  C   UNK N   1      33.597  21.189  -3.005  0.00  0.00     0.352 A 
HETATM   28  O   UNK N   1      32.482  21.409  -2.190  0.00  0.00    -0.323 OA
HETATM   29  C   UNK N   1      30.383  22.652  -2.433  0.00  0.00     0.040 A 
HETATM   30  C   UNK N   1      29.645  23.439  -3.337  0.00  0.00     0.012 A 
ENDBRANCH   7  22
TORSDOF 1
ENDMDL
MODEL 6
REMARK VINA RESULT:      -7.8     11.479     13.690
REMARK  1 active torsions:
REMARK  status: ('A' for Active; 'I' for Inactive)
REMARK    1  A    between atoms: C_9  and  C_16 
ROOT
HETATM    1  O   UNK N   1      26.983  21.158  -9.097  0.00  0.00    -0.271 OA
HETATM    2  O   UNK N   1      25.658  26.134  -7.959  0.00  0.00    -0.271 OA
HETATM    3  N   UNK N   1      26.510  24.196  -7.152  0.00  0.00    -0.323 N 
HETATM    4  N   UNK N   1      28.220  24.165  -3.770  0.00  0.00    -0.356 N 
HETATM    5  N   UNK N   1      26.183  23.120  -9.805  0.00  0.00    -0.346 N 
HETATM    6  C   UNK N   1      26.915  22.810  -7.428  0.00  0.00     0.185 A 
HETATM    7  C   UNK N   1      26.651  24.666  -5.736  0.00  0.00     0.172 C 
HETATM    8  C   UNK N   1      28.408  22.634  -7.097  0.00  0.00     0.076 C 
HETATM    9  C   UNK N   1      27.822  23.992  -5.055  0.00  0.00     0.045 A 
HETATM   10  C   UNK N   1      28.624  23.076  -5.696  0.00  0.00    -0.018 A 
HETATM   11  C   UNK N   1      26.694  22.318  -8.835  0.00  0.00     0.243 A 
HETATM   12  C   UNK N   1      29.560  22.672  -4.784  0.00  0.00    -0.001 A 
HETATM   13  C   UNK N   1      26.000  24.986  -8.164  0.00  0.00     0.239 A 
HETATM   14  C   UNK N   1      25.822  24.489  -9.567  0.00  0.00     0.228 A 
HETATM   15  C   UNK N   1      29.290  23.351  -3.622  0.00  0.00     0.043 A 
HETATM   16  C   UNK N   1      30.608  21.761  -4.884  0.00  0.00     0.014 A 
HETATM   17  C   UNK N   1      30.056  23.165  -2.475  0.00  0.00     0.030 A 
HETATM   18  C   UNK N   1      25.984  22.603 -11.136  0.00  0.00     0.153 C 
HETATM   19  C   UNK N   1      31.402  21.555  -3.743  0.00  0.00     0.001 A 
HETATM   20  C   UNK N   1      31.127  22.252  -2.543  0.00  0.00     0.002 A 
HETATM   21  H   UNK N   1      27.818  24.755  -3.091  0.00  0.00     0.166 HD
ENDROOT
BRANCH   7  22
HETATM   22  C   UNK N   1      26.634  26.165  -5.502  0.00  0.00    -0.027 A 
HETATM   23  C   UNK N   1      27.749  26.944  -5.887  0.00  0.00     0.049 A 
HETATM   24  C   UNK N   1      27.736  28.299  -5.566  0.00  0.00     0.105 A 
HETATM   25  O   UNK N   1      28.690  29.206  -5.770  0.00  0.00    -0.323 OA
HETATM   26  C   UNK N   1      26.701  28.879  -4.950  0.00  0.00     0.105 A 
HETATM   27  C   UNK N   1      28.250  30.432  -5.258  0.00  0.00     0.352 A 
HETATM   28  O   UNK N   1      26.971  30.168  -4.755  0.00  0.00    -0.323 OA
HETATM   29  C   UNK N   1      25.560  28.171  -4.584  0.00  0.00     0.040 A 
HETATM   30  C   UNK N   1      25.536  26.790  -4.854  0.00  0.00     0.012 A 
ENDBRANCH   7  22
TORSDOF 1
ENDMDL
MODEL 7
REMARK VINA RESULT:      -7.8      8.090     11.339
REMARK  1 active torsions:
REMARK  status: ('A' for Active; 'I' for Inactive)
REMARK    1  A    between atoms: C_9  and  C_16 
ROOT
HETATM    1  O   UNK N   1      35.365  17.774   9.997  0.00  0.00    -0.271 OA
HETATM    2  O   UNK N   1      33.529  13.637   7.289  0.00  0.00    -0.271 OA
HETATM    3  N   UNK N   1      34.922  14.320   8.940  0.00  0.00    -0.323 N 
HETATM    4  N   UNK N   1      36.440  11.763  11.290  0.00  0.00    -0.356 N 
HETATM    5  N   UNK N   1      34.001  16.998   8.408  0.00  0.00    -0.346 N 
HETATM    6  C   UNK N   1      35.445  15.440   9.737  0.00  0.00     0.185 A 
HETATM    7  C   UNK N   1      35.494  12.966   9.232  0.00  0.00     0.172 C 
HETATM    8  C   UNK N   1      35.148  15.194  11.227  0.00  0.00     0.076 C 
HETATM    9  C   UNK N   1      35.874  12.841  10.691  0.00  0.00     0.045 A 
HETATM   10  C   UNK N   1      35.696  13.864  11.593  0.00  0.00    -0.018 A 
HETATM   11  C   UNK N   1      34.927  16.811   9.383  0.00  0.00     0.243 A 
HETATM   12  C   UNK N   1      36.156  13.407  12.796  0.00  0.00    -0.001 A 
HETATM   13  C   UNK N   1      33.975  14.547   7.960  0.00  0.00     0.239 A 
HETATM   14  C   UNK N   1      33.445  15.914   7.648  0.00  0.00     0.228 A 
HETATM   15  C   UNK N   1      36.602  12.127  12.582  0.00  0.00     0.043 A 
HETATM   16  C   UNK N   1      36.226  14.017  14.046  0.00  0.00     0.014 A 
HETATM   17  C   UNK N   1      37.150  11.364  13.610  0.00  0.00     0.030 A 
HETATM   18  C   UNK N   1      33.538  18.329   8.101  0.00  0.00     0.153 C 
HETATM   19  C   UNK N   1      36.771  13.270  15.106  0.00  0.00     0.001 A 
HETATM   20  C   UNK N   1      37.232  11.950  14.889  0.00  0.00     0.002 A 
HETATM   21  H   UNK N   1      36.680  10.903  10.875  0.00  0.00     0.166 HD
ENDROOT
BRANCH   7  22
HETATM   22  C   UNK N   1      34.710  11.766   8.736  0.00  0.00    -0.027 A 
HETATM   23  C   UNK N   1      33.473  11.442   9.339  0.00  0.00     0.049 A 
HETATM   24  C   UNK N   1      32.833  10.277   8.924  0.00  0.00     0.105 A 
HETATM   25  O   UNK N   1      31.704   9.744   9.387  0.00  0.00    -0.323 OA
HETATM   26  C   UNK N   1      33.328   9.493   7.960  0.00  0.00     0.105 A 
HETATM   27  C   UNK N   1      31.459   8.555   8.691  0.00  0.00     0.352 A 
HETATM   28  O   UNK N   1      32.521   8.449   7.786  0.00  0.00    -0.323 OA
HETATM   29  C   UNK N   1      34.520   9.784   7.303  0.00  0.00     0.040 A 
HETATM   30  C   UNK N   1      35.225  10.932   7.709  0.00  0.00     0.012 A 
ENDBRANCH   7  22
TORSDOF 1
ENDMDL
MODEL 8
REMARK VINA RESULT:      -7.6      8.821     12.816
REMARK  1 active torsions:
REMARK  status: ('A' for Active; 'I' for Inactive)
REMARK    1  A    between atoms: C_9  and  C_16 
ROOT
HETATM    1  O   UNK N   1      34.577  13.449  13.125  0.00  0.00    -0.271 OA
HETATM    2  O   UNK N   1      38.585  11.736  10.156  0.00  0.00    -0.271 OA
HETATM    3  N   UNK N   1      36.580  12.790  10.159  0.00  0.00    -0.323 N 
HETATM    4  N   UNK N   1      35.428  14.638   7.057  0.00  0.00    -0.356 N 
HETATM    5  N   UNK N   1      36.571  12.448  13.020  0.00  0.00    -0.346 N 
HETATM    6  C   UNK N   1      35.451  13.305  10.949  0.00  0.00     0.185 A 
HETATM    7  C   UNK N   1      36.485  12.949   8.672  0.00  0.00     0.172 C 
HETATM    8  C   UNK N   1      35.310  14.820  10.718  0.00  0.00     0.076 C 
HETATM    9  C   UNK N   1      35.721  14.203   8.308  0.00  0.00     0.045 A 
HETATM   10  C   UNK N   1      35.203  15.056   9.256  0.00  0.00    -0.018 A 
HETATM   11  C   UNK N   1      35.514  13.069  12.436  0.00  0.00     0.243 A 
HETATM   12  C   UNK N   1      34.576  16.061   8.574  0.00  0.00    -0.001 A 
HETATM   13  C   UNK N   1      37.642  12.169  10.787  0.00  0.00     0.239 A 
HETATM   14  C   UNK N   1      37.704  11.977  12.273  0.00  0.00     0.228 A 
HETATM   15  C   UNK N   1      34.729  15.781   7.239  0.00  0.00     0.043 A 
HETATM   16  C   UNK N   1      33.880  17.181   9.022  0.00  0.00     0.014 A 
HETATM   17  C   UNK N   1      34.196  16.609   6.255  0.00  0.00     0.030 A 
HETATM   18  C   UNK N   1      36.585  12.240  14.447  0.00  0.00     0.153 C 
HETATM   19  C   UNK N   1      33.333  18.039   8.051  0.00  0.00     0.001 A 
HETATM   20  C   UNK N   1      33.488  17.753   6.673  0.00  0.00     0.002 A 
HETATM   21  H   UNK N   1      35.672  14.215   6.202  0.00  0.00     0.166 HD
ENDROOT
BRANCH   7  22
HETATM   22  C   UNK N   1      37.771  12.808   7.880  0.00  0.00    -0.027 A 
HETATM   23  C   UNK N   1      38.698  13.876   7.859  0.00  0.00     0.049 A 
HETATM   24  C   UNK N   1      39.819  13.747   7.042  0.00  0.00     0.105 A 
HETATM   25  O   UNK N   1      40.783  14.636   6.817  0.00  0.00    -0.323 OA
HETATM   26  C   UNK N   1      40.056  12.646   6.322  0.00  0.00     0.105 A 
HETATM   27  C   UNK N   1      41.687  14.084   5.902  0.00  0.00     0.352 A 
HETATM   28  O   UNK N   1      41.180  12.810   5.627  0.00  0.00    -0.323 OA
HETATM   29  C   UNK N   1      39.200  11.548   6.335  0.00  0.00     0.040 A 
HETATM   30  C   UNK N   1      38.034  11.640   7.118  0.00  0.00     0.012 A 
ENDBRANCH   7  22
TORSDOF 1
ENDMDL
MODEL 9
REMARK VINA RESULT:      -7.4      5.332      8.451
REMARK  1 active torsions:
REMARK  status: ('A' for Active; 'I' for Inactive)
REMARK    1  A    between atoms: C_9  and  C_16 
ROOT
HETATM    1  O   UNK N   1      34.185  14.936  11.267  0.00  0.00    -0.271 OA
HETATM    2  O   UNK N   1      35.179  13.578   6.269  0.00  0.00    -0.271 OA
HETATM    3  N   UNK N   1      33.617  14.341   7.722  0.00  0.00    -0.323 N 
HETATM    4  N   UNK N   1      30.368  15.776   6.400  0.00  0.00    -0.356 N 
HETATM    5  N   UNK N   1      35.659  14.216   9.752  0.00  0.00    -0.346 N 
HETATM    6  C   UNK N   1      33.300  14.753   9.098  0.00  0.00     0.185 A 
HETATM    7  C   UNK N   1      32.490  14.374   6.736  0.00  0.00     0.172 C 
HETATM    8  C   UNK N   1      32.812  16.213   9.099  0.00  0.00     0.076 C 
HETATM    9  C   UNK N   1      31.512  15.480   7.068  0.00  0.00     0.045 A 
HETATM   10  C   UNK N   1      31.681  16.321   8.144  0.00  0.00    -0.018 A 
HETATM   11  C   UNK N   1      34.418  14.639  10.103  0.00  0.00     0.243 A 
HETATM   12  C   UNK N   1      30.615  17.176   8.141  0.00  0.00    -0.001 A 
HETATM   13  C   UNK N   1      34.894  13.922   7.398  0.00  0.00     0.239 A 
HETATM   14  C   UNK N   1      36.002  13.851   8.405  0.00  0.00     0.228 A 
HETATM   15  C   UNK N   1      29.833  16.822   7.070  0.00  0.00     0.043 A 
HETATM   16  C   UNK N   1      30.271  18.220   8.997  0.00  0.00     0.014 A 
HETATM   17  C   UNK N   1      28.648  17.492   6.779  0.00  0.00     0.030 A 
HETATM   18  C   UNK N   1      36.696  14.118  10.749  0.00  0.00     0.153 C 
HETATM   19  C   UNK N   1      29.081  18.918   8.727  0.00  0.00     0.001 A 
HETATM   20  C   UNK N   1      28.272  18.555   7.624  0.00  0.00     0.002 A 
HETATM   21  H   UNK N   1      30.006  15.328   5.601  0.00  0.00     0.166 HD
ENDROOT
BRANCH   7  22
HETATM   22  C   UNK N   1      32.859  14.354   5.265  0.00  0.00    -0.027 A 
HETATM   23  C   UNK N   1      32.789  13.140   4.544  0.00  0.00     0.049 A 
HETATM   24  C   UNK N   1      33.230  13.142   3.223  0.00  0.00     0.105 A 
HETATM   25  O   UNK N   1      33.315  12.117   2.378  0.00  0.00    -0.323 OA
HETATM   26  C   UNK N   1      33.673  14.250   2.619  0.00  0.00     0.105 A 
HETATM   27  C   UNK N   1      33.842  12.583   1.169  0.00  0.00     0.352 A 
HETATM   28  O   UNK N   1      34.043  13.953   1.374  0.00  0.00    -0.323 OA
HETATM   29  C   UNK N   1      33.727  15.481   3.266  0.00  0.00     0.040 A 
HETATM   30  C   UNK N   1      33.325  15.527   4.614  0.00  0.00     0.012 A 
ENDBRANCH   7  22
TORSDOF 1
ENDMDL
