MODEL 1
REMARK VINA RESULT:      -7.5      0.000      0.000
REMARK  4 active torsions:
REMARK  status: ('A' for Active; 'I' for Inactive)
REMARK    1  A    between atoms: C_16  and  O_4 
REMARK    2  A    between atoms: O_6  and  C_26 
REMARK    3  A    between atoms: C_11  and  C_22 
REMARK    4  A    between atoms: C_22  and  C_26 
ROOT
HETATM    1  F   UNK N   1      33.173  13.247   7.507  0.00  0.00    -0.245 F 
HETATM    2  O   UNK N   1      26.771  16.271   6.565  0.00  0.00    -0.334 OA
HETATM    3  O   UNK N   1      26.392  15.121   4.569  0.00  0.00    -0.347 OA
HETATM    4  O   UNK N   1      35.560  16.695  10.276  0.00  0.00    -0.289 OA
HETATM    5  C   UNK N   1      28.925  17.224   5.858  0.00  0.00     0.004 C 
HETATM    6  C   UNK N   1      29.511  15.820   5.856  0.00  0.00     0.004 C 
HETATM    7  C   UNK N   1      31.058  15.857   5.810  0.00  0.00     0.001 C 
HETATM    8  C   UNK N   1      27.438  16.958   5.544  0.00  0.00     0.160 C 
HETATM    9  C   UNK N   1      31.659  17.084   6.604  0.00  0.00     0.035 C 
HETATM   10  C   UNK N   1      27.528  15.917   4.439  0.00  0.00     0.168 C 
HETATM   11  C   UNK N   1      28.812  15.100   4.705  0.00  0.00     0.041 C 
HETATM   12  C   UNK N   1      29.276  17.878   7.221  0.00  0.00     0.045 C 
HETATM   13  C   UNK N   1      30.692  17.473   7.762  0.00  0.00     0.124 C 
HETATM   14  C   UNK N   1      33.154  16.818   6.945  0.00  0.00     0.006 C 
HETATM   15  C   UNK N   1      31.654  14.481   6.180  0.00  0.00     0.047 C 
HETATM   16  C   UNK N   1      29.500  18.086   4.713  0.00  0.00     0.019 C 
HETATM   17  C   UNK N   1      32.381  14.380   7.530  0.00  0.00     0.200 C 
HETATM   18  C   UNK N   1      25.932  15.349   5.886  0.00  0.00     0.159 C 
HETATM   19  C   UNK N   1      33.221  15.594   7.852  0.00  0.00    -0.030 C 
HETATM   20  C   UNK N   1      33.911  16.512   5.654  0.00  0.00     0.025 C 
HETATM   21  C   UNK N   1      33.845  18.051   7.507  0.00  0.00    -0.008 C 
HETATM   22  C   UNK N   1      24.510  15.885   5.833  0.00  0.00     0.078 C 
HETATM   23  C   UNK N   1      25.928  14.034   6.641  0.00  0.00     0.078 C 
HETATM   24  C   UNK N   1      33.974  15.584   8.964  0.00  0.00     0.061 C 
HETATM   25  C   UNK N   1      34.604  18.016   8.609  0.00  0.00     0.052 C 
HETATM   26  C   UNK N   1      34.773  16.760   9.346  0.00  0.00     0.172 C 
ENDROOT
BRANCH   8  27
HETATM   27  C   UNK N   1      26.669  18.239   5.221  0.00  0.00     0.188 C 
HETATM   28  O   UNK N   1      26.519  19.081   6.091  0.00  0.00    -0.292 OA
BRANCH  27  29
HETATM   29  C   UNK N   1      26.157  18.523   3.840  0.00  0.00     0.245 C 
BRANCH  29  30
HETATM   30  O   UNK N   1      26.567  19.788   3.419  0.00  0.00    -0.393 OA
HETATM   31  H   UNK N   1      26.249  20.608   3.827  0.00  0.00     0.209 HD
ENDBRANCH  29  30
ENDBRANCH  27  29
ENDBRANCH   8  27
BRANCH  13  32
HETATM   32  O   UNK N   1      31.194  18.526   8.528  0.00  0.00    -0.395 OA
HETATM   33  H   UNK N   1      32.145  18.697   8.613  0.00  0.00     0.210 HD
ENDBRANCH  13  32
TORSDOF 4
ENDMDL
MODEL 2
REMARK VINA RESULT:      -7.4      2.776      7.427
REMARK  4 active torsions:
REMARK  status: ('A' for Active; 'I' for Inactive)
REMARK    1  A    between atoms: C_16  and  O_4 
REMARK    2  A    between atoms: O_6  and  C_26 
REMARK    3  A    between atoms: C_11  and  C_22 
REMARK    4  A    between atoms: C_22  and  C_26 
ROOT
HETATM    1  F   UNK N   1      25.369  15.507   6.954  0.00  0.00    -0.245 F 
HETATM    2  O   UNK N   1      32.493  15.316   7.453  0.00  0.00    -0.334 OA
HETATM    3  O   UNK N   1      32.565  17.214   8.810  0.00  0.00    -0.347 OA
HETATM    4  O   UNK N   1      24.567  13.201   2.563  0.00  0.00    -0.289 OA
HETATM    5  C   UNK N   1      31.209  16.389   5.651  0.00  0.00     0.004 C 
HETATM    6  C   UNK N   1      30.023  16.494   6.598  0.00  0.00     0.004 C 
HETATM    7  C   UNK N   1      28.717  16.809   5.830  0.00  0.00     0.001 C 
HETATM    8  C   UNK N   1      32.408  16.439   6.621  0.00  0.00     0.160 C 
HETATM    9  C   UNK N   1      28.674  16.133   4.402  0.00  0.00     0.035 C 
HETATM   10  C   UNK N   1      31.994  17.541   7.583  0.00  0.00     0.168 C 
HETATM   11  C   UNK N   1      30.451  17.503   7.660  0.00  0.00     0.041 C 
HETATM   12  C   UNK N   1      31.016  15.109   4.795  0.00  0.00     0.045 C 
HETATM   13  C   UNK N   1      29.518  14.824   4.425  0.00  0.00     0.124 C 
HETATM   14  C   UNK N   1      27.207  16.059   3.890  0.00  0.00     0.006 C 
HETATM   15  C   UNK N   1      27.479  16.548   6.715  0.00  0.00     0.047 C 
HETATM   16  C   UNK N   1      31.308  17.617   4.720  0.00  0.00     0.019 C 
HETATM   17  C   UNK N   1      26.598  15.346   6.341  0.00  0.00     0.200 C 
HETATM   18  C   UNK N   1      32.871  15.837   8.718  0.00  0.00     0.159 C 
HETATM   19  C   UNK N   1      26.416  15.177   4.851  0.00  0.00    -0.030 C 
HETATM   20  C   UNK N   1      26.603  17.462   3.906  0.00  0.00     0.025 C 
HETATM   21  C   UNK N   1      27.124  15.627   2.434  0.00  0.00    -0.008 C 
HETATM   22  C   UNK N   1      34.363  15.641   8.934  0.00  0.00     0.078 C 
HETATM   23  C   UNK N   1      32.120  15.092   9.805  0.00  0.00     0.078 C 
HETATM   24  C   UNK N   1      25.592  14.214   4.404  0.00  0.00     0.061 C 
HETATM   25  C   UNK N   1      26.286  14.675   2.007  0.00  0.00     0.052 C 
HETATM   26  C   UNK N   1      25.418  13.979   2.962  0.00  0.00     0.172 C 
ENDROOT
BRANCH   8  27
HETATM   27  C   UNK N   1      33.741  16.623   5.896  0.00  0.00     0.188 C 
HETATM   28  O   UNK N   1      34.286  17.714   5.916  0.00  0.00    -0.292 OA
BRANCH  27  29
HETATM   29  C   UNK N   1      34.436  15.476   5.223  0.00  0.00     0.245 C 
BRANCH  29  30
HETATM   30  O   UNK N   1      35.747  15.363   5.684  0.00  0.00    -0.393 OA
HETATM   31  H   UNK N   1      36.510  15.713   5.197  0.00  0.00     0.209 HD
ENDBRANCH  29  30
ENDBRANCH  27  29
ENDBRANCH   8  27
BRANCH  13  32
HETATM   32  O   UNK N   1      29.481  14.159   3.199  0.00  0.00    -0.395 OA
HETATM   33  H   UNK N   1      28.823  14.366   2.517  0.00  0.00     0.210 HD
ENDBRANCH  13  32
TORSDOF 4
ENDMDL
MODEL 3
REMARK VINA RESULT:      -7.3      4.509      8.620
REMARK  4 active torsions:
REMARK  status: ('A' for Active; 'I' for Inactive)
REMARK    1  A    between atoms: C_16  and  O_4 
REMARK    2  A    between atoms: O_6  and  C_26 
REMARK    3  A    between atoms: C_11  and  C_22 
REMARK    4  A    between atoms: C_22  and  C_26 
ROOT
HETATM    1  F   UNK N   1      20.029  15.658   8.065  0.00  0.00    -0.245 F 
HETATM    2  O   UNK N   1      26.408  17.490   5.424  0.00  0.00    -0.334 OA
HETATM    3  O   UNK N   1      25.509  18.088   3.354  0.00  0.00    -0.347 OA
HETATM    4  O   UNK N   1      21.279  12.280  11.568  0.00  0.00    -0.289 OA
HETATM    5  C   UNK N   1      25.453  15.223   5.426  0.00  0.00     0.004 C 
HETATM    6  C   UNK N   1      24.066  15.840   5.531  0.00  0.00     0.004 C 
HETATM    7  C   UNK N   1      23.012  14.784   5.943  0.00  0.00     0.001 C 
HETATM    8  C   UNK N   1      26.242  16.318   4.676  0.00  0.00     0.160 C 
HETATM    9  C   UNK N   1      23.595  13.700   6.934  0.00  0.00     0.035 C 
HETATM   10  C   UNK N   1      25.254  16.741   3.600  0.00  0.00     0.168 C 
HETATM   11  C   UNK N   1      23.842  16.542   4.194  0.00  0.00     0.041 C 
HETATM   12  C   UNK N   1      25.911  14.848   6.860  0.00  0.00     0.045 C 
HETATM   13  C   UNK N   1      24.745  14.333   7.774  0.00  0.00     0.124 C 
HETATM   14  C   UNK N   1      22.435  12.986   7.687  0.00  0.00     0.006 C 
HETATM   15  C   UNK N   1      21.705  15.462   6.409  0.00  0.00     0.047 C 
HETATM   16  C   UNK N   1      25.451  13.958   4.541  0.00  0.00     0.019 C 
HETATM   17  C   UNK N   1      21.373  15.375   7.907  0.00  0.00     0.200 C 
HETATM   18  C   UNK N   1      26.224  18.540   4.487  0.00  0.00     0.159 C 
HETATM   19  C   UNK N   1      21.697  14.032   8.517  0.00  0.00    -0.030 C 
HETATM   20  C   UNK N   1      21.464  12.401   6.663  0.00  0.00     0.025 C 
HETATM   21  C   UNK N   1      22.917  11.784   8.483  0.00  0.00    -0.008 C 
HETATM   22  C   UNK N   1      27.574  19.081   4.042  0.00  0.00     0.078 C 
HETATM   23  C   UNK N   1      25.444  19.661   5.146  0.00  0.00     0.078 C 
HETATM   24  C   UNK N   1      21.367  13.806   9.799  0.00  0.00     0.061 C 
HETATM   25  C   UNK N   1      22.565  11.570   9.757  0.00  0.00     0.052 C 
HETATM   26  C   UNK N   1      21.704  12.531  10.452  0.00  0.00     0.172 C 
ENDROOT
BRANCH   8  27
HETATM   27  C   UNK N   1      27.611  15.832   4.201  0.00  0.00     0.188 C 
HETATM   28  O   UNK N   1      27.832  15.745   3.004  0.00  0.00    -0.292 OA
BRANCH  27  29
HETATM   29  C   UNK N   1      28.717  15.530   5.167  0.00  0.00     0.245 C 
BRANCH  29  30
HETATM   30  O   UNK N   1      28.875  16.579   6.072  0.00  0.00    -0.393 OA
HETATM   31  H   UNK N   1      29.485  16.539   6.825  0.00  0.00     0.209 HD
ENDBRANCH  29  30
ENDBRANCH  27  29
ENDBRANCH   8  27
BRANCH  13  32
HETATM   32  O   UNK N   1      25.270  13.432   8.701  0.00  0.00    -0.395 OA
HETATM   33  H   UNK N   1      26.106  13.594   9.164  0.00  0.00     0.210 HD
ENDBRANCH  13  32
TORSDOF 4
ENDMDL
MODEL 4
REMARK VINA RESULT:      -7.2      2.427      7.556
REMARK  4 active torsions:
REMARK  status: ('A' for Active; 'I' for Inactive)
REMARK    1  A    between atoms: C_16  and  O_4 
REMARK    2  A    between atoms: O_6  and  C_26 
REMARK    3  A    between atoms: C_11  and  C_22 
REMARK    4  A    between atoms: C_22  and  C_26 
ROOT
HETATM    1  F   UNK N   1      27.812  18.071   8.860  0.00  0.00    -0.245 F 
HETATM    2  O   UNK N   1      33.981  14.508   8.331  0.00  0.00    -0.334 OA
HETATM    3  O   UNK N   1      35.235  16.341   9.049  0.00  0.00    -0.347 OA
HETATM    4  O   UNK N   1      24.935  15.684   5.502  0.00  0.00    -0.289 OA
HETATM    5  C   UNK N   1      32.861  15.716   6.505  0.00  0.00     0.004 C 
HETATM    6  C   UNK N   1      32.143  16.562   7.546  0.00  0.00     0.004 C 
HETATM    7  C   UNK N   1      30.952  17.329   6.921  0.00  0.00     0.001 C 
HETATM    8  C   UNK N   1      34.174  15.350   7.229  0.00  0.00     0.160 C 
HETATM    9  C   UNK N   1      30.236  16.509   5.775  0.00  0.00     0.035 C 
HETATM   10  C   UNK N   1      34.557  16.671   7.878  0.00  0.00     0.168 C 
HETATM   11  C   UNK N   1      33.236  17.410   8.191  0.00  0.00     0.041 C 
HETATM   12  C   UNK N   1      31.907  14.561   6.098  0.00  0.00     0.045 C 
HETATM   13  C   UNK N   1      30.397  14.985   6.054  0.00  0.00     0.124 C 
HETATM   14  C   UNK N   1      28.806  17.070   5.531  0.00  0.00     0.006 C 
HETATM   15  C   UNK N   1      30.014  17.878   8.018  0.00  0.00     0.047 C 
HETATM   16  C   UNK N   1      33.230  16.540   5.253  0.00  0.00     0.019 C 
HETATM   17  C   UNK N   1      28.632  17.217   8.145  0.00  0.00     0.200 C 
HETATM   18  C   UNK N   1      34.873  15.001   9.318  0.00  0.00     0.159 C 
HETATM   19  C   UNK N   1      28.001  16.885   6.813  0.00  0.00    -0.030 C 
HETATM   20  C   UNK N   1      28.903  18.564   5.226  0.00  0.00     0.025 C 
HETATM   21  C   UNK N   1      28.154  16.472   4.293  0.00  0.00    -0.008 C 
HETATM   22  C   UNK N   1      36.128  14.143   9.358  0.00  0.00     0.078 C 
HETATM   23  C   UNK N   1      34.197  14.937  10.674  0.00  0.00     0.078 C 
HETATM   24  C   UNK N   1      26.754  16.386   6.794  0.00  0.00     0.061 C 
HETATM   25  C   UNK N   1      26.905  15.993   4.292  0.00  0.00     0.052 C 
HETATM   26  C   UNK N   1      26.113  16.003   5.526  0.00  0.00     0.172 C 
ENDROOT
BRANCH   8  27
HETATM   27  C   UNK N   1      35.203  14.719   6.293  0.00  0.00     0.188 C 
HETATM   28  O   UNK N   1      36.244  15.312   6.062  0.00  0.00    -0.292 OA
BRANCH  27  29
HETATM   29  C   UNK N   1      35.002  13.353   5.709  0.00  0.00     0.245 C 
BRANCH  29  30
HETATM   30  O   UNK N   1      34.760  12.421   6.718  0.00  0.00    -0.393 OA
HETATM   31  H   UNK N   1      35.104  11.514   6.692  0.00  0.00     0.209 HD
ENDBRANCH  29  30
ENDBRANCH  27  29
ENDBRANCH   8  27
BRANCH  13  32
HETATM   32  O   UNK N   1      29.745  14.209   5.095  0.00  0.00    -0.395 OA
HETATM   33  H   UNK N   1      29.800  14.403   4.147  0.00  0.00     0.210 HD
ENDBRANCH  13  32
TORSDOF 4
ENDMDL
MODEL 5
REMARK VINA RESULT:      -7.2      3.385      8.566
REMARK  4 active torsions:
REMARK  status: ('A' for Active; 'I' for Inactive)
REMARK    1  A    between atoms: C_16  and  O_4 
REMARK    2  A    between atoms: O_6  and  C_26 
REMARK    3  A    between atoms: C_11  and  C_22 
REMARK    4  A    between atoms: C_22  and  C_26 
ROOT
HETATM    1  F   UNK N   1      31.706  18.697   8.830  0.00  0.00    -0.245 F 
HETATM    2  O   UNK N   1      35.068  12.655  10.624  0.00  0.00    -0.334 OA
HETATM    3  O   UNK N   1      36.973  13.793  11.348  0.00  0.00    -0.347 OA
HETATM    4  O   UNK N   1      28.555  17.116   5.250  0.00  0.00    -0.289 OA
HETATM    5  C   UNK N   1      35.046  13.675   8.386  0.00  0.00     0.004 C 
HETATM    6  C   UNK N   1      34.734  15.015   9.033  0.00  0.00     0.004 C 
HETATM    7  C   UNK N   1      34.236  16.042   7.986  0.00  0.00     0.001 C 
HETATM    8  C   UNK N   1      35.841  12.954   9.496  0.00  0.00     0.160 C 
HETATM    9  C   UNK N   1      33.381  15.372   6.838  0.00  0.00     0.035 C 
HETATM   10  C   UNK N   1      36.759  14.057   9.998  0.00  0.00     0.168 C 
HETATM   11  C   UNK N   1      35.996  15.388   9.807  0.00  0.00     0.041 C 
HETATM   12  C   UNK N   1      33.703  13.048   7.928  0.00  0.00     0.045 C 
HETATM   13  C   UNK N   1      32.669  14.104   7.399  0.00  0.00     0.124 C 
HETATM   14  C   UNK N   1      32.517  16.448   6.119  0.00  0.00     0.006 C 
HETATM   15  C   UNK N   1      33.574  17.255   8.674  0.00  0.00     0.047 C 
HETATM   16  C   UNK N   1      35.981  13.832   7.167  0.00  0.00     0.019 C 
HETATM   17  C   UNK N   1      32.052  17.394   8.521  0.00  0.00     0.200 C 
HETATM   18  C   UNK N   1      35.923  12.924  11.724  0.00  0.00     0.159 C 
HETATM   19  C   UNK N   1      31.551  17.038   7.141  0.00  0.00    -0.030 C 
HETATM   20  C   UNK N   1      33.432  17.560   5.611  0.00  0.00     0.025 C 
HETATM   21  C   UNK N   1      31.847  15.906   4.866  0.00  0.00    -0.008 C 
HETATM   22  C   UNK N   1      36.514  11.626  12.251  0.00  0.00     0.078 C 
HETATM   23  C   UNK N   1      35.118  13.576  12.831  0.00  0.00     0.078 C 
HETATM   24  C   UNK N   1      30.248  17.207   6.860  0.00  0.00     0.061 C 
HETATM   25  C   UNK N   1      30.550  16.098   4.598  0.00  0.00     0.052 C 
HETATM   26  C   UNK N   1      29.705  16.831   5.546  0.00  0.00     0.172 C 
ENDROOT
BRANCH   8  27
HETATM   27  C   UNK N   1      36.512  11.674   8.999  0.00  0.00     0.188 C 
HETATM   28  O   UNK N   1      37.730  11.614   8.961  0.00  0.00    -0.292 OA
BRANCH  27  29
HETATM   29  C   UNK N   1      35.714  10.460   8.626  0.00  0.00     0.245 C 
BRANCH  29  30
HETATM   30  O   UNK N   1      34.827  10.126   9.649  0.00  0.00    -0.393 OA
HETATM   31  H   UNK N   1      34.067   9.538   9.518  0.00  0.00     0.209 HD
ENDBRANCH  29  30
ENDBRANCH  27  29
ENDBRANCH   8  27
BRANCH  13  32
HETATM   32  O   UNK N   1      31.862  13.493   6.439  0.00  0.00    -0.395 OA
HETATM   33  H   UNK N   1      31.739  12.532   6.400  0.00  0.00     0.210 HD
ENDBRANCH  13  32
TORSDOF 4
ENDMDL
MODEL 6
REMARK VINA RESULT:      -7.2      3.260      5.324
REMARK  4 active torsions:
REMARK  status: ('A' for Active; 'I' for Inactive)
REMARK    1  A    between atoms: C_16  and  O_4 
REMARK    2  A    between atoms: O_6  and  C_26 
REMARK    3  A    between atoms: C_11  and  C_22 
REMARK    4  A    between atoms: C_22  and  C_26 
ROOT
HETATM    1  F   UNK N   1      36.658  10.880   9.343  0.00  0.00    -0.245 F 
HETATM    2  O   UNK N   1      31.398  14.463   6.098  0.00  0.00    -0.334 OA
HETATM    3  O   UNK N   1      32.524  14.495   4.053  0.00  0.00    -0.347 OA
HETATM    4  O   UNK N   1      36.081  12.288  14.132  0.00  0.00    -0.289 OA
HETATM    5  C   UNK N   1      33.244  15.469   7.376  0.00  0.00     0.004 C 
HETATM    6  C   UNK N   1      34.063  14.212   7.123  0.00  0.00     0.004 C 
HETATM    7  C   UNK N   1      35.293  14.146   8.062  0.00  0.00     0.001 C 
HETATM    8  C   UNK N   1      32.323  15.513   6.137  0.00  0.00     0.160 C 
HETATM    9  C   UNK N   1      35.001  14.762   9.488  0.00  0.00     0.035 C 
HETATM   10  C   UNK N   1      33.285  15.158   5.014  0.00  0.00     0.168 C 
HETATM   11  C   UNK N   1      34.350  14.219   5.624  0.00  0.00     0.041 C 
HETATM   12  C   UNK N   1      32.580  15.326   8.772  0.00  0.00     0.045 C 
HETATM   13  C   UNK N   1      33.488  14.595   9.822  0.00  0.00     0.124 C 
HETATM   14  C   UNK N   1      36.047  14.245  10.517  0.00  0.00     0.006 C 
HETATM   15  C   UNK N   1      35.902  12.727   8.074  0.00  0.00     0.047 C 
HETATM   16  C   UNK N   1      34.121  16.738   7.353  0.00  0.00     0.019 C 
HETATM   17  C   UNK N   1      35.734  11.909   9.364  0.00  0.00     0.200 C 
HETATM   18  C   UNK N   1      31.360  14.071   4.734  0.00  0.00     0.159 C 
HETATM   19  C   UNK N   1      35.899  12.731  10.621  0.00  0.00    -0.030 C 
HETATM   20  C   UNK N   1      37.449  14.565  10.003  0.00  0.00     0.025 C 
HETATM   21  C   UNK N   1      35.956  14.974  11.849  0.00  0.00    -0.008 C 
HETATM   22  C   UNK N   1      30.139  14.672   4.056  0.00  0.00     0.078 C 
HETATM   23  C   UNK N   1      31.266  12.560   4.655  0.00  0.00     0.078 C 
HETATM   24  C   UNK N   1      35.863  12.108  11.811  0.00  0.00     0.061 C 
HETATM   25  C   UNK N   1      35.937  14.335  13.024  0.00  0.00     0.052 C 
HETATM   26  C   UNK N   1      35.973  12.870  13.065  0.00  0.00     0.172 C 
ENDROOT
BRANCH   8  27
HETATM   27  C   UNK N   1      31.576  16.840   6.010  0.00  0.00     0.188 C 
HETATM   28  O   UNK N   1      31.809  17.568   5.058  0.00  0.00    -0.292 OA
BRANCH  27  29
HETATM   29  C   UNK N   1      30.509  17.239   6.985  0.00  0.00     0.245 C 
BRANCH  29  30
HETATM   30  O   UNK N   1      29.349  16.494   6.769  0.00  0.00    -0.393 OA
HETATM   31  H   UNK N   1      29.348  15.642   6.306  0.00  0.00     0.209 HD
ENDBRANCH  29  30
ENDBRANCH  27  29
ENDBRANCH   8  27
BRANCH  13  32
HETATM   32  O   UNK N   1      33.179  15.083  11.093  0.00  0.00    -0.395 OA
HETATM   33  H   UNK N   1      32.789  14.523  11.782  0.00  0.00     0.210 HD
ENDBRANCH  13  32
TORSDOF 4
ENDMDL
MODEL 7
REMARK VINA RESULT:      -7.1     11.856     14.418
REMARK  4 active torsions:
REMARK  status: ('A' for Active; 'I' for Inactive)
REMARK    1  A    between atoms: C_16  and  O_4 
REMARK    2  A    between atoms: O_6  and  C_26 
REMARK    3  A    between atoms: C_11  and  C_22 
REMARK    4  A    between atoms: C_22  and  C_26 
ROOT
HETATM    1  F   UNK N   1      32.065  21.987  -8.236  0.00  0.00    -0.245 F 
HETATM    2  O   UNK N   1      26.504  25.505  -5.457  0.00  0.00    -0.334 OA
HETATM    3  O   UNK N   1      26.895  27.395  -6.769  0.00  0.00    -0.347 OA
HETATM    4  O   UNK N   1      33.260  18.819  -4.523  0.00  0.00    -0.289 OA
HETATM    5  C   UNK N   1      28.773  25.428  -4.509  0.00  0.00     0.004 C 
HETATM    6  C   UNK N   1      29.307  25.096  -5.894  0.00  0.00     0.004 C 
HETATM    7  C   UNK N   1      30.759  24.561  -5.821  0.00  0.00     0.001 C 
HETATM    8  C   UNK N   1      27.511  26.254  -4.835  0.00  0.00     0.160 C 
HETATM    9  C   UNK N   1      31.026  23.703  -4.521  0.00  0.00     0.035 C 
HETATM   10  C   UNK N   1      28.002  27.155  -5.958  0.00  0.00     0.168 C 
HETATM   11  C   UNK N   1      29.087  26.361  -6.719  0.00  0.00     0.041 C 
HETATM   12  C   UNK N   1      28.590  24.091  -3.741  0.00  0.00     0.045 C 
HETATM   13  C   UNK N   1      29.697  23.028  -4.067  0.00  0.00     0.124 C 
HETATM   14  C   UNK N   1      32.281  22.807  -4.722  0.00  0.00     0.006 C 
HETATM   15  C   UNK N   1      31.163  23.883  -7.148  0.00  0.00     0.047 C 
HETATM   16  C   UNK N   1      29.741  26.341  -3.726  0.00  0.00     0.019 C 
HETATM   17  C   UNK N   1      31.330  22.355  -7.125  0.00  0.00     0.200 C 
HETATM   18  C   UNK N   1      25.976  26.370  -6.449  0.00  0.00     0.159 C 
HETATM   19  C   UNK N   1      31.995  21.843  -5.869  0.00  0.00    -0.030 C 
HETATM   20  C   UNK N   1      33.466  23.689  -5.110  0.00  0.00     0.025 C 
HETATM   21  C   UNK N   1      32.719  22.129  -3.432  0.00  0.00    -0.008 C 
HETATM   22  C   UNK N   1      24.682  26.996  -5.955  0.00  0.00     0.078 C 
HETATM   23  C   UNK N   1      25.680  25.566  -7.701  0.00  0.00     0.078 C 
HETATM   24  C   UNK N   1      32.275  20.533  -5.773  0.00  0.00     0.061 C 
HETATM   25  C   UNK N   1      33.008  20.825  -3.361  0.00  0.00     0.052 C 
HETATM   26  C   UNK N   1      32.879  19.978  -4.551  0.00  0.00     0.172 C 
ENDROOT
BRANCH   8  27
HETATM   27  C   UNK N   1      26.928  26.946  -3.603  0.00  0.00     0.188 C 
HETATM   28  O   UNK N   1      26.349  26.278  -2.761  0.00  0.00    -0.292 OA
BRANCH  27  29
HETATM   29  C   UNK N   1      27.112  28.414  -3.364  0.00  0.00     0.245 C 
BRANCH  29  30
HETATM   30  O   UNK N   1      25.876  29.057  -3.297  0.00  0.00    -0.393 OA
HETATM   31  H   UNK N   1      25.785  30.021  -3.235  0.00  0.00     0.209 HD
ENDBRANCH  29  30
ENDBRANCH  27  29
ENDBRANCH   8  27
BRANCH  13  32
HETATM   32  O   UNK N   1      29.881  22.220  -2.945  0.00  0.00    -0.395 OA
HETATM   33  H   UNK N   1      29.570  21.302  -2.911  0.00  0.00     0.210 HD
ENDBRANCH  13  32
TORSDOF 4
ENDMDL
MODEL 8
REMARK VINA RESULT:      -6.8      4.599      7.247
REMARK  4 active torsions:
REMARK  status: ('A' for Active; 'I' for Inactive)
REMARK    1  A    between atoms: C_16  and  O_4 
REMARK    2  A    between atoms: O_6  and  C_26 
REMARK    3  A    between atoms: C_11  and  C_22 
REMARK    4  A    between atoms: C_22  and  C_26 
ROOT
HETATM    1  F   UNK N   1      29.120  16.448   5.894  0.00  0.00    -0.245 F 
HETATM    2  O   UNK N   1      23.213  13.479   8.599  0.00  0.00    -0.334 OA
HETATM    3  O   UNK N   1      24.027  11.311   8.305  0.00  0.00    -0.347 OA
HETATM    4  O   UNK N   1      27.383  20.827   4.148  0.00  0.00    -0.289 OA
HETATM    5  C   UNK N   1      23.537  14.150   6.255  0.00  0.00     0.004 C 
HETATM    6  C   UNK N   1      25.040  14.042   6.464  0.00  0.00     0.004 C 
HETATM    7  C   UNK N   1      25.817  14.737   5.319  0.00  0.00     0.001 C 
HETATM    8  C   UNK N   1      22.992  13.118   7.264  0.00  0.00     0.160 C 
HETATM    9  C   UNK N   1      25.072  16.019   4.771  0.00  0.00     0.035 C 
HETATM   10  C   UNK N   1      23.944  11.949   7.069  0.00  0.00     0.168 C 
HETATM   11  C   UNK N   1      25.307  12.552   6.662  0.00  0.00     0.041 C 
HETATM   12  C   UNK N   1      23.141  15.638   6.449  0.00  0.00     0.045 C 
HETATM   13  C   UNK N   1      24.218  16.646   5.913  0.00  0.00     0.124 C 
HETATM   14  C   UNK N   1      26.074  16.933   4.008  0.00  0.00     0.006 C 
HETATM   15  C   UNK N   1      27.295  14.955   5.709  0.00  0.00     0.047 C 
HETATM   16  C   UNK N   1      23.121  13.689   4.842  0.00  0.00     0.019 C 
HETATM   17  C   UNK N   1      27.740  16.403   5.965  0.00  0.00     0.200 C 
HETATM   18  C   UNK N   1      23.571  12.266   9.242  0.00  0.00     0.159 C 
HETATM   19  C   UNK N   1      27.138  17.396   4.998  0.00  0.00    -0.030 C 
HETATM   20  C   UNK N   1      26.751  16.118   2.908  0.00  0.00     0.025 C 
HETATM   21  C   UNK N   1      25.376  18.063   3.268  0.00  0.00    -0.008 C 
HETATM   22  C   UNK N   1      22.373  11.701   9.988  0.00  0.00     0.078 C 
HETATM   23  C   UNK N   1      24.679  12.543  10.241  0.00  0.00     0.078 C 
HETATM   24  C   UNK N   1      27.523  18.682   5.066  0.00  0.00     0.061 C 
HETATM   25  C   UNK N   1      25.784  19.336   3.338  0.00  0.00     0.052 C 
HETATM   26  C   UNK N   1      26.931  19.694   4.178  0.00  0.00     0.172 C 
ENDROOT
BRANCH   8  27
HETATM   27  C   UNK N   1      21.503  12.834   7.066  0.00  0.00     0.188 C 
HETATM   28  O   UNK N   1      21.145  11.706   6.769  0.00  0.00    -0.292 OA
BRANCH  27  29
HETATM   29  C   UNK N   1      20.463  13.889   7.298  0.00  0.00     0.245 C 
BRANCH  29  30
HETATM   30  O   UNK N   1      20.171  13.994   8.658  0.00  0.00    -0.393 OA
HETATM   31  H   UNK N   1      20.194  14.837   9.138  0.00  0.00     0.209 HD
ENDBRANCH  29  30
ENDBRANCH  27  29
ENDBRANCH   8  27
BRANCH  13  32
HETATM   32  O   UNK N   1      23.570  17.810   5.498  0.00  0.00    -0.395 OA
HETATM   33  H   UNK N   1      23.463  18.579   6.079  0.00  0.00     0.210 HD
ENDBRANCH  13  32
TORSDOF 4
ENDMDL
MODEL 9
REMARK VINA RESULT:      -6.8      4.051      9.457
REMARK  4 active torsions:
REMARK  status: ('A' for Active; 'I' for Inactive)
REMARK    1  A    between atoms: C_16  and  O_4 
REMARK    2  A    between atoms: O_6  and  C_26 
REMARK    3  A    between atoms: C_11  and  C_22 
REMARK    4  A    between atoms: C_22  and  C_26 
ROOT
HETATM    1  F   UNK N   1      21.050  18.674   6.577  0.00  0.00    -0.245 F 
HETATM    2  O   UNK N   1      27.511  15.763   5.677  0.00  0.00    -0.334 OA
HETATM    3  O   UNK N   1      28.514  17.831   5.271  0.00  0.00    -0.347 OA
HETATM    4  O   UNK N   1      18.008  14.877   5.321  0.00  0.00    -0.289 OA
HETATM    5  C   UNK N   1      25.793  16.011   3.934  0.00  0.00     0.004 C 
HETATM    6  C   UNK N   1      25.179  17.144   4.743  0.00  0.00     0.004 C 
HETATM    7  C   UNK N   1      23.752  17.479   4.245  0.00  0.00     0.001 C 
HETATM    8  C   UNK N   1      27.282  16.092   4.336  0.00  0.00     0.160 C 
HETATM    9  C   UNK N   1      22.969  16.201   3.743  0.00  0.00     0.035 C 
HETATM   10  C   UNK N   1      27.537  17.591   4.307  0.00  0.00     0.168 C 
HETATM   11  C   UNK N   1      26.204  18.274   4.685  0.00  0.00     0.041 C 
HETATM   12  C   UNK N   1      25.016  14.713   4.277  0.00  0.00     0.045 C 
HETATM   13  C   UNK N   1      23.482  14.947   4.512  0.00  0.00     0.124 C 
HETATM   14  C   UNK N   1      21.439  16.485   3.726  0.00  0.00     0.006 C 
HETATM   15  C   UNK N   1      22.998  18.346   5.277  0.00  0.00     0.047 C 
HETATM   16  C   UNK N   1      25.703  16.277   2.416  0.00  0.00     0.019 C 
HETATM   17  C   UNK N   1      21.837  17.678   6.030  0.00  0.00     0.200 C 
HETATM   18  C   UNK N   1      28.490  16.695   6.111  0.00  0.00     0.159 C 
HETATM   19  C   UNK N   1      20.997  16.774   5.157  0.00  0.00    -0.030 C 
HETATM   20  C   UNK N   1      21.173  17.724   2.874  0.00  0.00     0.025 C 
HETATM   21  C   UNK N   1      20.654  15.377   3.042  0.00  0.00    -0.008 C 
HETATM   22  C   UNK N   1      29.863  16.042   6.108  0.00  0.00     0.078 C 
HETATM   23  C   UNK N   1      28.163  17.135   7.525  0.00  0.00     0.078 C 
HETATM   24  C   UNK N   1      19.900  16.204   5.683  0.00  0.00     0.061 C 
HETATM   25  C   UNK N   1      19.554  14.833   3.575  0.00  0.00     0.052 C 
HETATM   26  C   UNK N   1      19.076  15.279   4.888  0.00  0.00     0.172 C 
ENDROOT
BRANCH   8  27
HETATM   27  C   UNK N   1      28.175  15.224   3.450  0.00  0.00     0.188 C 
HETATM   28  O   UNK N   1      28.991  15.760   2.717  0.00  0.00    -0.292 OA
BRANCH  27  29
HETATM   29  C   UNK N   1      28.129  13.727   3.513  0.00  0.00     0.245 C 
BRANCH  29  30
HETATM   30  O   UNK N   1      28.219  13.291   4.835  0.00  0.00    -0.393 OA
HETATM   31  H   UNK N   1      27.610  13.587   5.530  0.00  0.00     0.209 HD
ENDBRANCH  29  30
ENDBRANCH  27  29
ENDBRANCH   8  27
BRANCH  13  32
HETATM   32  O   UNK N   1      22.794  13.792   4.140  0.00  0.00    -0.395 OA
HETATM   33  H   UNK N   1      23.167  13.142   3.524  0.00  0.00     0.210 HD
ENDBRANCH  13  32
TORSDOF 4
ENDMDL
