MODEL 1
REMARK VINA RESULT:      -6.6      0.000      0.000
REMARK  3 active torsions:
REMARK  status: ('A' for Active; 'I' for Inactive)
REMARK    1  A    between atoms: O_2  and  C_18 
REMARK    2  A    between atoms: C_8  and  C_10 
REMARK    3  A    between atoms: C_10  and  C_18 
ROOT
HETATM    1 Cl   UNK N   1      36.113   9.428  13.244  0.00  0.00    -0.084 Cl
HETATM    2  N   UNK N   1      36.015  15.255  12.528  0.00  0.00    -0.355 N 
HETATM    3  C   UNK N   1      34.914  13.999  11.016  0.00  0.00     0.003 A 
HETATM    4  C   UNK N   1      35.259  15.273  11.404  0.00  0.00     0.044 A 
HETATM    5  C   UNK N   1      35.470  13.153  11.925  0.00  0.00     0.005 A 
HETATM    6  C   UNK N   1      34.047  16.167   9.518  0.00  0.00    -0.042 A 
HETATM    7  C   UNK N   1      36.136  13.939  12.836  0.00  0.00     0.043 A 
HETATM    8  C   UNK N   1      34.840  16.389  10.674  0.00  0.00     0.038 A 
HETATM    9  C   UNK N   1      34.143  13.742   9.897  0.00  0.00     0.015 A 
HETATM   10  C   UNK N   1      33.710  14.842   9.147  0.00  0.00     0.009 A 
HETATM   11  C   UNK N   1      35.440  11.767  12.016  0.00  0.00     0.038 A 
HETATM   12  C   UNK N   1      36.822  13.377  13.910  0.00  0.00     0.032 A 
HETATM   13  C   UNK N   1      36.122  11.171  13.087  0.00  0.00     0.035 A 
HETATM   14  C   UNK N   1      36.811  11.971  14.031  0.00  0.00     0.026 A 
HETATM   15  H   UNK N   1      36.392  16.024  13.013  0.00  0.00     0.166 HD
ENDROOT
BRANCH   6  16
HETATM   16  C   UNK N   1      33.558  17.326   8.678  0.00  0.00     0.112 C 
HETATM   17  C   UNK N   1      32.071  17.651   8.642  0.00  0.00     0.026 C 
BRANCH  16  18
HETATM   18  C   UNK N   1      34.493  18.191   7.859  0.00  0.00     0.148 C 
HETATM   19  O   UNK N   1      34.593  18.040   6.652  0.00  0.00    -0.649 OA
BRANCH  18  20
HETATM   20  O   UNK N   1      35.228  19.143   8.463  0.00  0.00    -0.776 OA
HETATM   21  H   UNK N   1      34.945  20.036   8.444  0.00  0.00     0.167 HD
ENDBRANCH  18  20
ENDBRANCH  16  18
ENDBRANCH   6  16
TORSDOF 3
ENDMDL
MODEL 2
REMARK VINA RESULT:      -6.6      4.086      6.619
REMARK  3 active torsions:
REMARK  status: ('A' for Active; 'I' for Inactive)
REMARK    1  A    between atoms: O_2  and  C_18 
REMARK    2  A    between atoms: C_8  and  C_10 
REMARK    3  A    between atoms: C_10  and  C_18 
ROOT
HETATM    1 Cl   UNK N   1      34.074  15.896   5.041  0.00  0.00    -0.084 Cl
HETATM    2  N   UNK N   1      35.096  16.825  10.749  0.00  0.00    -0.355 N 
HETATM    3  C   UNK N   1      35.468  14.753   9.945  0.00  0.00     0.003 A 
HETATM    4  C   UNK N   1      35.499  15.567  11.054  0.00  0.00     0.044 A 
HETATM    5  C   UNK N   1      35.034  15.523   8.911  0.00  0.00     0.005 A 
HETATM    6  C   UNK N   1      36.287  13.716  12.384  0.00  0.00    -0.042 A 
HETATM    7  C   UNK N   1      34.813  16.780   9.422  0.00  0.00     0.043 A 
HETATM    8  C   UNK N   1      35.905  15.079  12.298  0.00  0.00     0.038 A 
HETATM    9  C   UNK N   1      35.832  13.420   9.989  0.00  0.00     0.015 A 
HETATM   10  C   UNK N   1      36.244  12.905  11.223  0.00  0.00     0.009 A 
HETATM   11  C   UNK N   1      34.819  15.212   7.573  0.00  0.00     0.038 A 
HETATM   12  C   UNK N   1      34.358  17.818   8.615  0.00  0.00     0.032 A 
HETATM   13  C   UNK N   1      34.359  16.238   6.734  0.00  0.00     0.035 A 
HETATM   14  C   UNK N   1      34.129  17.536   7.250  0.00  0.00     0.026 A 
HETATM   15  H   UNK N   1      35.025  17.599  11.353  0.00  0.00     0.166 HD
ENDROOT
BRANCH   6  16
HETATM   16  C   UNK N   1      36.738  13.116  13.698  0.00  0.00     0.112 C 
HETATM   17  C   UNK N   1      37.379  11.735  13.712  0.00  0.00     0.026 C 
BRANCH  16  18
HETATM   18  C   UNK N   1      36.580  13.838  15.020  0.00  0.00     0.148 C 
HETATM   19  O   UNK N   1      35.556  13.734  15.674  0.00  0.00    -0.649 OA
BRANCH  18  20
HETATM   20  O   UNK N   1      37.580  14.609  15.488  0.00  0.00    -0.776 OA
HETATM   21  H   UNK N   1      37.421  15.509  15.693  0.00  0.00     0.167 HD
ENDBRANCH  18  20
ENDBRANCH  16  18
ENDBRANCH   6  16
TORSDOF 3
ENDMDL
MODEL 3
REMARK VINA RESULT:      -6.6     11.160     14.120
REMARK  3 active torsions:
REMARK  status: ('A' for Active; 'I' for Inactive)
REMARK    1  A    between atoms: O_2  and  C_18 
REMARK    2  A    between atoms: C_8  and  C_10 
REMARK    3  A    between atoms: C_10  and  C_18 
ROOT
HETATM    1 Cl   UNK N   1      28.635  17.094   6.967  0.00  0.00    -0.084 Cl
HETATM    2  N   UNK N   1      25.718  20.588   3.256  0.00  0.00    -0.355 N 
HETATM    3  C   UNK N   1      24.568  18.921   4.243  0.00  0.00     0.003 A 
HETATM    4  C   UNK N   1      24.511  19.983   3.371  0.00  0.00     0.044 A 
HETATM    5  C   UNK N   1      25.851  18.856   4.691  0.00  0.00     0.005 A 
HETATM    6  C   UNK N   1      22.167  19.546   3.001  0.00  0.00    -0.042 A 
HETATM    7  C   UNK N   1      26.534  19.879   4.078  0.00  0.00     0.043 A 
HETATM    8  C   UNK N   1      23.319  20.327   2.727  0.00  0.00     0.038 A 
HETATM    9  C   UNK N   1      23.468  18.137   4.536  0.00  0.00     0.015 A 
HETATM   10  C   UNK N   1      22.260  18.459   3.905  0.00  0.00     0.009 A 
HETATM   11  C   UNK N   1      26.460  17.981   5.583  0.00  0.00     0.038 A 
HETATM   12  C   UNK N   1      27.887  20.093   4.323  0.00  0.00     0.032 A 
HETATM   13  C   UNK N   1      27.823  18.171   5.851  0.00  0.00     0.035 A 
HETATM   14  C   UNK N   1      28.536  19.222   5.224  0.00  0.00     0.026 A 
HETATM   15  H   UNK N   1      25.952  21.367   2.701  0.00  0.00     0.166 HD
ENDROOT
BRANCH   6  16
HETATM   16  C   UNK N   1      20.842  19.858   2.341  0.00  0.00     0.112 C 
HETATM   17  C   UNK N   1      19.554  19.332   2.959  0.00  0.00     0.026 C 
BRANCH  16  18
HETATM   18  C   UNK N   1      20.736  20.682   1.075  0.00  0.00     0.148 C 
HETATM   19  O   UNK N   1      20.724  21.901   1.119  0.00  0.00    -0.649 OA
BRANCH  18  20
HETATM   20  O   UNK N   1      20.654  20.068  -0.120  0.00  0.00    -0.776 OA
HETATM   21  H   UNK N   1      19.904  20.204  -0.666  0.00  0.00     0.167 HD
ENDBRANCH  18  20
ENDBRANCH  16  18
ENDBRANCH   6  16
TORSDOF 3
ENDMDL
MODEL 4
REMARK VINA RESULT:      -6.5     13.659     14.471
REMARK  3 active torsions:
REMARK  status: ('A' for Active; 'I' for Inactive)
REMARK    1  A    between atoms: O_2  and  C_18 
REMARK    2  A    between atoms: C_8  and  C_10 
REMARK    3  A    between atoms: C_10  and  C_18 
ROOT
HETATM    1 Cl   UNK N   1      22.284  12.216   9.202  0.00  0.00    -0.084 Cl
HETATM    2  N   UNK N   1      20.446  17.444   7.261  0.00  0.00    -0.355 N 
HETATM    3  C   UNK N   1      22.199  16.498   6.210  0.00  0.00     0.003 A 
HETATM    4  C   UNK N   1      21.355  17.582   6.265  0.00  0.00     0.044 A 
HETATM    5  C   UNK N   1      21.810  15.652   7.202  0.00  0.00     0.005 A 
HETATM    6  C   UNK N   1      22.519  18.576   4.401  0.00  0.00    -0.042 A 
HETATM    7  C   UNK N   1      20.742  16.247   7.830  0.00  0.00     0.043 A 
HETATM    8  C   UNK N   1      21.485  18.647   5.371  0.00  0.00     0.038 A 
HETATM    9  C   UNK N   1      23.217  16.392   5.280  0.00  0.00     0.015 A 
HETATM   10  C   UNK N   1      23.371  17.445   4.371  0.00  0.00     0.009 A 
HETATM   11  C   UNK N   1      22.313  14.416   7.593  0.00  0.00     0.038 A 
HETATM   12  C   UNK N   1      20.101  15.635   8.903  0.00  0.00     0.032 A 
HETATM   13  C   UNK N   1      21.688  13.774   8.672  0.00  0.00     0.035 A 
HETATM   14  C   UNK N   1      20.587  14.378   9.326  0.00  0.00     0.026 A 
HETATM   15  H   UNK N   1      19.732  18.071   7.517  0.00  0.00     0.166 HD
ENDROOT
BRANCH   6  16
HETATM   16  C   UNK N   1      22.722  19.692   3.399  0.00  0.00     0.112 C 
HETATM   17  C   UNK N   1      24.131  20.187   3.103  0.00  0.00     0.026 C 
BRANCH  16  18
HETATM   18  C   UNK N   1      21.571  20.348   2.666  0.00  0.00     0.148 C 
HETATM   19  O   UNK N   1      20.755  19.680   2.052  0.00  0.00    -0.649 OA
BRANCH  18  20
HETATM   20  O   UNK N   1      21.438  21.688   2.687  0.00  0.00    -0.776 OA
HETATM   21  H   UNK N   1      20.642  22.084   2.392  0.00  0.00     0.167 HD
ENDBRANCH  18  20
ENDBRANCH  16  18
ENDBRANCH   6  16
TORSDOF 3
ENDMDL
MODEL 5
REMARK VINA RESULT:      -6.3      5.440      7.715
REMARK  3 active torsions:
REMARK  status: ('A' for Active; 'I' for Inactive)
REMARK    1  A    between atoms: O_2  and  C_18 
REMARK    2  A    between atoms: C_8  and  C_10 
REMARK    3  A    between atoms: C_10  and  C_18 
ROOT
HETATM    1 Cl   UNK N   1      33.671   8.326  21.994  0.00  0.00    -0.084 Cl
HETATM    2  N   UNK N   1      35.718   9.355  16.587  0.00  0.00    -0.355 N 
HETATM    3  C   UNK N   1      35.276  11.137  17.892  0.00  0.00     0.003 A 
HETATM    4  C   UNK N   1      35.723  10.708  16.665  0.00  0.00     0.044 A 
HETATM    5  C   UNK N   1      34.979  10.020  18.609  0.00  0.00     0.005 A 
HETATM    6  C   UNK N   1      36.037  13.001  15.984  0.00  0.00    -0.042 A 
HETATM    7  C   UNK N   1      35.255   8.946  17.796  0.00  0.00     0.043 A 
HETATM    8  C   UNK N   1      36.115  11.618  15.679  0.00  0.00     0.038 A 
HETATM    9  C   UNK N   1      35.185  12.476  18.227  0.00  0.00     0.015 A 
HETATM   10  C   UNK N   1      35.571  13.409  17.259  0.00  0.00     0.009 A 
HETATM   11  C   UNK N   1      34.492   9.871  19.903  0.00  0.00     0.038 A 
HETATM   12  C   UNK N   1      35.059   7.639  18.233  0.00  0.00     0.032 A 
HETATM   13  C   UNK N   1      34.283   8.565  20.372  0.00  0.00     0.035 A 
HETATM   14  C   UNK N   1      34.565   7.453  19.542  0.00  0.00     0.026 A 
HETATM   15  H   UNK N   1      35.988   8.794  15.825  0.00  0.00     0.166 HD
ENDROOT
BRANCH   6  16
HETATM   16  C   UNK N   1      36.444  14.046  14.967  0.00  0.00     0.112 C 
HETATM   17  C   UNK N   1      37.211  15.278  15.424  0.00  0.00     0.026 C 
BRANCH  16  18
HETATM   18  C   UNK N   1      36.117  13.919  13.494  0.00  0.00     0.148 C 
HETATM   19  O   UNK N   1      34.961  13.917  13.105  0.00  0.00    -0.649 OA
BRANCH  18  20
HETATM   20  O   UNK N   1      37.112  13.806  12.594  0.00  0.00    -0.776 OA
HETATM   21  H   UNK N   1      36.972  14.068  11.706  0.00  0.00     0.167 HD
ENDBRANCH  18  20
ENDBRANCH  16  18
ENDBRANCH   6  16
TORSDOF 3
ENDMDL
MODEL 6
REMARK VINA RESULT:      -6.3      3.482      4.939
REMARK  3 active torsions:
REMARK  status: ('A' for Active; 'I' for Inactive)
REMARK    1  A    between atoms: O_2  and  C_18 
REMARK    2  A    between atoms: C_8  and  C_10 
REMARK    3  A    between atoms: C_10  and  C_18 
ROOT
HETATM    1 Cl   UNK N   1      34.147   8.345  18.867  0.00  0.00    -0.084 Cl
HETATM    2  N   UNK N   1      35.675  13.444  16.387  0.00  0.00    -0.355 N 
HETATM    3  C   UNK N   1      35.067  11.759  15.021  0.00  0.00     0.003 A 
HETATM    4  C   UNK N   1      35.492  13.065  15.099  0.00  0.00     0.044 A 
HETATM    5  C   UNK N   1      34.980  11.303  16.299  0.00  0.00     0.005 A 
HETATM    6  C   UNK N   1      35.430  13.223  12.692  0.00  0.00    -0.042 A 
HETATM    7  C   UNK N   1      35.355  12.344  17.115  0.00  0.00     0.043 A 
HETATM    8  C   UNK N   1      35.686  13.833  13.947  0.00  0.00     0.038 A 
HETATM    9  C   UNK N   1      34.808  11.130  13.817  0.00  0.00     0.015 A 
HETATM   10  C   UNK N   1      34.993  11.876  12.647  0.00  0.00     0.009 A 
HETATM   11  C   UNK N   1      34.603  10.061  16.798  0.00  0.00     0.038 A 
HETATM   12  C   UNK N   1      35.375  12.206  18.500  0.00  0.00     0.032 A 
HETATM   13  C   UNK N   1      34.614   9.891  18.190  0.00  0.00     0.035 A 
HETATM   14  C   UNK N   1      34.998  10.957  19.040  0.00  0.00     0.026 A 
HETATM   15  H   UNK N   1      35.974  14.321  16.721  0.00  0.00     0.166 HD
ENDROOT
BRANCH   6  16
HETATM   16  C   UNK N   1      35.617  13.992  11.402  0.00  0.00     0.112 C 
HETATM   17  C   UNK N   1      36.862  13.751  10.560  0.00  0.00     0.026 C 
BRANCH  16  18
HETATM   18  C   UNK N   1      34.608  15.005  10.904  0.00  0.00     0.148 C 
HETATM   19  O   UNK N   1      34.937  15.893  10.134  0.00  0.00    -0.649 OA
BRANCH  18  20
HETATM   20  O   UNK N   1      33.327  14.932  11.311  0.00  0.00    -0.776 OA
HETATM   21  H   UNK N   1      32.847  14.135  11.206  0.00  0.00     0.167 HD
ENDBRANCH  18  20
ENDBRANCH  16  18
ENDBRANCH   6  16
TORSDOF 3
ENDMDL
MODEL 7
REMARK VINA RESULT:      -6.2     18.302     20.190
REMARK  3 active torsions:
REMARK  status: ('A' for Active; 'I' for Inactive)
REMARK    1  A    between atoms: O_2  and  C_18 
REMARK    2  A    between atoms: C_8  and  C_10 
REMARK    3  A    between atoms: C_10  and  C_18 
ROOT
HETATM    1 Cl   UNK N   1      30.097  19.170  -7.981  0.00  0.00    -0.084 Cl
HETATM    2  N   UNK N   1      29.363  23.597  -4.193  0.00  0.00    -0.355 N 
HETATM    3  C   UNK N   1      27.908  23.436  -5.906  0.00  0.00     0.003 A 
HETATM    4  C   UNK N   1      28.274  24.145  -4.786  0.00  0.00     0.044 A 
HETATM    5  C   UNK N   1      28.794  22.411  -6.023  0.00  0.00     0.005 A 
HETATM    6  C   UNK N   1      26.442  25.670  -5.160  0.00  0.00    -0.042 A 
HETATM    7  C   UNK N   1      29.671  22.527  -4.970  0.00  0.00     0.043 A 
HETATM    8  C   UNK N   1      27.559  25.275  -4.379  0.00  0.00     0.038 A 
HETATM    9  C   UNK N   1      26.827  23.790  -6.692  0.00  0.00     0.015 A 
HETATM   10  C   UNK N   1      26.093  24.918  -6.308  0.00  0.00     0.009 A 
HETATM   11  C   UNK N   1      28.892  21.395  -6.967  0.00  0.00     0.038 A 
HETATM   12  C   UNK N   1      30.714  21.622  -4.795  0.00  0.00     0.032 A 
HETATM   13  C   UNK N   1      29.933  20.467  -6.818  0.00  0.00     0.035 A 
HETATM   14  C   UNK N   1      30.841  20.578  -5.737  0.00  0.00     0.026 A 
HETATM   15  H   UNK N   1      29.827  23.905  -3.382  0.00  0.00     0.166 HD
ENDROOT
BRANCH   6  16
HETATM   16  C   UNK N   1      25.621  26.883  -4.782  0.00  0.00     0.112 C 
HETATM   17  C   UNK N   1      24.455  27.304  -5.666  0.00  0.00     0.026 C 
BRANCH  16  18
HETATM   18  C   UNK N   1      25.909  27.710  -3.547  0.00  0.00     0.148 C 
HETATM   19  O   UNK N   1      26.146  28.903  -3.631  0.00  0.00    -0.649 OA
BRANCH  18  20
HETATM   20  O   UNK N   1      25.904  27.126  -2.333  0.00  0.00    -0.776 OA
HETATM   21  H   UNK N   1      26.219  26.250  -2.234  0.00  0.00     0.167 HD
ENDBRANCH  18  20
ENDBRANCH  16  18
ENDBRANCH   6  16
TORSDOF 3
ENDMDL
MODEL 8
REMARK VINA RESULT:      -6.1      6.256      9.155
REMARK  3 active torsions:
REMARK  status: ('A' for Active; 'I' for Inactive)
REMARK    1  A    between atoms: O_2  and  C_18 
REMARK    2  A    between atoms: C_8  and  C_10 
REMARK    3  A    between atoms: C_10  and  C_18 
ROOT
HETATM    1 Cl   UNK N   1      35.751  15.660  11.696  0.00  0.00    -0.084 Cl
HETATM    2  N   UNK N   1      37.074  10.814  14.738  0.00  0.00    -0.355 N 
HETATM    3  C   UNK N   1      35.941  12.442  15.808  0.00  0.00     0.003 A 
HETATM    4  C   UNK N   1      36.507  11.192  15.910  0.00  0.00     0.044 A 
HETATM    5  C   UNK N   1      36.158  12.863  14.533  0.00  0.00     0.005 A 
HETATM    6  C   UNK N   1      35.806  11.070  18.215  0.00  0.00    -0.042 A 
HETATM    7  C   UNK N   1      36.849  11.858  13.899  0.00  0.00     0.043 A 
HETATM    8  C   UNK N   1      36.458  10.472  17.106  0.00  0.00     0.038 A 
HETATM    9  C   UNK N   1      35.297  13.057  16.865  0.00  0.00     0.015 A 
HETATM   10  C   UNK N   1      35.233  12.358  18.076  0.00  0.00     0.009 A 
HETATM   11  C   UNK N   1      35.803  14.044  13.891  0.00  0.00     0.038 A 
HETATM   12  C   UNK N   1      37.233  11.974  12.566  0.00  0.00     0.032 A 
HETATM   13  C   UNK N   1      36.176  14.191  12.547  0.00  0.00     0.035 A 
HETATM   14  C   UNK N   1      36.888  13.161  11.885  0.00  0.00     0.026 A 
HETATM   15  H   UNK N   1      37.543   9.973  14.540  0.00  0.00     0.166 HD
ENDROOT
BRANCH   6  16
HETATM   16  C   UNK N   1      35.713  10.350  19.543  0.00  0.00     0.112 C 
HETATM   17  C   UNK N   1      36.975   9.779  20.176  0.00  0.00     0.026 C 
BRANCH  16  18
HETATM   18  C   UNK N   1      34.405  10.169  20.282  0.00  0.00     0.148 C 
HETATM   19  O   UNK N   1      33.625   9.284  19.971  0.00  0.00    -0.649 OA
BRANCH  18  20
HETATM   20  O   UNK N   1      34.089  10.992  21.300  0.00  0.00    -0.776 OA
HETATM   21  H   UNK N   1      34.292  11.905  21.244  0.00  0.00     0.167 HD
ENDBRANCH  18  20
ENDBRANCH  16  18
ENDBRANCH   6  16
TORSDOF 3
ENDMDL
MODEL 9
REMARK VINA RESULT:      -6.1      3.740      5.675
REMARK  3 active torsions:
REMARK  status: ('A' for Active; 'I' for Inactive)
REMARK    1  A    between atoms: O_2  and  C_18 
REMARK    2  A    between atoms: C_8  and  C_10 
REMARK    3  A    between atoms: C_10  and  C_18 
ROOT
HETATM    1 Cl   UNK N   1      34.948  10.843  20.599  0.00  0.00    -0.084 Cl
HETATM    2  N   UNK N   1      35.434  10.070  14.798  0.00  0.00    -0.355 N 
HETATM    3  C   UNK N   1      35.841  12.130  15.615  0.00  0.00     0.003 A 
HETATM    4  C   UNK N   1      35.780  11.343  14.488  0.00  0.00     0.044 A 
HETATM    5  C   UNK N   1      35.523  11.327  16.666  0.00  0.00     0.005 A 
HETATM    6  C   UNK N   1      36.400  13.242  13.135  0.00  0.00    -0.042 A 
HETATM    7  C   UNK N   1      35.279  10.078  16.147  0.00  0.00     0.043 A 
HETATM    8  C   UNK N   1      36.055  11.869  13.223  0.00  0.00     0.038 A 
HETATM    9  C   UNK N   1      36.173  13.472  15.570  0.00  0.00     0.015 A 
HETATM   10  C   UNK N   1      36.453  14.025  14.315  0.00  0.00     0.009 A 
HETATM   11  C   UNK N   1      35.432  11.602  18.026  0.00  0.00     0.038 A 
HETATM   12  C   UNK N   1      34.924   9.011  16.967  0.00  0.00     0.032 A 
HETATM   13  C   UNK N   1      35.076  10.547  18.879  0.00  0.00     0.035 A 
HETATM   14  C   UNK N   1      34.822   9.256  18.354  0.00  0.00     0.026 A 
HETATM   15  H   UNK N   1      35.320   9.310  14.184  0.00  0.00     0.166 HD
ENDROOT
BRANCH   6  16
HETATM   16  C   UNK N   1      36.711  13.882  11.800  0.00  0.00     0.112 C 
HETATM   17  C   UNK N   1      37.721  13.224  10.870  0.00  0.00     0.026 C 
BRANCH  16  18
HETATM   18  C   UNK N   1      36.053  15.165  11.338  0.00  0.00     0.148 C 
HETATM   19  O   UNK N   1      34.842  15.304  11.389  0.00  0.00    -0.649 OA
BRANCH  18  20
HETATM   20  O   UNK N   1      36.809  16.173  10.863  0.00  0.00    -0.776 OA
HETATM   21  H   UNK N   1      36.460  17.042  10.824  0.00  0.00     0.167 HD
ENDBRANCH  18  20
ENDBRANCH  16  18
ENDBRANCH   6  16
TORSDOF 3
ENDMDL
