MODEL 1
REMARK VINA RESULT:      -7.2      0.000      0.000
REMARK  5 active torsions:
REMARK  status: ('A' for Active; 'I' for Inactive)
REMARK    1  A    between atoms: O_2  and  C_24 
REMARK       I    between atoms: N_5  and  C_17 
REMARK    2  A    between atoms: C_22  and  N_5 
REMARK    3  A    between atoms: C_9  and  C_17 
REMARK    4  A    between atoms: C_22  and  C_23 
REMARK    5  A    between atoms: C_22  and  C_24 
ROOT
HETATM    1  N   UNK N   1      19.689  16.315   8.000  0.00  0.00     0.094 N 
HETATM    2  N   UNK N   1      22.256  11.581  10.725  0.00  0.00    -0.365 N 
HETATM    3  C   UNK N   1      20.752  15.468   8.579  0.00  0.00     0.260 C 
HETATM    4  C   UNK N   1      21.587  14.776   7.477  0.00  0.00    -0.017 C 
HETATM    5  C   UNK N   1      20.155  14.448   9.600  0.00  0.00     0.081 C 
HETATM    6  C   UNK N   1      20.696  16.349   5.771  0.00  0.00     0.129 C 
HETATM    7  C   UNK N   1      20.251  17.187   6.972  0.00  0.00     0.290 C 
HETATM    8  C   UNK N   1      21.147  13.357   9.910  0.00  0.00    -0.027 A 
HETATM    9  C   UNK N   1      22.435  13.634   7.862  0.00  0.00    -0.015 A 
HETATM   10  C   UNK N   1      22.146  13.035   9.060  0.00  0.00     0.009 A 
HETATM   11  C   UNK N   1      21.548  15.190   6.204  0.00  0.00    -0.001 C 
HETATM   12  C   UNK N   1      22.801  11.966   9.551  0.00  0.00     0.043 A 
HETATM   13  C   UNK N   1      19.117  17.178   9.026  0.00  0.00     0.310 C 
HETATM   14  C   UNK N   1      21.215  12.437  10.953  0.00  0.00     0.096 A 
HETATM   15  C   UNK N   1      23.475  13.077   7.090  0.00  0.00     0.013 A 
HETATM   16  C   UNK N   1      23.855  11.386   8.844  0.00  0.00     0.030 A 
HETATM   17  C   UNK N   1      24.193  11.957   7.591  0.00  0.00     0.003 A 
HETATM   18  H   UNK N   1      22.547  10.836  11.299  0.00  0.00     0.165 HD
ENDROOT
BRANCH   6  19
HETATM   19  C   UNK N   1      21.370  17.219   4.751  0.00  0.00     0.227 C 
HETATM   20  O   UNK N   1      22.581  17.166   4.587  0.00  0.00    -0.273 OA
HETATM   21  N   UNK N   1      20.604  18.057   4.012  0.00  0.00    -0.354 N 
HETATM   22  H   UNK N   1      19.636  18.061   4.191  0.00  0.00     0.163 HD
BRANCH  21  23
HETATM   23  C   UNK N   1      21.094  18.944   2.982  0.00  0.00     0.107 C 
BRANCH  23  24
HETATM   24  C   UNK N   1      20.365  18.705   1.659  0.00  0.00     0.023 C 
HETATM   25  C   UNK N   1      20.218  17.225   1.361  0.00  0.00     0.007 C 
ENDBRANCH  23  24
BRANCH  23  26
HETATM   26  C   UNK N   1      20.803  20.360   3.448  0.00  0.00     0.189 C 
BRANCH  26  27
HETATM   27  O   UNK N   1      21.580  21.278   2.744  0.00  0.00    -0.399 OA
HETATM   28  H   UNK N   1      22.326  21.048   2.169  0.00  0.00     0.209 HD
ENDBRANCH  26  27
ENDBRANCH  23  26
ENDBRANCH  21  23
ENDBRANCH   6  19
TORSDOF 5
ENDMDL
MODEL 2
REMARK VINA RESULT:      -7.2     13.149     15.905
REMARK  5 active torsions:
REMARK  status: ('A' for Active; 'I' for Inactive)
REMARK    1  A    between atoms: O_2  and  C_24 
REMARK       I    between atoms: N_5  and  C_17 
REMARK    2  A    between atoms: C_22  and  N_5 
REMARK    3  A    between atoms: C_9  and  C_17 
REMARK    4  A    between atoms: C_22  and  C_23 
REMARK    5  A    between atoms: C_22  and  C_24 
ROOT
HETATM    1  N   UNK N   1      35.313  10.743  12.965  0.00  0.00     0.094 N 
HETATM    2  N   UNK N   1      35.203   9.830  18.930  0.00  0.00    -0.365 N 
HETATM    3  C   UNK N   1      34.866  10.856  14.368  0.00  0.00     0.260 C 
HETATM    4  C   UNK N   1      35.284  12.209  14.988  0.00  0.00    -0.017 C 
HETATM    5  C   UNK N   1      35.363   9.638  15.211  0.00  0.00     0.081 C 
HETATM    6  C   UNK N   1      35.732  13.141  12.728  0.00  0.00     0.129 C 
HETATM    7  C   UNK N   1      34.930  11.940  12.221  0.00  0.00     0.290 C 
HETATM    8  C   UNK N   1      35.236   9.919  16.685  0.00  0.00    -0.027 A 
HETATM    9  C   UNK N   1      35.243  12.344  16.455  0.00  0.00    -0.015 A 
HETATM   10  C   UNK N   1      35.206  11.177  17.175  0.00  0.00     0.009 A 
HETATM   11  C   UNK N   1      35.676  13.238  14.226  0.00  0.00    -0.001 C 
HETATM   12  C   UNK N   1      35.193  11.117  18.520  0.00  0.00     0.043 A 
HETATM   13  C   UNK N   1      34.663   9.611  12.318  0.00  0.00     0.310 C 
HETATM   14  C   UNK N   1      35.240   9.075  17.792  0.00  0.00     0.096 A 
HETATM   15  C   UNK N   1      35.289  13.553  17.178  0.00  0.00     0.013 A 
HETATM   16  C   UNK N   1      35.213  12.280  19.289  0.00  0.00     0.030 A 
HETATM   17  C   UNK N   1      35.262  13.518  18.599  0.00  0.00     0.003 A 
HETATM   18  H   UNK N   1      35.186   9.503  19.858  0.00  0.00     0.165 HD
ENDROOT
BRANCH   6  19
HETATM   19  C   UNK N   1      35.275  14.397  12.045  0.00  0.00     0.227 C 
HETATM   20  O   UNK N   1      35.698  15.490  12.398  0.00  0.00    -0.273 OA
HETATM   21  N   UNK N   1      34.391  14.290  11.024  0.00  0.00    -0.354 N 
HETATM   22  H   UNK N   1      34.081  13.386  10.788  0.00  0.00     0.163 HD
BRANCH  21  23
HETATM   23  C   UNK N   1      33.868  15.395  10.255  0.00  0.00     0.107 C 
BRANCH  23  24
HETATM   24  C   UNK N   1      34.824  15.782   9.127  0.00  0.00     0.023 C 
HETATM   25  C   UNK N   1      34.690  17.247   8.759  0.00  0.00     0.007 C 
ENDBRANCH  23  24
BRANCH  23  26
HETATM   26  C   UNK N   1      32.560  14.923   9.644  0.00  0.00     0.189 C 
BRANCH  26  27
HETATM   27  O   UNK N   1      31.490  15.209  10.490  0.00  0.00    -0.399 OA
HETATM   28  H   UNK N   1      31.564  15.657  11.346  0.00  0.00     0.209 HD
ENDBRANCH  26  27
ENDBRANCH  23  26
ENDBRANCH  21  23
ENDBRANCH   6  19
TORSDOF 5
ENDMDL
MODEL 3
REMARK VINA RESULT:      -7.1     16.793     19.641
REMARK  5 active torsions:
REMARK  status: ('A' for Active; 'I' for Inactive)
REMARK    1  A    between atoms: O_2  and  C_24 
REMARK       I    between atoms: N_5  and  C_17 
REMARK    2  A    between atoms: C_22  and  N_5 
REMARK    3  A    between atoms: C_9  and  C_17 
REMARK    4  A    between atoms: C_22  and  C_23 
REMARK    5  A    between atoms: C_22  and  C_24 
ROOT
HETATM    1  N   UNK N   1      28.245  27.237  -9.444  0.00  0.00     0.094 N 
HETATM    2  N   UNK N   1      28.130  30.549  -4.400  0.00  0.00    -0.365 N 
HETATM    3  C   UNK N   1      28.271  27.551  -8.001  0.00  0.00     0.260 C 
HETATM    4  C   UNK N   1      26.929  27.197  -7.321  0.00  0.00    -0.017 C 
HETATM    5  C   UNK N   1      28.684  29.038  -7.762  0.00  0.00     0.081 C 
HETATM    6  C   UNK N   1      26.275  25.799  -9.268  0.00  0.00     0.129 C 
HETATM    7  C   UNK N   1      27.755  25.877  -9.650  0.00  0.00     0.290 C 
HETATM    8  C   UNK N   1      28.361  29.465  -6.355  0.00  0.00    -0.027 A 
HETATM    9  C   UNK N   1      26.653  27.768  -5.990  0.00  0.00    -0.015 A 
HETATM   10  C   UNK N   1      27.412  28.848  -5.619  0.00  0.00     0.009 A 
HETATM   11  C   UNK N   1      26.031  26.398  -7.913  0.00  0.00    -0.001 C 
HETATM   12  C   UNK N   1      27.273  29.506  -4.453  0.00  0.00     0.043 A 
HETATM   13  C   UNK N   1      29.592  27.295  -9.998  0.00  0.00     0.310 C 
HETATM   14  C   UNK N   1      28.807  30.538  -5.587  0.00  0.00     0.096 A 
HETATM   15  C   UNK N   1      25.653  27.336  -5.095  0.00  0.00     0.013 A 
HETATM   16  C   UNK N   1      26.318  29.111  -3.516  0.00  0.00     0.030 A 
HETATM   17  C   UNK N   1      25.496  28.005  -3.850  0.00  0.00     0.003 A 
HETATM   18  H   UNK N   1      28.245  31.186  -3.659  0.00  0.00     0.165 HD
ENDROOT
BRANCH   6  19
HETATM   19  C   UNK N   1      25.784  24.384  -9.376  0.00  0.00     0.227 C 
HETATM   20  O   UNK N   1      24.896  24.089 -10.164  0.00  0.00    -0.273 OA
HETATM   21  N   UNK N   1      26.353  23.443  -8.585  0.00  0.00    -0.354 N 
HETATM   22  H   UNK N   1      27.058  23.740  -7.965  0.00  0.00     0.163 HD
BRANCH  21  23
HETATM   23  C   UNK N   1      26.009  22.040  -8.579  0.00  0.00     0.107 C 
BRANCH  23  24
HETATM   24  C   UNK N   1      27.207  21.182  -8.173  0.00  0.00     0.023 C 
HETATM   25  C   UNK N   1      28.191  21.962  -7.322  0.00  0.00     0.007 C 
ENDBRANCH  23  24
BRANCH  23  26
HETATM   26  C   UNK N   1      24.911  21.863  -7.543  0.00  0.00     0.189 C 
BRANCH  26  27
HETATM   27  O   UNK N   1      23.655  22.005  -8.129  0.00  0.00    -0.399 OA
HETATM   28  H   UNK N   1      23.277  21.400  -8.786  0.00  0.00     0.209 HD
ENDBRANCH  26  27
ENDBRANCH  23  26
ENDBRANCH  21  23
ENDBRANCH   6  19
TORSDOF 5
ENDMDL
MODEL 4
REMARK VINA RESULT:      -7.1      8.531     11.276
REMARK  5 active torsions:
REMARK  status: ('A' for Active; 'I' for Inactive)
REMARK    1  A    between atoms: O_2  and  C_24 
REMARK       I    between atoms: N_5  and  C_17 
REMARK    2  A    between atoms: C_22  and  N_5 
REMARK    3  A    between atoms: C_9  and  C_17 
REMARK    4  A    between atoms: C_22  and  C_23 
REMARK    5  A    between atoms: C_22  and  C_24 
ROOT
HETATM    1  N   UNK N   1      29.731  15.405   5.855  0.00  0.00     0.094 N 
HETATM    2  N   UNK N   1      25.211  18.412   3.220  0.00  0.00    -0.365 N 
HETATM    3  C   UNK N   1      29.032  16.491   5.139  0.00  0.00     0.260 C 
HETATM    4  C   UNK N   1      28.759  17.696   6.067  0.00  0.00    -0.017 C 
HETATM    5  C   UNK N   1      27.731  15.960   4.456  0.00  0.00     0.081 C 
HETATM    6  C   UNK N   1      30.407  16.839   7.717  0.00  0.00     0.129 C 
HETATM    7  C   UNK N   1      30.884  15.941   6.572  0.00  0.00     0.290 C 
HETATM    8  C   UNK N   1      26.836  17.100   4.048  0.00  0.00    -0.027 A 
HETATM    9  C   UNK N   1      27.769  18.699   5.631  0.00  0.00    -0.015 A 
HETATM   10  C   UNK N   1      26.902  18.311   4.642  0.00  0.00     0.009 A 
HETATM   11  C   UNK N   1      29.394  17.838   7.238  0.00  0.00    -0.001 C 
HETATM   12  C   UNK N   1      25.922  19.090   4.147  0.00  0.00     0.043 A 
HETATM   13  C   UNK N   1      30.238  14.420   4.908  0.00  0.00     0.310 C 
HETATM   14  C   UNK N   1      25.767  17.166   3.158  0.00  0.00     0.096 A 
HETATM   15  C   UNK N   1      27.605  19.990   6.172  0.00  0.00     0.013 A 
HETATM   16  C   UNK N   1      25.726  20.385   4.625  0.00  0.00     0.030 A 
HETATM   17  C   UNK N   1      26.587  20.838   5.657  0.00  0.00     0.003 A 
HETATM   18  H   UNK N   1      24.448  18.747   2.696  0.00  0.00     0.165 HD
ENDROOT
BRANCH   6  19
HETATM   19  C   UNK N   1      31.581  17.480   8.399  0.00  0.00     0.227 C 
HETATM   20  O   UNK N   1      31.477  18.586   8.913  0.00  0.00    -0.273 OA
HETATM   21  N   UNK N   1      32.753  16.803   8.437  0.00  0.00    -0.354 N 
HETATM   22  H   UNK N   1      32.779  15.920   8.001  0.00  0.00     0.163 HD
BRANCH  21  23
HETATM   23  C   UNK N   1      33.966  17.271   9.066  0.00  0.00     0.107 C 
BRANCH  23  24
HETATM   24  C   UNK N   1      34.835  16.099   9.525  0.00  0.00     0.023 C 
HETATM   25  C   UNK N   1      35.551  16.411  10.825  0.00  0.00     0.007 C 
ENDBRANCH  23  24
BRANCH  23  26
HETATM   26  C   UNK N   1      34.730  18.058   8.014  0.00  0.00     0.189 C 
BRANCH  26  27
HETATM   27  O   UNK N   1      35.261  19.224   8.562  0.00  0.00    -0.399 OA
HETATM   28  H   UNK N   1      34.897  20.113   8.434  0.00  0.00     0.209 HD
ENDBRANCH  26  27
ENDBRANCH  23  26
ENDBRANCH  21  23
ENDBRANCH   6  19
TORSDOF 5
ENDMDL
MODEL 5
REMARK VINA RESULT:      -7.1      1.926      3.301
REMARK  5 active torsions:
REMARK  status: ('A' for Active; 'I' for Inactive)
REMARK    1  A    between atoms: O_2  and  C_24 
REMARK       I    between atoms: N_5  and  C_17 
REMARK    2  A    between atoms: C_22  and  N_5 
REMARK    3  A    between atoms: C_9  and  C_17 
REMARK    4  A    between atoms: C_22  and  C_23 
REMARK    5  A    between atoms: C_22  and  C_24 
ROOT
HETATM    1  N   UNK N   1      24.272  15.290   6.215  0.00  0.00     0.094 N 
HETATM    2  N   UNK N   1      23.670  11.752  11.068  0.00  0.00    -0.365 N 
HETATM    3  C   UNK N   1      23.729  14.230   7.088  0.00  0.00     0.260 C 
HETATM    4  C   UNK N   1      22.390  14.657   7.731  0.00  0.00    -0.017 C 
HETATM    5  C   UNK N   1      24.785  13.790   8.152  0.00  0.00     0.081 C 
HETATM    6  C   UNK N   1      22.152  16.503   6.084  0.00  0.00     0.129 C 
HETATM    7  C   UNK N   1      23.238  15.761   5.299  0.00  0.00     0.290 C 
HETATM    8  C   UNK N   1      24.136  12.997   9.256  0.00  0.00    -0.027 A 
HETATM    9  C   UNK N   1      21.899  13.889   8.890  0.00  0.00    -0.015 A 
HETATM   10  C   UNK N   1      22.821  13.111   9.541  0.00  0.00     0.009 A 
HETATM   11  C   UNK N   1      21.686  15.695   7.261  0.00  0.00    -0.001 C 
HETATM   12  C   UNK N   1      22.550  12.368  10.632  0.00  0.00     0.043 A 
HETATM   13  C   UNK N   1      25.359  14.764   5.398  0.00  0.00     0.310 C 
HETATM   14  C   UNK N   1      24.668  12.147  10.221  0.00  0.00     0.096 A 
HETATM   15  C   UNK N   1      20.591  13.925   9.413  0.00  0.00     0.013 A 
HETATM   16  C   UNK N   1      21.268  12.344  11.181  0.00  0.00     0.030 A 
HETATM   17  C   UNK N   1      20.275  13.138  10.555  0.00  0.00     0.003 A 
HETATM   18  H   UNK N   1      23.752  11.144  11.837  0.00  0.00     0.165 HD
ENDROOT
BRANCH   6  19
HETATM   19  C   UNK N   1      21.031  16.902   5.170  0.00  0.00     0.227 C 
HETATM   20  O   UNK N   1      19.996  16.249   5.129  0.00  0.00    -0.273 OA
HETATM   21  N   UNK N   1      21.188  18.004   4.399  0.00  0.00    -0.354 N 
HETATM   22  H   UNK N   1      22.044  18.486   4.470  0.00  0.00     0.163 HD
BRANCH  21  23
HETATM   23  C   UNK N   1      20.202  18.530   3.484  0.00  0.00     0.107 C 
BRANCH  23  24
HETATM   24  C   UNK N   1      20.368  20.039   3.304  0.00  0.00     0.023 C 
HETATM   25  C   UNK N   1      21.263  20.367   2.125  0.00  0.00     0.007 C 
ENDBRANCH  23  24
BRANCH  23  26
HETATM   26  C   UNK N   1      20.442  17.852   2.145  0.00  0.00     0.189 C 
BRANCH  26  27
HETATM   27  O   UNK N   1      19.247  17.722   1.439  0.00  0.00    -0.399 OA
HETATM   28  H   UNK N   1      18.784  18.449   0.994  0.00  0.00     0.209 HD
ENDBRANCH  26  27
ENDBRANCH  23  26
ENDBRANCH  21  23
ENDBRANCH   6  19
TORSDOF 5
ENDMDL
MODEL 6
REMARK VINA RESULT:      -7.1     14.077     17.006
REMARK  5 active torsions:
REMARK  status: ('A' for Active; 'I' for Inactive)
REMARK    1  A    between atoms: O_2  and  C_24 
REMARK       I    between atoms: N_5  and  C_17 
REMARK    2  A    between atoms: C_22  and  N_5 
REMARK    3  A    between atoms: C_9  and  C_17 
REMARK    4  A    between atoms: C_22  and  C_23 
REMARK    5  A    between atoms: C_22  and  C_24 
ROOT
HETATM    1  N   UNK N   1      36.761   9.762  13.581  0.00  0.00     0.094 N 
HETATM    2  N   UNK N   1      35.140  10.534  19.343  0.00  0.00    -0.365 N 
HETATM    3  C   UNK N   1      35.976  10.233  14.740  0.00  0.00     0.260 C 
HETATM    4  C   UNK N   1      36.242  11.727  15.033  0.00  0.00    -0.017 C 
HETATM    5  C   UNK N   1      36.229   9.329  15.988  0.00  0.00     0.081 C 
HETATM    6  C   UNK N   1      37.258  12.021  12.784  0.00  0.00     0.129 C 
HETATM    7  C   UNK N   1      36.594  10.681  12.458  0.00  0.00     0.290 C 
HETATM    8  C   UNK N   1      35.739   9.999  17.244  0.00  0.00    -0.027 A 
HETATM    9  C   UNK N   1      35.835  12.261  16.346  0.00  0.00    -0.015 A 
HETATM   10  C   UNK N   1      35.603  11.340  17.334  0.00  0.00     0.009 A 
HETATM   11  C   UNK N   1      36.828  12.526  14.132  0.00  0.00    -0.001 C 
HETATM   12  C   UNK N   1      35.251  11.654  18.595  0.00  0.00     0.043 A 
HETATM   13  C   UNK N   1      36.280   8.458  13.142  0.00  0.00     0.310 C 
HETATM   14  C   UNK N   1      35.453   9.497  18.510  0.00  0.00     0.096 A 
HETATM   15  C   UNK N   1      35.714  13.624  16.684  0.00  0.00     0.013 A 
HETATM   16  C   UNK N   1      35.091  12.984  18.984  0.00  0.00     0.030 A 
HETATM   17  C   UNK N   1      35.329  13.983  18.005  0.00  0.00     0.003 A 
HETATM   18  H   UNK N   1      34.886  10.477  20.292  0.00  0.00     0.165 HD
ENDROOT
BRANCH   6  19
HETATM   19  C   UNK N   1      37.004  13.009  11.683  0.00  0.00     0.227 C 
HETATM   20  O   UNK N   1      37.870  13.258  10.855  0.00  0.00    -0.273 OA
HETATM   21  N   UNK N   1      35.793  13.611  11.624  0.00  0.00    -0.354 N 
HETATM   22  H   UNK N   1      35.137  13.376  12.321  0.00  0.00     0.163 HD
BRANCH  21  23
HETATM   23  C   UNK N   1      35.385  14.568  10.622  0.00  0.00     0.107 C 
BRANCH  23  24
HETATM   24  C   UNK N   1      33.867  14.556  10.435  0.00  0.00     0.023 C 
HETATM   25  C   UNK N   1      33.475  13.987   9.086  0.00  0.00     0.007 C 
ENDBRANCH  23  24
BRANCH  23  26
HETATM   26  C   UNK N   1      35.801  15.938  11.129  0.00  0.00     0.189 C 
BRANCH  26  27
HETATM   27  O   UNK N   1      37.134  16.195  10.814  0.00  0.00    -0.399 OA
HETATM   28  H   UNK N   1      37.669  16.905  11.200  0.00  0.00     0.209 HD
ENDBRANCH  26  27
ENDBRANCH  23  26
ENDBRANCH  21  23
ENDBRANCH   6  19
TORSDOF 5
ENDMDL
MODEL 7
REMARK VINA RESULT:      -6.9     10.825     13.683
REMARK  5 active torsions:
REMARK  status: ('A' for Active; 'I' for Inactive)
REMARK    1  A    between atoms: O_2  and  C_24 
REMARK       I    between atoms: N_5  and  C_17 
REMARK    2  A    between atoms: C_22  and  N_5 
REMARK    3  A    between atoms: C_9  and  C_17 
REMARK    4  A    between atoms: C_22  and  C_23 
REMARK    5  A    between atoms: C_22  and  C_24 
ROOT
HETATM    1  N   UNK N   1      33.273  15.560   5.846  0.00  0.00     0.094 N 
HETATM    2  N   UNK N   1      27.879  18.268   5.861  0.00  0.00    -0.365 N 
HETATM    3  C   UNK N   1      32.257  16.607   6.079  0.00  0.00     0.260 C 
HETATM    4  C   UNK N   1      31.850  16.680   7.568  0.00  0.00    -0.017 C 
HETATM    5  C   UNK N   1      31.028  16.410   5.136  0.00  0.00     0.081 C 
HETATM    6  C   UNK N   1      33.858  15.364   8.213  0.00  0.00     0.129 C 
HETATM    7  C   UNK N   1      34.363  15.700   6.808  0.00  0.00     0.290 C 
HETATM    8  C   UNK N   1      29.854  17.226   5.608  0.00  0.00    -0.027 A 
HETATM    9  C   UNK N   1      30.612  17.400   7.916  0.00  0.00    -0.015 A 
HETATM   10  C   UNK N   1      29.728  17.623   6.893  0.00  0.00     0.009 A 
HETATM   11  C   UNK N   1      32.590  16.107   8.527  0.00  0.00    -0.001 C 
HETATM   12  C   UNK N   1      28.540  18.240   7.039  0.00  0.00     0.043 A 
HETATM   13  C   UNK N   1      33.854  15.706   4.518  0.00  0.00     0.310 C 
HETATM   14  C   UNK N   1      28.687  17.627   4.964  0.00  0.00     0.096 A 
HETATM   15  C   UNK N   1      30.238  17.830   9.206  0.00  0.00     0.013 A 
HETATM   16  C   UNK N   1      28.125  18.709   8.285  0.00  0.00     0.030 A 
HETATM   17  C   UNK N   1      28.996  18.497   9.385  0.00  0.00     0.003 A 
HETATM   18  H   UNK N   1      26.997  18.667   5.685  0.00  0.00     0.165 HD
ENDROOT
BRANCH   6  19
HETATM   19  C   UNK N   1      34.939  15.603   9.226  0.00  0.00     0.227 C 
HETATM   20  O   UNK N   1      35.041  16.685   9.788  0.00  0.00    -0.273 OA
HETATM   21  N   UNK N   1      35.794  14.591   9.508  0.00  0.00    -0.354 N 
HETATM   22  H   UNK N   1      35.668  13.744   9.020  0.00  0.00     0.163 HD
BRANCH  21  23
HETATM   23  C   UNK N   1      36.873  14.653  10.466  0.00  0.00     0.107 C 
BRANCH  23  24
HETATM   24  C   UNK N   1      36.584  13.768  11.678  0.00  0.00     0.023 C 
HETATM   25  C   UNK N   1      36.028  14.573  12.837  0.00  0.00     0.007 C 
ENDBRANCH  23  24
BRANCH  23  26
HETATM   26  C   UNK N   1      38.113  14.125   9.764  0.00  0.00     0.189 C 
BRANCH  26  27
HETATM   27  O   UNK N   1      38.963  13.497  10.672  0.00  0.00    -0.399 OA
HETATM   28  H   UNK N   1      38.676  12.886  11.369  0.00  0.00     0.209 HD
ENDBRANCH  26  27
ENDBRANCH  23  26
ENDBRANCH  21  23
ENDBRANCH   6  19
TORSDOF 5
ENDMDL
MODEL 8
REMARK VINA RESULT:      -6.8      2.972      3.717
REMARK  5 active torsions:
REMARK  status: ('A' for Active; 'I' for Inactive)
REMARK    1  A    between atoms: O_2  and  C_24 
REMARK       I    between atoms: N_5  and  C_17 
REMARK    2  A    between atoms: C_22  and  N_5 
REMARK    3  A    between atoms: C_9  and  C_17 
REMARK    4  A    between atoms: C_22  and  C_23 
REMARK    5  A    between atoms: C_22  and  C_24 
ROOT
HETATM    1  N   UNK N   1      21.450  15.358   6.602  0.00  0.00     0.094 N 
HETATM    2  N   UNK N   1      21.191  12.088  11.669  0.00  0.00    -0.365 N 
HETATM    3  C   UNK N   1      21.759  14.925   7.980  0.00  0.00     0.260 C 
HETATM    4  C   UNK N   1      23.116  14.188   8.050  0.00  0.00    -0.017 C 
HETATM    5  C   UNK N   1      20.590  14.075   8.572  0.00  0.00     0.081 C 
HETATM    6  C   UNK N   1      23.748  15.073   5.815  0.00  0.00     0.129 C 
HETATM    7  C   UNK N   1      22.596  16.058   6.029  0.00  0.00     0.290 C 
HETATM    8  C   UNK N   1      21.037  13.333   9.804  0.00  0.00    -0.027 A 
HETATM    9  C   UNK N   1      23.409  13.384   9.250  0.00  0.00    -0.015 A 
HETATM   10  C   UNK N   1      22.336  13.041  10.032  0.00  0.00     0.009 A 
HETATM   11  C   UNK N   1      24.009  14.266   7.055  0.00  0.00    -0.001 C 
HETATM   12  C   UNK N   1      22.420  12.290  11.146  0.00  0.00     0.043 A 
HETATM   13  C   UNK N   1      20.334  16.295   6.606  0.00  0.00     0.310 C 
HETATM   14  C   UNK N   1      20.320  12.727  10.832  0.00  0.00     0.096 A 
HETATM   15  C   UNK N   1      24.676  12.897   9.633  0.00  0.00     0.013 A 
HETATM   16  C   UNK N   1      23.649  11.800  11.589  0.00  0.00     0.030 A 
HETATM   17  C   UNK N   1      24.794  12.114  10.813  0.00  0.00     0.003 A 
HETATM   18  H   UNK N   1      20.968  11.585  12.484  0.00  0.00     0.165 HD
ENDROOT
BRANCH   6  19
HETATM   19  C   UNK N   1      24.967  15.798   5.325  0.00  0.00     0.227 C 
HETATM   20  O   UNK N   1      25.905  15.184   4.834  0.00  0.00    -0.273 OA
HETATM   21  N   UNK N   1      25.000  17.148   5.431  0.00  0.00    -0.354 N 
HETATM   22  H   UNK N   1      24.220  17.589   5.839  0.00  0.00     0.163 HD
BRANCH  21  23
HETATM   23  C   UNK N   1      26.087  17.993   4.992  0.00  0.00     0.107 C 
BRANCH  23  24
HETATM   24  C   UNK N   1      25.630  19.444   4.843  0.00  0.00     0.023 C 
HETATM   25  C   UNK N   1      25.061  19.711   3.463  0.00  0.00     0.007 C 
ENDBRANCH  23  24
BRANCH  23  26
HETATM   26  C   UNK N   1      27.155  17.928   6.071  0.00  0.00     0.189 C 
BRANCH  26  27
HETATM   27  O   UNK N   1      27.736  19.180   6.264  0.00  0.00    -0.399 OA
HETATM   28  H   UNK N   1      27.366  19.884   6.819  0.00  0.00     0.209 HD
ENDBRANCH  26  27
ENDBRANCH  23  26
ENDBRANCH  21  23
ENDBRANCH   6  19
TORSDOF 5
ENDMDL
MODEL 9
REMARK VINA RESULT:      -6.7      5.263      7.671
REMARK  5 active torsions:
REMARK  status: ('A' for Active; 'I' for Inactive)
REMARK    1  A    between atoms: O_2  and  C_24 
REMARK       I    between atoms: N_5  and  C_17 
REMARK    2  A    between atoms: C_22  and  N_5 
REMARK    3  A    between atoms: C_9  and  C_17 
REMARK    4  A    between atoms: C_22  and  C_23 
REMARK    5  A    between atoms: C_22  and  C_24 
ROOT
HETATM    1  N   UNK N   1      24.988  14.556   3.885  0.00  0.00     0.094 N 
HETATM    2  N   UNK N   1      19.543  16.494   2.145  0.00  0.00    -0.365 N 
HETATM    3  C   UNK N   1      23.971  15.410   3.237  0.00  0.00     0.260 C 
HETATM    4  C   UNK N   1      23.738  16.715   4.033  0.00  0.00    -0.017 C 
HETATM    5  C   UNK N   1      22.648  14.616   2.997  0.00  0.00     0.081 C 
HETATM    6  C   UNK N   1      25.849  16.360   5.295  0.00  0.00     0.129 C 
HETATM    7  C   UNK N   1      26.176  15.345   4.197  0.00  0.00     0.290 C 
HETATM    8  C   UNK N   1      21.509  15.552   2.688  0.00  0.00    -0.027 A 
HETATM    9  C   UNK N   1      22.524  17.499   3.741  0.00  0.00    -0.015 A 
HETATM   10  C   UNK N   1      21.520  16.846   3.075  0.00  0.00     0.009 A 
HETATM   11  C   UNK N   1      24.603  17.131   4.967  0.00  0.00    -0.001 C 
HETATM   12  C   UNK N   1      20.337  17.402   2.753  0.00  0.00     0.043 A 
HETATM   13  C   UNK N   1      25.405  13.493   2.980  0.00  0.00     0.310 C 
HETATM   14  C   UNK N   1      20.263  15.333   2.108  0.00  0.00     0.096 A 
HETATM   15  C   UNK N   1      22.288  18.834   4.128  0.00  0.00     0.013 A 
HETATM   16  C   UNK N   1      20.054  18.727   3.087  0.00  0.00     0.030 A 
HETATM   17  C   UNK N   1      21.053  19.451   3.787  0.00  0.00     0.003 A 
HETATM   18  H   UNK N   1      18.634  16.639   1.798  0.00  0.00     0.165 HD
ENDROOT
BRANCH   6  19
HETATM   19  C   UNK N   1      27.033  17.247   5.552  0.00  0.00     0.227 C 
HETATM   20  O   UNK N   1      28.041  17.160   4.864  0.00  0.00    -0.273 OA
HETATM   21  N   UNK N   1      26.954  18.150   6.559  0.00  0.00    -0.354 N 
HETATM   22  H   UNK N   1      26.120  18.171   7.083  0.00  0.00     0.163 HD
BRANCH  21  23
HETATM   23  C   UNK N   1      27.993  19.085   6.924  0.00  0.00     0.107 C 
BRANCH  23  24
HETATM   24  C   UNK N   1      27.460  20.517   6.949  0.00  0.00     0.023 C 
HETATM   25  C   UNK N   1      26.822  20.899   5.627  0.00  0.00     0.007 C 
ENDBRANCH  23  24
BRANCH  23  26
HETATM   26  C   UNK N   1      28.447  18.710   8.324  0.00  0.00     0.189 C 
BRANCH  26  27
HETATM   27  O   UNK N   1      27.360  18.323   9.106  0.00  0.00    -0.399 OA
HETATM   28  H   UNK N   1      27.286  17.476   9.572  0.00  0.00     0.209 HD
ENDBRANCH  26  27
ENDBRANCH  23  26
ENDBRANCH  21  23
ENDBRANCH   6  19
TORSDOF 5
ENDMDL
