REMARK  9 active torsions:
REMARK  status: ('A' for Active; 'I' for Inactive)
REMARK    1  A    between atoms: S_1  and  S_2 
REMARK    2  A    between atoms: S_1  and  C_15 
REMARK    3  A    between atoms: S_2  and  C_16 
REMARK    4  A    between atoms: N_5  and  C_7 
REMARK    5  A    between atoms: N_5  and  C_8 
REMARK    6  A    between atoms: N_5  and  C_15 
REMARK    7  A    between atoms: N_6  and  C_9 
REMARK    8  A    between atoms: N_6  and  C_10 
REMARK    9  A    between atoms: N_6  and  C_16 
ROOT
HETATM    1  S   UNK N   1       5.578   0.809  -1.033  0.00  0.00    -0.020 SA
ENDROOT
BRANCH   1   2
HETATM    2  S   UNK N   1       4.150  -0.810  -1.033  0.00  0.00    -0.020 SA
BRANCH   2   3
HETATM    3  C   UNK N   1       2.772  -0.092  -0.073  0.00  0.00     0.147 C 
HETATM    4  S   UNK N   1       2.825   1.285   0.366  0.00  0.00    -0.052 SA
BRANCH   3   5
HETATM    5  N   UNK N   1       1.601  -0.897   0.183  0.00  0.00    -0.367 N 
BRANCH   5   6
HETATM    6  C   UNK N   1       1.592  -2.302  -0.159  0.00  0.00     0.120 C 
HETATM    7  C   UNK N   1       2.549  -3.076   0.733  0.00  0.00     0.026 C 
ENDBRANCH   5   6
BRANCH   5   8
HETATM    8  C   UNK N   1       0.397  -0.354   0.782  0.00  0.00     0.120 C 
HETATM    9  C   UNK N   1      -0.286   0.624  -0.162  0.00  0.00     0.026 C 
ENDBRANCH   5   8
ENDBRANCH   3   5
ENDBRANCH   2   3
ENDBRANCH   1   2
BRANCH   1  10
HETATM   10  C   UNK N   1       6.957   0.093  -0.073  0.00  0.00     0.147 C 
HETATM   11  S   UNK N   1       6.903  -1.283   0.370  0.00  0.00    -0.052 SA
BRANCH  10  12
HETATM   12  N   UNK N   1       8.128   0.897   0.180  0.00  0.00    -0.367 N 
BRANCH  12  13
HETATM   13  C   UNK N   1       8.138   2.302  -0.166  0.00  0.00     0.120 C 
HETATM   14  C   UNK N   1       7.182   3.078   0.726  0.00  0.00     0.026 C 
ENDBRANCH  12  13
BRANCH  12  15
HETATM   15  C   UNK N   1       9.333   0.355   0.779  0.00  0.00     0.120 C 
HETATM   16  C   UNK N   1      10.015  -0.624  -0.165  0.00  0.00     0.026 C 
ENDBRANCH  12  15
ENDBRANCH  10  12
ENDBRANCH   1  10
TORSDOF 9
