MODEL 1
REMARK VINA RESULT:      -4.0      0.000      0.000
REMARK  9 active torsions:
REMARK  status: ('A' for Active; 'I' for Inactive)
REMARK    1  A    between atoms: S_1  and  S_2 
REMARK    2  A    between atoms: S_1  and  C_15 
REMARK    3  A    between atoms: S_2  and  C_16 
REMARK    4  A    between atoms: N_5  and  C_7 
REMARK    5  A    between atoms: N_5  and  C_8 
REMARK    6  A    between atoms: N_5  and  C_15 
REMARK    7  A    between atoms: N_6  and  C_9 
REMARK    8  A    between atoms: N_6  and  C_10 
REMARK    9  A    between atoms: N_6  and  C_16 
ROOT
HETATM    1  S   UNK N   1      29.301  16.985   6.674  0.00  0.00    -0.020 SA
ENDROOT
BRANCH   1   2
HETATM    2  S   UNK N   1      28.987  18.060   4.828  0.00  0.00    -0.020 SA
BRANCH   2   3
HETATM    3  C   UNK N   1      27.182  18.341   4.863  0.00  0.00     0.147 C 
HETATM    4  S   UNK N   1      26.275  17.243   5.113  0.00  0.00    -0.052 SA
BRANCH   3   5
HETATM    5  N   UNK N   1      26.678  19.685   4.704  0.00  0.00    -0.367 N 
BRANCH   5   6
HETATM    6  C   UNK N   1      26.634  20.298   3.395  0.00  0.00     0.120 C 
HETATM    7  C   UNK N   1      25.198  20.425   2.912  0.00  0.00     0.026 C 
ENDBRANCH   5   6
BRANCH   5   8
HETATM    8  C   UNK N   1      26.201  20.476   5.822  0.00  0.00     0.120 C 
HETATM    9  C   UNK N   1      27.252  21.484   6.262  0.00  0.00     0.026 C 
ENDBRANCH   5   8
ENDBRANCH   3   5
ENDBRANCH   2   3
ENDBRANCH   1   2
BRANCH   1  10
HETATM   10  C   UNK N   1      30.885  16.136   6.349  0.00  0.00     0.147 C 
HETATM   11  S   UNK N   1      30.898  14.799   5.797  0.00  0.00    -0.052 SA
BRANCH  10  12
HETATM   12  N   UNK N   1      32.121  16.841   6.587  0.00  0.00    -0.367 N 
BRANCH  12  13
HETATM   13  C   UNK N   1      32.356  17.495   7.856  0.00  0.00     0.120 C 
HETATM   14  C   UNK N   1      33.689  18.227   7.840  0.00  0.00     0.026 C 
ENDBRANCH  12  13
BRANCH  12  15
HETATM   15  C   UNK N   1      33.171  16.933   5.591  0.00  0.00     0.120 C 
HETATM   16  C   UNK N   1      32.678  17.657   4.347  0.00  0.00     0.026 C 
ENDBRANCH  12  15
ENDBRANCH  10  12
ENDBRANCH   1  10
TORSDOF 9
ENDMDL
MODEL 2
REMARK VINA RESULT:      -4.0      1.097      2.205
REMARK  9 active torsions:
REMARK  status: ('A' for Active; 'I' for Inactive)
REMARK    1  A    between atoms: S_1  and  S_2 
REMARK    2  A    between atoms: S_1  and  C_15 
REMARK    3  A    between atoms: S_2  and  C_16 
REMARK    4  A    between atoms: N_5  and  C_7 
REMARK    5  A    between atoms: N_5  and  C_8 
REMARK    6  A    between atoms: N_5  and  C_15 
REMARK    7  A    between atoms: N_6  and  C_9 
REMARK    8  A    between atoms: N_6  and  C_10 
REMARK    9  A    between atoms: N_6  and  C_16 
ROOT
HETATM    1  S   UNK N   1      29.498  16.453   6.418  0.00  0.00    -0.020 SA
ENDROOT
BRANCH   1   2
HETATM    2  S   UNK N   1      28.012  17.989   6.718  0.00  0.00    -0.020 SA
BRANCH   2   3
HETATM    3  C   UNK N   1      27.608  18.458   4.999  0.00  0.00     0.147 C 
HETATM    4  S   UNK N   1      27.938  17.575   3.903  0.00  0.00    -0.052 SA
BRANCH   3   5
HETATM    5  N   UNK N   1      26.895  19.690   4.757  0.00  0.00    -0.367 N 
BRANCH   5   6
HETATM    6  C   UNK N   1      26.284  20.407   5.854  0.00  0.00     0.120 C 
HETATM    7  C   UNK N   1      27.110  21.630   6.220  0.00  0.00     0.026 C 
ENDBRANCH   5   6
BRANCH   5   8
HETATM    8  C   UNK N   1      26.755  20.262   3.432  0.00  0.00     0.120 C 
HETATM    9  C   UNK N   1      25.293  20.310   3.013  0.00  0.00     0.026 C 
ENDBRANCH   5   8
ENDBRANCH   3   5
ENDBRANCH   2   3
ENDBRANCH   1   2
BRANCH   1  10
HETATM   10  C   UNK N   1      30.967  17.192   7.213  0.00  0.00     0.147 C 
HETATM   11  S   UNK N   1      30.876  17.748   8.545  0.00  0.00    -0.052 SA
BRANCH  10  12
HETATM   12  N   UNK N   1      32.233  17.153   6.523  0.00  0.00    -0.367 N 
BRANCH  12  13
HETATM   13  C   UNK N   1      33.412  17.736   7.126  0.00  0.00     0.120 C 
HETATM   14  C   UNK N   1      34.471  16.671   7.367  0.00  0.00     0.026 C 
ENDBRANCH  12  13
BRANCH  12  15
HETATM   15  C   UNK N   1      32.392  16.544   5.215  0.00  0.00     0.120 C 
HETATM   16  C   UNK N   1      32.449  17.605   4.126  0.00  0.00     0.026 C 
ENDBRANCH  12  15
ENDBRANCH  10  12
ENDBRANCH   1  10
TORSDOF 9
ENDMDL
MODEL 3
REMARK VINA RESULT:      -4.0      1.503      6.830
REMARK  9 active torsions:
REMARK  status: ('A' for Active; 'I' for Inactive)
REMARK    1  A    between atoms: S_1  and  S_2 
REMARK    2  A    between atoms: S_1  and  C_15 
REMARK    3  A    between atoms: S_2  and  C_16 
REMARK    4  A    between atoms: N_5  and  C_7 
REMARK    5  A    between atoms: N_5  and  C_8 
REMARK    6  A    between atoms: N_5  and  C_15 
REMARK    7  A    between atoms: N_6  and  C_9 
REMARK    8  A    between atoms: N_6  and  C_10 
REMARK    9  A    between atoms: N_6  and  C_16 
ROOT
HETATM    1  S   UNK N   1      28.872  17.531   4.878  0.00  0.00    -0.020 SA
ENDROOT
BRANCH   1   2
HETATM    2  S   UNK N   1      29.924  16.102   6.107  0.00  0.00    -0.020 SA
BRANCH   2   3
HETATM    3  C   UNK N   1      31.630  16.755   6.061  0.00  0.00     0.147 C 
HETATM    4  S   UNK N   1      32.148  17.362   4.855  0.00  0.00    -0.052 SA
BRANCH   3   5
HETATM    5  N   UNK N   1      32.428  16.717   7.263  0.00  0.00    -0.367 N 
BRANCH   5   6
HETATM    6  C   UNK N   1      32.660  17.924   8.024  0.00  0.00     0.120 C 
HETATM    7  C   UNK N   1      34.142  18.260   8.056  0.00  0.00     0.026 C 
ENDBRANCH   5   6
BRANCH   5   8
HETATM    8  C   UNK N   1      33.030  15.494   7.761  0.00  0.00     0.120 C 
HETATM    9  C   UNK N   1      32.361  15.047   9.052  0.00  0.00     0.026 C 
ENDBRANCH   5   8
ENDBRANCH   3   5
ENDBRANCH   2   3
ENDBRANCH   1   2
BRANCH   1  10
HETATM   10  C   UNK N   1      28.186  18.670   6.130  0.00  0.00     0.147 C 
HETATM   11  S   UNK N   1      28.510  18.500   7.529  0.00  0.00    -0.052 SA
BRANCH  10  12
HETATM   12  N   UNK N   1      27.372  19.781   5.697  0.00  0.00    -0.367 N 
BRANCH  12  13
HETATM   13  C   UNK N   1      26.285  19.570   4.766  0.00  0.00     0.120 C 
HETATM   14  C   UNK N   1      26.554  20.299   3.459  0.00  0.00     0.026 C 
ENDBRANCH  12  13
BRANCH  12  15
HETATM   15  C   UNK N   1      27.594  21.138   6.159  0.00  0.00     0.120 C 
HETATM   16  C   UNK N   1      26.393  21.647   6.942  0.00  0.00     0.026 C 
ENDBRANCH  12  15
ENDBRANCH  10  12
ENDBRANCH   1  10
TORSDOF 9
ENDMDL
MODEL 4
REMARK VINA RESULT:      -3.9      1.145      2.724
REMARK  9 active torsions:
REMARK  status: ('A' for Active; 'I' for Inactive)
REMARK    1  A    between atoms: S_1  and  S_2 
REMARK    2  A    between atoms: S_1  and  C_15 
REMARK    3  A    between atoms: S_2  and  C_16 
REMARK    4  A    between atoms: N_5  and  C_7 
REMARK    5  A    between atoms: N_5  and  C_8 
REMARK    6  A    between atoms: N_5  and  C_15 
REMARK    7  A    between atoms: N_6  and  C_9 
REMARK    8  A    between atoms: N_6  and  C_10 
REMARK    9  A    between atoms: N_6  and  C_16 
ROOT
HETATM    1  S   UNK N   1      28.654  16.132   5.692  0.00  0.00    -0.020 SA
ENDROOT
BRANCH   1   2
HETATM    2  S   UNK N   1      28.274  17.502   4.068  0.00  0.00    -0.020 SA
BRANCH   2   3
HETATM    3  C   UNK N   1      26.644  18.185   4.530  0.00  0.00     0.147 C 
HETATM    4  S   UNK N   1      25.578  17.307   4.959  0.00  0.00    -0.052 SA
BRANCH   3   5
HETATM    5  N   UNK N   1      26.457  19.617   4.526  0.00  0.00    -0.367 N 
BRANCH   5   6
HETATM    6  C   UNK N   1      26.224  20.326   5.765  0.00  0.00     0.120 C 
HETATM    7  C   UNK N   1      27.376  21.271   6.065  0.00  0.00     0.026 C 
ENDBRANCH   5   6
BRANCH   5   8
HETATM    8  C   UNK N   1      26.490  20.404   3.309  0.00  0.00     0.120 C 
HETATM    9  C   UNK N   1      25.109  20.482   2.675  0.00  0.00     0.026 C 
ENDBRANCH   5   8
ENDBRANCH   3   5
ENDBRANCH   2   3
ENDBRANCH   1   2
BRANCH   1  10
HETATM   10  C   UNK N   1      29.566  17.189   6.870  0.00  0.00     0.147 C 
HETATM   11  S   UNK N   1      28.851  18.080   7.757  0.00  0.00    -0.052 SA
BRANCH  10  12
HETATM   12  N   UNK N   1      31.002  17.075   6.949  0.00  0.00    -0.367 N 
BRANCH  12  13
HETATM   13  C   UNK N   1      31.743  16.428   5.888  0.00  0.00     0.120 C 
HETATM   14  C   UNK N   1      32.173  17.444   4.842  0.00  0.00     0.026 C 
ENDBRANCH  12  13
BRANCH  12  15
HETATM   15  C   UNK N   1      31.765  17.587   8.072  0.00  0.00     0.120 C 
HETATM   16  C   UNK N   1      32.770  16.555   8.561  0.00  0.00     0.026 C 
ENDBRANCH  12  15
ENDBRANCH  10  12
ENDBRANCH   1  10
TORSDOF 9
ENDMDL
MODEL 5
REMARK VINA RESULT:      -3.9      4.886      9.377
REMARK  9 active torsions:
REMARK  status: ('A' for Active; 'I' for Inactive)
REMARK    1  A    between atoms: S_1  and  S_2 
REMARK    2  A    between atoms: S_1  and  C_15 
REMARK    3  A    between atoms: S_2  and  C_16 
REMARK    4  A    between atoms: N_5  and  C_7 
REMARK    5  A    between atoms: N_5  and  C_8 
REMARK    6  A    between atoms: N_5  and  C_15 
REMARK    7  A    between atoms: N_6  and  C_9 
REMARK    8  A    between atoms: N_6  and  C_10 
REMARK    9  A    between atoms: N_6  and  C_16 
ROOT
HETATM    1  S   UNK N   1      32.864  15.494   9.054  0.00  0.00    -0.020 SA
ENDROOT
BRANCH   1   2
HETATM    2  S   UNK N   1      34.928  15.276   8.457  0.00  0.00    -0.020 SA
BRANCH   2   3
HETATM    3  C   UNK N   1      35.794  15.391  10.061  0.00  0.00     0.147 C 
HETATM    4  S   UNK N   1      35.492  16.465  10.981  0.00  0.00    -0.052 SA
BRANCH   3   5
HETATM    5  N   UNK N   1      36.733  14.357  10.426  0.00  0.00    -0.367 N 
BRANCH   5   6
HETATM    6  C   UNK N   1      37.942  14.163   9.656  0.00  0.00     0.120 C 
HETATM    7  C   UNK N   1      38.840  13.132  10.319  0.00  0.00     0.026 C 
ENDBRANCH   5   6
BRANCH   5   8
HETATM    8  C   UNK N   1      36.522  13.476  11.558  0.00  0.00     0.120 C 
HETATM    9  C   UNK N   1      35.245  12.667  11.386  0.00  0.00     0.026 C 
ENDBRANCH   5   8
ENDBRANCH   3   5
ENDBRANCH   2   3
ENDBRANCH   1   2
BRANCH   1  10
HETATM   10  C   UNK N   1      32.458  17.151   8.402  0.00  0.00     0.147 C 
HETATM   11  S   UNK N   1      33.511  18.060   8.007  0.00  0.00    -0.052 SA
BRANCH  10  12
HETATM   12  N   UNK N   1      31.073  17.515   8.224  0.00  0.00    -0.367 N 
BRANCH  12  13
HETATM   13  C   UNK N   1      30.514  18.637   8.947  0.00  0.00     0.120 C 
HETATM   14  C   UNK N   1      29.354  18.184   9.820  0.00  0.00     0.026 C 
ENDBRANCH  12  13
BRANCH  12  15
HETATM   15  C   UNK N   1      30.184  16.793   7.334  0.00  0.00     0.120 C 
HETATM   16  C   UNK N   1      30.401  17.218   5.889  0.00  0.00     0.026 C 
ENDBRANCH  12  15
ENDBRANCH  10  12
ENDBRANCH   1  10
TORSDOF 9
ENDMDL
MODEL 6
REMARK VINA RESULT:      -3.9      1.095      2.558
REMARK  9 active torsions:
REMARK  status: ('A' for Active; 'I' for Inactive)
REMARK    1  A    between atoms: S_1  and  S_2 
REMARK    2  A    between atoms: S_1  and  C_15 
REMARK    3  A    between atoms: S_2  and  C_16 
REMARK    4  A    between atoms: N_5  and  C_7 
REMARK    5  A    between atoms: N_5  and  C_8 
REMARK    6  A    between atoms: N_5  and  C_15 
REMARK    7  A    between atoms: N_6  and  C_9 
REMARK    8  A    between atoms: N_6  and  C_10 
REMARK    9  A    between atoms: N_6  and  C_16 
ROOT
HETATM    1  S   UNK N   1      29.918  17.318   7.205  0.00  0.00    -0.020 SA
ENDROOT
BRANCH   1   2
HETATM    2  S   UNK N   1      27.906  16.922   6.530  0.00  0.00    -0.020 SA
BRANCH   2   3
HETATM    3  C   UNK N   1      27.821  17.922   5.004  0.00  0.00     0.147 C 
HETATM    4  S   UNK N   1      28.120  17.327   3.721  0.00  0.00    -0.052 SA
BRANCH   3   5
HETATM    5  N   UNK N   1      27.385  19.296   5.090  0.00  0.00    -0.367 N 
BRANCH   5   6
HETATM    6  C   UNK N   1      27.248  19.940   6.378  0.00  0.00     0.120 C 
HETATM    7  C   UNK N   1      27.399  21.446   6.242  0.00  0.00     0.026 C 
ENDBRANCH   5   6
BRANCH   5   8
HETATM    8  C   UNK N   1      27.068  20.088   3.917  0.00  0.00     0.120 C 
HETATM    9  C   UNK N   1      25.602  19.936   3.539  0.00  0.00     0.026 C 
ENDBRANCH   5   8
ENDBRANCH   3   5
ENDBRANCH   2   3
ENDBRANCH   1   2
BRANCH   1  10
HETATM   10  C   UNK N   1      30.905  16.273   6.078  0.00  0.00     0.147 C 
HETATM   11  S   UNK N   1      30.475  14.928   5.764  0.00  0.00    -0.052 SA
BRANCH  10  12
HETATM   12  N   UNK N   1      32.081  16.829   5.453  0.00  0.00    -0.367 N 
BRANCH  12  13
HETATM   13  C   UNK N   1      31.960  17.640   4.261  0.00  0.00     0.120 C 
HETATM   14  C   UNK N   1      32.604  16.942   3.074  0.00  0.00     0.026 C 
ENDBRANCH  12  13
BRANCH  12  15
HETATM   15  C   UNK N   1      33.418  16.610   5.972  0.00  0.00     0.120 C 
HETATM   16  C   UNK N   1      33.831  17.741   6.902  0.00  0.00     0.026 C 
ENDBRANCH  12  15
ENDBRANCH  10  12
ENDBRANCH   1  10
TORSDOF 9
ENDMDL
MODEL 7
REMARK VINA RESULT:      -3.9      0.977      6.437
REMARK  9 active torsions:
REMARK  status: ('A' for Active; 'I' for Inactive)
REMARK    1  A    between atoms: S_1  and  S_2 
REMARK    2  A    between atoms: S_1  and  C_15 
REMARK    3  A    between atoms: S_2  and  C_16 
REMARK    4  A    between atoms: N_5  and  C_7 
REMARK    5  A    between atoms: N_5  and  C_8 
REMARK    6  A    between atoms: N_5  and  C_15 
REMARK    7  A    between atoms: N_6  and  C_9 
REMARK    8  A    between atoms: N_6  and  C_10 
REMARK    9  A    between atoms: N_6  and  C_16 
ROOT
HETATM    1  S   UNK N   1      29.460  17.538   4.928  0.00  0.00    -0.020 SA
ENDROOT
BRANCH   1   2
HETATM    2  S   UNK N   1      29.989  17.231   6.998  0.00  0.00    -0.020 SA
BRANCH   2   3
HETATM    3  C   UNK N   1      31.604  16.390   6.850  0.00  0.00     0.147 C 
HETATM    4  S   UNK N   1      31.669  14.953   6.693  0.00  0.00    -0.052 SA
BRANCH   3   5
HETATM    5  N   UNK N   1      32.809  17.184   6.823  0.00  0.00    -0.367 N 
BRANCH   5   6
HETATM    6  C   UNK N   1      33.706  17.111   5.691  0.00  0.00     0.120 C 
HETATM    7  C   UNK N   1      33.030  17.641   4.437  0.00  0.00     0.026 C 
ENDBRANCH   5   6
BRANCH   5   8
HETATM    8  C   UNK N   1      33.179  18.076   7.904  0.00  0.00     0.120 C 
HETATM    9  C   UNK N   1      34.135  17.393   8.870  0.00  0.00     0.026 C 
ENDBRANCH   5   8
ENDBRANCH   3   5
ENDBRANCH   2   3
ENDBRANCH   1   2
BRANCH   1  10
HETATM   10  C   UNK N   1      27.654  17.787   5.035  0.00  0.00     0.147 C 
HETATM   11  S   UNK N   1      26.821  16.819   5.714  0.00  0.00    -0.052 SA
BRANCH  10  12
HETATM   12  N   UNK N   1      27.079  18.994   4.493  0.00  0.00    -0.367 N 
BRANCH  12  13
HETATM   13  C   UNK N   1      27.649  20.284   4.816  0.00  0.00     0.120 C 
HETATM   14  C   UNK N   1      27.492  20.581   6.299  0.00  0.00     0.026 C 
ENDBRANCH  12  13
BRANCH  12  15
HETATM   15  C   UNK N   1      25.923  18.983   3.616  0.00  0.00     0.120 C 
HETATM   16  C   UNK N   1      25.687  20.359   3.012  0.00  0.00     0.026 C 
ENDBRANCH  12  15
ENDBRANCH  10  12
ENDBRANCH   1  10
TORSDOF 9
ENDMDL
MODEL 8
REMARK VINA RESULT:      -3.8      1.205      6.821
REMARK  9 active torsions:
REMARK  status: ('A' for Active; 'I' for Inactive)
REMARK    1  A    between atoms: S_1  and  S_2 
REMARK    2  A    between atoms: S_1  and  C_15 
REMARK    3  A    between atoms: S_2  and  C_16 
REMARK    4  A    between atoms: N_5  and  C_7 
REMARK    5  A    between atoms: N_5  and  C_8 
REMARK    6  A    between atoms: N_5  and  C_15 
REMARK    7  A    between atoms: N_6  and  C_9 
REMARK    8  A    between atoms: N_6  and  C_10 
REMARK    9  A    between atoms: N_6  and  C_16 
ROOT
HETATM    1  S   UNK N   1      27.878  17.627   6.281  0.00  0.00    -0.020 SA
ENDROOT
BRANCH   1   2
HETATM    2  S   UNK N   1      29.538  17.428   4.915  0.00  0.00    -0.020 SA
BRANCH   2   3
HETATM    3  C   UNK N   1      30.922  17.083   6.057  0.00  0.00     0.147 C 
HETATM    4  S   UNK N   1      30.664  16.765   7.444  0.00  0.00    -0.052 SA
BRANCH   3   5
HETATM    5  N   UNK N   1      32.270  17.065   5.540  0.00  0.00    -0.367 N 
BRANCH   5   6
HETATM    6  C   UNK N   1      33.336  16.453   6.303  0.00  0.00     0.120 C 
HETATM    7  C   UNK N   1      34.173  17.514   6.998  0.00  0.00     0.026 C 
ENDBRANCH   5   6
BRANCH   5   8
HETATM    8  C   UNK N   1      32.622  17.647   4.260  0.00  0.00     0.120 C 
HETATM    9  C   UNK N   1      32.930  16.564   3.237  0.00  0.00     0.026 C 
ENDBRANCH   5   8
ENDBRANCH   3   5
ENDBRANCH   2   3
ENDBRANCH   1   2
BRANCH   1  10
HETATM   10  C   UNK N   1      26.532  18.147   5.162  0.00  0.00     0.147 C 
HETATM   11  S   UNK N   1      25.583  17.178   4.661  0.00  0.00    -0.052 SA
BRANCH  10  12
HETATM   12  N   UNK N   1      26.388  19.546   4.839  0.00  0.00    -0.367 N 
BRANCH  12  13
HETATM   13  C   UNK N   1      25.196  20.023   4.172  0.00  0.00     0.120 C 
HETATM   14  C   UNK N   1      25.522  20.484   2.761  0.00  0.00     0.026 C 
ENDBRANCH  12  13
BRANCH  12  15
HETATM   15  C   UNK N   1      27.407  20.529   5.155  0.00  0.00     0.120 C 
HETATM   16  C   UNK N   1      26.931  21.471   6.251  0.00  0.00     0.026 C 
ENDBRANCH  12  15
ENDBRANCH  10  12
ENDBRANCH   1  10
TORSDOF 9
ENDMDL
MODEL 9
REMARK VINA RESULT:      -3.8      4.981      7.515
REMARK  9 active torsions:
REMARK  status: ('A' for Active; 'I' for Inactive)
REMARK    1  A    between atoms: S_1  and  S_2 
REMARK    2  A    between atoms: S_1  and  C_15 
REMARK    3  A    between atoms: S_2  and  C_16 
REMARK    4  A    between atoms: N_5  and  C_7 
REMARK    5  A    between atoms: N_5  and  C_8 
REMARK    6  A    between atoms: N_5  and  C_15 
REMARK    7  A    between atoms: N_6  and  C_9 
REMARK    8  A    between atoms: N_6  and  C_10 
REMARK    9  A    between atoms: N_6  and  C_16 
ROOT
HETATM    1  S   UNK N   1      35.090  14.412   8.840  0.00  0.00    -0.020 SA
ENDROOT
BRANCH   1   2
HETATM    2  S   UNK N   1      32.970  14.790   8.983  0.00  0.00    -0.020 SA
BRANCH   2   3
HETATM    3  C   UNK N   1      32.584  15.391   7.302  0.00  0.00     0.147 C 
HETATM    4  S   UNK N   1      31.693  14.643   6.443  0.00  0.00    -0.052 SA
BRANCH   3   5
HETATM    5  N   UNK N   1      33.126  16.657   6.868  0.00  0.00    -0.367 N 
BRANCH   5   6
HETATM    6  C   UNK N   1      33.787  16.768   5.587  0.00  0.00     0.120 C 
HETATM    7  C   UNK N   1      32.976  17.638   4.640  0.00  0.00     0.026 C 
ENDBRANCH   5   6
BRANCH   5   8
HETATM    8  C   UNK N   1      33.042  17.859   7.675  0.00  0.00     0.120 C 
HETATM    9  C   UNK N   1      34.427  18.334   8.089  0.00  0.00     0.026 C 
ENDBRANCH   5   8
ENDBRANCH   3   5
ENDBRANCH   2   3
ENDBRANCH   1   2
BRANCH   1  10
HETATM   10  C   UNK N   1      35.661  14.838  10.522  0.00  0.00     0.147 C 
HETATM   11  S   UNK N   1      35.626  16.209  10.981  0.00  0.00    -0.052 SA
BRANCH  10  12
HETATM   12  N   UNK N   1      36.086  13.781  11.408  0.00  0.00    -0.367 N 
BRANCH  12  13
HETATM   13  C   UNK N   1      35.201  13.299  12.446  0.00  0.00     0.120 C 
HETATM   14  C   UNK N   1      35.704  13.725  13.816  0.00  0.00     0.026 C 
ENDBRANCH  12  13
BRANCH  12  15
HETATM   15  C   UNK N   1      37.393  13.159  11.311  0.00  0.00     0.120 C 
HETATM   16  C   UNK N   1      37.265  11.653  11.133  0.00  0.00     0.026 C 
ENDBRANCH  12  15
ENDBRANCH  10  12
ENDBRANCH   1  10
TORSDOF 9
ENDMDL
