MODEL 1
REMARK VINA RESULT:      -7.5      0.000      0.000
REMARK  4 active torsions:
REMARK  status: ('A' for Active; 'I' for Inactive)
REMARK    1  A    between atoms: C_9  and  O_1 
REMARK    2  A    between atoms: O_1  and  C_24 
REMARK    3  A    between atoms: C_23  and  O_2 
REMARK    4  A    between atoms: O_2  and  C_27 
ROOT
HETATM    1  C   UNK N   1      32.597  16.314   6.672  0.00  0.00     0.003 C 
HETATM    2  C   UNK N   1      31.632  16.901   7.706  0.00  0.00     0.002 C 
HETATM    3  C   UNK N   1      30.505  17.684   7.036  0.00  0.00    -0.005 C 
HETATM    4  C   UNK N   1      29.808  16.855   5.902  0.00  0.00    -0.002 C 
HETATM    5  C   UNK N   1      33.708  15.790   7.599  0.00  0.00     0.140 C 
HETATM    6  C   UNK N   1      31.842  15.306   5.809  0.00  0.00     0.014 C 
HETATM    7  C   UNK N   1      32.576  17.702   8.620  0.00  0.00     0.010 C 
HETATM    8  C   UNK N   1      30.803  16.095   4.999  0.00  0.00     0.006 C 
HETATM    9  C   UNK N   1      29.023  17.897   5.080  0.00  0.00     0.019 C 
HETATM   10  C   UNK N   1      33.975  17.059   8.425  0.00  0.00     0.053 C 
HETATM   11  C   UNK N   1      29.424  18.141   8.028  0.00  0.00     0.009 C 
HETATM   12  C   UNK N   1      33.190  17.400   5.725  0.00  0.00     0.020 C 
HETATM   13  C   UNK N   1      27.963  18.515   5.979  0.00  0.00    -0.077 C 
HETATM   14  C   UNK N   1      28.373  19.031   7.341  0.00  0.00     0.034 C 
HETATM   15  C   UNK N   1      28.522  17.372   3.725  0.00  0.00     0.012 C 
HETATM   16  C   UNK N   1      27.040  17.049   3.690  0.00  0.00     0.037 C 
HETATM   17  C   UNK N   1      34.835  15.270   6.795  0.00  0.00    -0.077 C 
HETATM   18  C   UNK N   1      26.690  18.656   5.579  0.00  0.00     0.008 C 
HETATM   19  C   UNK N   1      26.223  18.238   4.206  0.00  0.00     0.155 C 
HETATM   20  C   UNK N   1      35.777  14.838   6.172  0.00  0.00     0.015 C 
ENDROOT
BRANCH   5  21
HETATM   21  O   UNK N   1      33.215  14.826   8.468  0.00  0.00    -0.296 OA
BRANCH  21  22
HETATM   22  C   UNK N   1      33.955  14.209   9.433  0.00  0.00     0.256 C 
HETATM   23  O   UNK N   1      34.416  13.095   9.215  0.00  0.00    -0.266 OA
HETATM   24  C   UNK N   1      34.142  14.826  10.789  0.00  0.00     0.126 C 
ENDBRANCH  21  22
ENDBRANCH   5  21
BRANCH  19  25
HETATM   25  O   UNK N   1      26.124  19.368   3.379  0.00  0.00    -0.312 OA
BRANCH  25  26
HETATM   26  C   UNK N   1      25.012  20.023   2.917  0.00  0.00     0.255 C 
HETATM   27  O   UNK N   1      25.070  20.825   1.999  0.00  0.00    -0.266 OA
HETATM   28  C   UNK N   1      23.678  19.734   3.532  0.00  0.00     0.126 C 
ENDBRANCH  25  26
ENDBRANCH  19  25
TORSDOF 4
ENDMDL
MODEL 2
REMARK VINA RESULT:      -7.4      1.987      8.135
REMARK  4 active torsions:
REMARK  status: ('A' for Active; 'I' for Inactive)
REMARK    1  A    between atoms: C_9  and  O_1 
REMARK    2  A    between atoms: O_1  and  C_24 
REMARK    3  A    between atoms: C_23  and  O_2 
REMARK    4  A    between atoms: O_2  and  C_27 
ROOT
HETATM    1  C   UNK N   1      27.864  15.800   4.675  0.00  0.00     0.003 C 
HETATM    2  C   UNK N   1      27.734  16.662   5.934  0.00  0.00     0.002 C 
HETATM    3  C   UNK N   1      29.032  16.672   6.739  0.00  0.00    -0.005 C 
HETATM    4  C   UNK N   1      30.274  17.018   5.848  0.00  0.00    -0.002 C 
HETATM    5  C   UNK N   1      26.402  15.792   4.195  0.00  0.00     0.140 C 
HETATM    6  C   UNK N   1      28.920  16.418   3.761  0.00  0.00     0.014 C 
HETATM    7  C   UNK N   1      26.502  16.053   6.624  0.00  0.00     0.010 C 
HETATM    8  C   UNK N   1      30.269  16.293   4.484  0.00  0.00     0.006 C 
HETATM    9  C   UNK N   1      31.493  16.580   6.686  0.00  0.00     0.019 C 
HETATM   10  C   UNK N   1      25.707  15.349   5.493  0.00  0.00     0.053 C 
HETATM   11  C   UNK N   1      28.996  17.661   7.915  0.00  0.00     0.009 C 
HETATM   12  C   UNK N   1      28.306  14.341   4.995  0.00  0.00     0.020 C 
HETATM   13  C   UNK N   1      31.529  17.422   7.951  0.00  0.00    -0.077 C 
HETATM   14  C   UNK N   1      30.268  17.553   8.776  0.00  0.00     0.034 C 
HETATM   15  C   UNK N   1      32.806  16.519   5.889  0.00  0.00     0.012 C 
HETATM   16  C   UNK N   1      33.747  17.681   6.147  0.00  0.00     0.037 C 
HETATM   17  C   UNK N   1      26.258  14.900   3.024  0.00  0.00    -0.077 C 
HETATM   18  C   UNK N   1      32.657  18.010   8.379  0.00  0.00     0.008 C 
HETATM   19  C   UNK N   1      33.972  17.860   7.652  0.00  0.00     0.155 C 
HETATM   20  C   UNK N   1      26.100  14.178   2.068  0.00  0.00     0.015 C 
ENDROOT
BRANCH   5  21
HETATM   21  O   UNK N   1      25.966  17.079   3.911  0.00  0.00    -0.296 OA
BRANCH  21  22
HETATM   22  C   UNK N   1      24.682  17.511   4.073  0.00  0.00     0.256 C 
HETATM   23  O   UNK N   1      23.771  16.893   3.536  0.00  0.00    -0.266 OA
HETATM   24  C   UNK N   1      24.371  18.775   4.818  0.00  0.00     0.126 C 
ENDBRANCH  21  22
ENDBRANCH   5  21
BRANCH  19  25
HETATM   25  O   UNK N   1      34.765  16.907   8.310  0.00  0.00    -0.312 OA
BRANCH  25  26
HETATM   26  C   UNK N   1      34.967  16.709   9.651  0.00  0.00     0.255 C 
HETATM   27  O   UNK N   1      35.572  17.516  10.339  0.00  0.00    -0.266 OA
HETATM   28  C   UNK N   1      34.412  15.482  10.306  0.00  0.00     0.126 C 
ENDBRANCH  25  26
ENDBRANCH  19  25
TORSDOF 4
ENDMDL
MODEL 3
REMARK VINA RESULT:      -7.4      5.723     10.741
REMARK  4 active torsions:
REMARK  status: ('A' for Active; 'I' for Inactive)
REMARK    1  A    between atoms: C_9  and  O_1 
REMARK    2  A    between atoms: O_1  and  C_24 
REMARK    3  A    between atoms: C_23  and  O_2 
REMARK    4  A    between atoms: O_2  and  C_27 
ROOT
HETATM    1  C   UNK N   1      35.441  12.090  15.769  0.00  0.00     0.003 C 
HETATM    2  C   UNK N   1      35.422  11.185  14.534  0.00  0.00     0.002 C 
HETATM    3  C   UNK N   1      35.029  11.964  13.279  0.00  0.00    -0.005 C 
HETATM    4  C   UNK N   1      35.879  13.270  13.107  0.00  0.00    -0.002 C 
HETATM    5  C   UNK N   1      35.642  11.040  16.875  0.00  0.00     0.140 C 
HETATM    6  C   UNK N   1      36.518  13.157  15.582  0.00  0.00     0.014 C 
HETATM    7  C   UNK N   1      34.471  10.057  14.967  0.00  0.00     0.010 C 
HETATM    8  C   UNK N   1      36.065  14.056  14.423  0.00  0.00     0.006 C 
HETATM    9  C   UNK N   1      35.097  14.115  12.081  0.00  0.00     0.019 C 
HETATM   10  C   UNK N   1      34.505  10.069  16.518  0.00  0.00     0.053 C 
HETATM   11  C   UNK N   1      35.164  11.132  11.994  0.00  0.00     0.009 C 
HETATM   12  C   UNK N   1      34.084  12.820  15.995  0.00  0.00     0.020 C 
HETATM   13  C   UNK N   1      35.065  13.356  10.763  0.00  0.00    -0.077 C 
HETATM   14  C   UNK N   1      34.642  11.904  10.769  0.00  0.00     0.034 C 
HETATM   15  C   UNK N   1      35.563  15.577  11.995  0.00  0.00     0.012 C 
HETATM   16  C   UNK N   1      36.410  15.892  10.777  0.00  0.00     0.037 C 
HETATM   17  C   UNK N   1      35.575  11.685  18.204  0.00  0.00    -0.077 C 
HETATM   18  C   UNK N   1      35.354  13.951   9.596  0.00  0.00     0.008 C 
HETATM   19  C   UNK N   1      35.707  15.416   9.501  0.00  0.00     0.155 C 
HETATM   20  C   UNK N   1      35.523  12.176  19.308  0.00  0.00     0.015 C 
ENDROOT
BRANCH   5  21
HETATM   21  O   UNK N   1      36.839  10.358  16.701  0.00  0.00    -0.296 OA
BRANCH  21  22
HETATM   22  C   UNK N   1      37.082   9.098  17.163  0.00  0.00     0.256 C 
HETATM   23  O   UNK N   1      37.148   8.905  18.370  0.00  0.00    -0.266 OA
HETATM   24  C   UNK N   1      37.358   7.961  16.223  0.00  0.00     0.126 C 
ENDBRANCH  21  22
ENDBRANCH   5  21
BRANCH  19  25
HETATM   25  O   UNK N   1      34.587  16.142   9.066  0.00  0.00    -0.312 OA
BRANCH  25  26
HETATM   26  C   UNK N   1      34.493  17.444   8.648  0.00  0.00     0.255 C 
HETATM   27  O   UNK N   1      35.239  18.313   9.072  0.00  0.00    -0.266 OA
HETATM   28  C   UNK N   1      33.467  17.818   7.624  0.00  0.00     0.126 C 
ENDBRANCH  25  26
ENDBRANCH  19  25
TORSDOF 4
ENDMDL
MODEL 4
REMARK VINA RESULT:      -7.3      9.639     13.830
REMARK  4 active torsions:
REMARK  status: ('A' for Active; 'I' for Inactive)
REMARK    1  A    between atoms: C_9  and  O_1 
REMARK    2  A    between atoms: O_1  and  C_24 
REMARK    3  A    between atoms: C_23  and  O_2 
REMARK    4  A    between atoms: O_2  and  C_27 
ROOT
HETATM    1  C   UNK N   1      35.862  11.472  13.119  0.00  0.00     0.003 C 
HETATM    2  C   UNK N   1      36.033  12.767  13.918  0.00  0.00     0.002 C 
HETATM    3  C   UNK N   1      35.514  12.613  15.346  0.00  0.00    -0.005 C 
HETATM    4  C   UNK N   1      36.098  11.341  16.050  0.00  0.00    -0.002 C 
HETATM    5  C   UNK N   1      36.247  11.963  11.713  0.00  0.00     0.140 C 
HETATM    6  C   UNK N   1      36.716  10.380  13.760  0.00  0.00     0.014 C 
HETATM    7  C   UNK N   1      35.313  13.798  13.032  0.00  0.00     0.010 C 
HETATM    8  C   UNK N   1      36.113  10.091  15.143  0.00  0.00     0.006 C 
HETATM    9  C   UNK N   1      35.182  11.110  17.269  0.00  0.00     0.019 C 
HETATM   10  C   UNK N   1      35.323  13.188  11.605  0.00  0.00     0.053 C 
HETATM   11  C   UNK N   1      35.823  13.833  16.228  0.00  0.00     0.009 C 
HETATM   12  C   UNK N   1      34.387  10.972  13.101  0.00  0.00     0.020 C 
HETATM   13  C   UNK N   1      35.313  12.307  18.198  0.00  0.00    -0.077 C 
HETATM   14  C   UNK N   1      35.178  13.698  17.618  0.00  0.00     0.034 C 
HETATM   15  C   UNK N   1      35.358   9.733  17.929  0.00  0.00     0.012 C 
HETATM   16  C   UNK N   1      36.145   9.758  19.226  0.00  0.00     0.037 C 
HETATM   17  C   UNK N   1      36.040  10.884  10.724  0.00  0.00    -0.077 C 
HETATM   18  C   UNK N   1      35.497  12.161  19.519  0.00  0.00     0.008 C 
HETATM   19  C   UNK N   1      35.562  10.806  20.181  0.00  0.00     0.155 C 
HETATM   20  C   UNK N   1      35.881  10.027   9.886  0.00  0.00     0.015 C 
ENDROOT
BRANCH   5  21
HETATM   21  O   UNK N   1      37.555  12.429  11.691  0.00  0.00    -0.296 OA
BRANCH  21  22
HETATM   22  C   UNK N   1      38.223  12.798  10.560  0.00  0.00     0.256 C 
HETATM   23  O   UNK N   1      39.044  12.031  10.072  0.00  0.00    -0.266 OA
HETATM   24  C   UNK N   1      38.039  14.157   9.952  0.00  0.00     0.126 C 
ENDBRANCH  21  22
ENDBRANCH   5  21
BRANCH  19  25
HETATM   25  O   UNK N   1      34.329  10.519  20.788  0.00  0.00    -0.312 OA
BRANCH  25  26
HETATM   26  C   UNK N   1      33.762   9.309  21.094  0.00  0.00     0.255 C 
HETATM   27  O   UNK N   1      34.159   8.629  22.027  0.00  0.00    -0.266 OA
HETATM   28  C   UNK N   1      32.606   8.810  20.285  0.00  0.00     0.126 C 
ENDBRANCH  25  26
ENDBRANCH  19  25
TORSDOF 4
ENDMDL
MODEL 5
REMARK VINA RESULT:      -7.2     10.921     15.088
REMARK  4 active torsions:
REMARK  status: ('A' for Active; 'I' for Inactive)
REMARK    1  A    between atoms: C_9  and  O_1 
REMARK    2  A    between atoms: O_1  and  C_24 
REMARK    3  A    between atoms: C_23  and  O_2 
REMARK    4  A    between atoms: O_2  and  C_27 
ROOT
HETATM    1  C   UNK N   1      28.102  24.785  -5.186  0.00  0.00     0.003 C 
HETATM    2  C   UNK N   1      28.537  24.341  -3.787  0.00  0.00     0.002 C 
HETATM    3  C   UNK N   1      29.615  23.261  -3.855  0.00  0.00    -0.005 C 
HETATM    4  C   UNK N   1      30.799  23.671  -4.796  0.00  0.00    -0.002 C 
HETATM    5  C   UNK N   1      26.901  25.678  -4.830  0.00  0.00     0.140 C 
HETATM    6  C   UNK N   1      29.294  25.426  -5.893  0.00  0.00     0.014 C 
HETATM    7  C   UNK N   1      27.201  23.938  -3.139  0.00  0.00     0.010 C 
HETATM    8  C   UNK N   1      30.333  24.318  -6.119  0.00  0.00     0.006 C 
HETATM    9  C   UNK N   1      31.552  22.355  -5.077  0.00  0.00     0.019 C 
HETATM   10  C   UNK N   1      26.113  24.707  -3.935  0.00  0.00     0.053 C 
HETATM   11  C   UNK N   1      30.198  22.913  -2.476  0.00  0.00     0.009 C 
HETATM   12  C   UNK N   1      27.613  23.595  -6.065  0.00  0.00     0.020 C 
HETATM   13  C   UNK N   1      32.109  21.833  -3.762  0.00  0.00    -0.077 C 
HETATM   14  C   UNK N   1      31.188  21.737  -2.567  0.00  0.00     0.034 C 
HETATM   15  C   UNK N   1      32.557  22.448  -6.236  0.00  0.00     0.012 C 
HETATM   16  C   UNK N   1      34.008  22.534  -5.799  0.00  0.00     0.037 C 
HETATM   17  C   UNK N   1      26.229  26.140  -6.064  0.00  0.00    -0.077 C 
HETATM   18  C   UNK N   1      33.379  21.414  -3.648  0.00  0.00     0.008 C 
HETATM   19  C   UNK N   1      34.336  21.406  -4.816  0.00  0.00     0.155 C 
HETATM   20  C   UNK N   1      25.652  26.535  -7.050  0.00  0.00     0.015 C 
ENDROOT
BRANCH   5  21
HETATM   21  O   UNK N   1      27.295  26.746  -4.036  0.00  0.00    -0.296 OA
BRANCH  21  22
HETATM   22  C   UNK N   1      26.506  27.819  -3.740  0.00  0.00     0.256 C 
HETATM   23  O   UNK N   1      25.589  27.685  -2.939  0.00  0.00    -0.266 OA
HETATM   24  C   UNK N   1      26.680  29.134  -4.440  0.00  0.00     0.126 C 
ENDBRANCH  21  22
ENDBRANCH   5  21
BRANCH  19  25
HETATM   25  O   UNK N   1      34.437  20.104  -5.330  0.00  0.00    -0.312 OA
BRANCH  25  26
HETATM   26  C   UNK N   1      35.033  18.992  -4.793  0.00  0.00     0.255 C 
HETATM   27  O   UNK N   1      36.244  18.837  -4.812  0.00  0.00    -0.266 OA
HETATM   28  C   UNK N   1      34.187  17.945  -4.139  0.00  0.00     0.126 C 
ENDBRANCH  25  26
ENDBRANCH  19  25
TORSDOF 4
ENDMDL
MODEL 6
REMARK VINA RESULT:      -7.1      9.921     13.991
REMARK  4 active torsions:
REMARK  status: ('A' for Active; 'I' for Inactive)
REMARK    1  A    between atoms: C_9  and  O_1 
REMARK    2  A    between atoms: O_1  and  C_24 
REMARK    3  A    between atoms: C_23  and  O_2 
REMARK    4  A    between atoms: O_2  and  C_27 
ROOT
HETATM    1  C   UNK N   1      35.308   9.713  18.574  0.00  0.00     0.003 C 
HETATM    2  C   UNK N   1      35.081  11.226  18.644  0.00  0.00     0.002 C 
HETATM    3  C   UNK N   1      35.669  11.934  17.425  0.00  0.00    -0.005 C 
HETATM    4  C   UNK N   1      35.203  11.275  16.081  0.00  0.00    -0.002 C 
HETATM    5  C   UNK N   1      34.832   9.298  19.977  0.00  0.00     0.140 C 
HETATM    6  C   UNK N   1      34.559   9.157  17.365  0.00  0.00     0.014 C 
HETATM    7  C   UNK N   1      35.692  11.587  20.009  0.00  0.00     0.010 C 
HETATM    8  C   UNK N   1      35.237   9.732  16.112  0.00  0.00     0.006 C 
HETATM    9  C   UNK N   1      36.183  11.814  15.019  0.00  0.00     0.019 C 
HETATM   10  C   UNK N   1      35.664  10.271  20.829  0.00  0.00     0.053 C 
HETATM   11  C   UNK N   1      35.312  13.428  17.374  0.00  0.00     0.009 C 
HETATM   12  C   UNK N   1      36.812   9.342  18.413  0.00  0.00     0.020 C 
HETATM   13  C   UNK N   1      36.008  13.322  14.929  0.00  0.00    -0.077 C 
HETATM   14  C   UNK N   1      36.023  14.134  16.205  0.00  0.00     0.034 C 
HETATM   15  C   UNK N   1      36.129  11.058  13.682  0.00  0.00     0.012 C 
HETATM   16  C   UNK N   1      35.398  11.795  12.576  0.00  0.00     0.037 C 
HETATM   17  C   UNK N   1      35.072   7.854  20.188  0.00  0.00    -0.077 C 
HETATM   18  C   UNK N   1      35.890  13.952  13.751  0.00  0.00     0.008 C 
HETATM   19  C   UNK N   1      35.946  13.219  12.432  0.00  0.00     0.155 C 
HETATM   20  C   UNK N   1      35.255   6.678  20.398  0.00  0.00     0.015 C 
ENDROOT
BRANCH   5  21
HETATM   21  O   UNK N   1      33.495   9.624  20.164  0.00  0.00    -0.296 OA
BRANCH  21  22
HETATM   22  C   UNK N   1      32.799   9.392  21.314  0.00  0.00     0.256 C 
HETATM   23  O   UNK N   1      32.191   8.336  21.443  0.00  0.00    -0.266 OA
HETATM   24  C   UNK N   1      32.688  10.437  22.385  0.00  0.00     0.126 C 
ENDBRANCH  21  22
ENDBRANCH   5  21
BRANCH  19  25
HETATM   25  O   UNK N   1      37.219  13.372  11.864  0.00  0.00    -0.312 OA
BRANCH  25  26
HETATM   26  C   UNK N   1      37.579  13.557  10.554  0.00  0.00     0.255 C 
HETATM   27  O   UNK N   1      37.037  14.393   9.848  0.00  0.00    -0.266 OA
HETATM   28  C   UNK N   1      38.685  12.735   9.969  0.00  0.00     0.126 C 
ENDBRANCH  25  26
ENDBRANCH  19  25
TORSDOF 4
ENDMDL
MODEL 7
REMARK VINA RESULT:      -7.0     10.781     12.607
REMARK  4 active torsions:
REMARK  status: ('A' for Active; 'I' for Inactive)
REMARK    1  A    between atoms: C_9  and  O_1 
REMARK    2  A    between atoms: O_1  and  C_24 
REMARK    3  A    between atoms: C_23  and  O_2 
REMARK    4  A    between atoms: O_2  and  C_27 
ROOT
HETATM    1  C   UNK N   1      33.120  21.892  -5.246  0.00  0.00     0.003 C 
HETATM    2  C   UNK N   1      32.330  21.443  -4.014  0.00  0.00     0.002 C 
HETATM    3  C   UNK N   1      31.230  22.443  -3.663  0.00  0.00    -0.005 C 
HETATM    4  C   UNK N   1      30.340  22.797  -4.904  0.00  0.00    -0.002 C 
HETATM    5  C   UNK N   1      34.257  20.856  -5.237  0.00  0.00     0.140 C 
HETATM    6  C   UNK N   1      32.182  21.922  -6.450  0.00  0.00     0.014 C 
HETATM    7  C   UNK N   1      33.438  21.246  -2.966  0.00  0.00     0.010 C 
HETATM    8  C   UNK N   1      31.155  23.035  -6.194  0.00  0.00     0.006 C 
HETATM    9  C   UNK N   1      29.590  24.081  -4.496  0.00  0.00     0.019 C 
HETATM   10  C   UNK N   1      34.736  21.012  -3.784  0.00  0.00     0.053 C 
HETATM   11  C   UNK N   1      30.307  21.944  -2.540  0.00  0.00     0.009 C 
HETATM   12  C   UNK N   1      33.725  23.318  -5.080  0.00  0.00     0.020 C 
HETATM   13  C   UNK N   1      28.696  23.756  -3.310  0.00  0.00    -0.077 C 
HETATM   14  C   UNK N   1      29.292  23.025  -2.127  0.00  0.00     0.034 C 
HETATM   15  C   UNK N   1      28.904  24.800  -5.669  0.00  0.00     0.012 C 
HETATM   16  C   UNK N   1      27.400  24.606  -5.727  0.00  0.00     0.037 C 
HETATM   17  C   UNK N   1      35.238  21.169  -6.298  0.00  0.00    -0.077 C 
HETATM   18  C   UNK N   1      27.411  24.140  -3.265  0.00  0.00     0.008 C 
HETATM   19  C   UNK N   1      26.768  24.941  -4.372  0.00  0.00     0.155 C 
HETATM   20  C   UNK N   1      36.062  21.394  -7.153  0.00  0.00     0.015 C 
ENDROOT
BRANCH   5  21
HETATM   21  O   UNK N   1      33.756  19.568  -5.371  0.00  0.00    -0.296 OA
BRANCH  21  22
HETATM   22  C   UNK N   1      34.510  18.435  -5.281  0.00  0.00     0.256 C 
HETATM   23  O   UNK N   1      34.854  18.030  -4.177  0.00  0.00    -0.266 OA
HETATM   24  C   UNK N   1      35.001  17.723  -6.507  0.00  0.00     0.126 C 
ENDBRANCH  21  22
ENDBRANCH   5  21
BRANCH  19  25
HETATM   25  O   UNK N   1      26.705  26.292  -3.998  0.00  0.00    -0.312 OA
BRANCH  25  26
HETATM   26  C   UNK N   1      25.685  27.196  -4.142  0.00  0.00     0.255 C 
HETATM   27  O   UNK N   1      25.393  27.986  -3.258  0.00  0.00    -0.266 OA
HETATM   28  C   UNK N   1      24.917  27.242  -5.426  0.00  0.00     0.126 C 
ENDBRANCH  25  26
ENDBRANCH  19  25
TORSDOF 4
ENDMDL
MODEL 8
REMARK VINA RESULT:      -6.6      9.306     15.271
REMARK  4 active torsions:
REMARK  status: ('A' for Active; 'I' for Inactive)
REMARK    1  A    between atoms: C_9  and  O_1 
REMARK    2  A    between atoms: O_1  and  C_24 
REMARK    3  A    between atoms: C_23  and  O_2 
REMARK    4  A    between atoms: O_2  and  C_27 
ROOT
HETATM    1  C   UNK N   1      35.989  12.463  14.593  0.00  0.00     0.003 C 
HETATM    2  C   UNK N   1      36.263  10.959  14.674  0.00  0.00     0.002 C 
HETATM    3  C   UNK N   1      36.565  10.525  16.108  0.00  0.00    -0.005 C 
HETATM    4  C   UNK N   1      35.482  11.038  17.118  0.00  0.00    -0.002 C 
HETATM    5  C   UNK N   1      35.937  12.650  13.067  0.00  0.00     0.140 C 
HETATM    6  C   UNK N   1      34.732  12.780  15.401  0.00  0.00     0.014 C 
HETATM    7  C   UNK N   1      37.393  10.774  13.648  0.00  0.00     0.010 C 
HETATM    8  C   UNK N   1      35.063  12.504  16.875  0.00  0.00     0.006 C 
HETATM    9  C   UNK N   1      36.137  10.888  18.506  0.00  0.00     0.019 C 
HETATM   10  C   UNK N   1      37.266  11.979  12.680  0.00  0.00     0.053 C 
HETATM   11  C   UNK N   1      36.676   8.999  16.258  0.00  0.00     0.009 C 
HETATM   12  C   UNK N   1      37.156  13.315  15.175  0.00  0.00     0.020 C 
HETATM   13  C   UNK N   1      36.399   9.410  18.753  0.00  0.00    -0.077 C 
HETATM   14  C   UNK N   1      37.104   8.606  17.683  0.00  0.00     0.034 C 
HETATM   15  C   UNK N   1      35.392  11.628  19.629  0.00  0.00     0.012 C 
HETATM   16  C   UNK N   1      34.573  10.728  20.534  0.00  0.00     0.037 C 
HETATM   17  C   UNK N   1      35.795  14.085  12.736  0.00  0.00    -0.077 C 
HETATM   18  C   UNK N   1      36.066   8.816  19.909  0.00  0.00     0.008 C 
HETATM   19  C   UNK N   1      35.433   9.570  21.053  0.00  0.00     0.155 C 
HETATM   20  C   UNK N   1      35.681  15.248  12.427  0.00  0.00     0.015 C 
ENDROOT
BRANCH   5  21
HETATM   21  O   UNK N   1      34.915  11.896  12.508  0.00  0.00    -0.296 OA
BRANCH  21  22
HETATM   22  C   UNK N   1      34.862  11.520  11.198  0.00  0.00     0.256 C 
HETATM   23  O   UNK N   1      34.649  12.368  10.340  0.00  0.00    -0.266 OA
HETATM   24  C   UNK N   1      34.969  10.080  10.792  0.00  0.00     0.126 C 
ENDBRANCH  21  22
ENDBRANCH   5  21
BRANCH  19  25
HETATM   25  O   UNK N   1      36.408   9.865  22.018  0.00  0.00    -0.312 OA
BRANCH  25  26
HETATM   26  C   UNK N   1      37.653   9.321  22.203  0.00  0.00     0.255 C 
HETATM   27  O   UNK N   1      37.815   8.267  22.797  0.00  0.00    -0.266 OA
HETATM   28  C   UNK N   1      38.852  10.019  21.641  0.00  0.00     0.126 C 
ENDBRANCH  25  26
ENDBRANCH  19  25
TORSDOF 4
ENDMDL
MODEL 9
REMARK VINA RESULT:      -6.6      5.775      9.764
REMARK  4 active torsions:
REMARK  status: ('A' for Active; 'I' for Inactive)
REMARK    1  A    between atoms: C_9  and  O_1 
REMARK    2  A    between atoms: O_1  and  C_24 
REMARK    3  A    between atoms: C_23  and  O_2 
REMARK    4  A    between atoms: O_2  and  C_27 
ROOT
HETATM    1  C   UNK N   1      35.843  10.322  13.403  0.00  0.00     0.003 C 
HETATM    2  C   UNK N   1      35.996  11.728  13.989  0.00  0.00     0.002 C 
HETATM    3  C   UNK N   1      36.023  12.789  12.891  0.00  0.00    -0.005 C 
HETATM    4  C   UNK N   1      34.822  12.635  11.896  0.00  0.00    -0.002 C 
HETATM    5  C   UNK N   1      36.062   9.471  14.666  0.00  0.00     0.140 C 
HETATM    6  C   UNK N   1      34.492  10.227  12.695  0.00  0.00     0.014 C 
HETATM    7  C   UNK N   1      37.268  11.591  14.843  0.00  0.00     0.010 C 
HETATM    8  C   UNK N   1      34.551  11.172  11.485  0.00  0.00     0.006 C 
HETATM    9  C   UNK N   1      35.223  13.474  10.665  0.00  0.00     0.019 C 
HETATM   10  C   UNK N   1      37.388  10.076  15.156  0.00  0.00     0.053 C 
HETATM   11  C   UNK N   1      36.004  14.222  13.447  0.00  0.00     0.009 C 
HETATM   12  C   UNK N   1      36.950   9.985  12.360  0.00  0.00     0.020 C 
HETATM   13  C   UNK N   1      35.339  14.928  11.094  0.00  0.00    -0.077 C 
HETATM   14  C   UNK N   1      36.158  15.262  12.322  0.00  0.00     0.034 C 
HETATM   15  C   UNK N   1      34.352  13.215   9.425  0.00  0.00     0.012 C 
HETATM   16  C   UNK N   1      33.332  14.301   9.139  0.00  0.00     0.037 C 
HETATM   17  C   UNK N   1      36.074   8.035  14.314  0.00  0.00    -0.077 C 
HETATM   18  C   UNK N   1      34.777  15.922  10.390  0.00  0.00     0.008 C 
HETATM   19  C   UNK N   1      34.012  15.675   9.112  0.00  0.00     0.155 C 
HETATM   20  C   UNK N   1      36.093   6.852  14.065  0.00  0.00     0.015 C 
ENDROOT
BRANCH   5  21
HETATM   21  O   UNK N   1      35.099   9.752  15.626  0.00  0.00    -0.296 OA
BRANCH  21  22
HETATM   22  C   UNK N   1      35.259   9.533  16.963  0.00  0.00     0.256 C 
HETATM   23  O   UNK N   1      35.295   8.383  17.382  0.00  0.00    -0.266 OA
HETATM   24  C   UNK N   1      35.300  10.670  17.941  0.00  0.00     0.126 C 
ENDBRANCH  21  22
ENDBRANCH   5  21
BRANCH  19  25
HETATM   25  O   UNK N   1      34.828  15.976   8.011  0.00  0.00    -0.312 OA
BRANCH  25  26
HETATM   26  C   UNK N   1      34.497  16.512   6.793  0.00  0.00     0.255 C 
HETATM   27  O   UNK N   1      34.476  17.718   6.604  0.00  0.00    -0.266 OA
HETATM   28  C   UNK N   1      34.175  15.602   5.650  0.00  0.00     0.126 C 
ENDBRANCH  25  26
ENDBRANCH  19  25
TORSDOF 4
ENDMDL
