MODEL 1
REMARK VINA RESULT:      -5.3      0.000      0.000
REMARK  2 active torsions:
REMARK  status: ('A' for Active; 'I' for Inactive)
REMARK    1  A    between atoms: N_3  and  C_8 
REMARK    2  A    between atoms: C_8  and  C_10 
ROOT
HETATM    1  O   UNK N   1      34.935  19.061   8.308  0.00  0.00    -0.246 OA
HETATM    2  O   UNK N   1      35.396  15.857  11.417  0.00  0.00    -0.265 OA
HETATM    3  N   UNK N   1      33.665  17.182   8.043  0.00  0.00    -0.283 N 
HETATM    4  N   UNK N   1      35.198  17.492   9.882  0.00  0.00    -0.273 N 
HETATM    5  N   UNK N   1      33.458  14.288  10.004  0.00  0.00    -0.345 N 
HETATM    6  N   UNK N   1      32.502  15.057   8.110  0.00  0.00    -0.336 N 
ATOM      7  HN  UNK N   1      31.922  15.121   7.274  1.00  0.00     0.168 HD
HETATM    8  C   UNK N   1      33.369  15.966   8.583  0.00  0.00     0.145 A 
HETATM    9  C   UNK N   1      33.940  15.504   9.715  0.00  0.00     0.147 A 
HETATM   10  C   UNK N   1      34.611  17.963   8.720  0.00  0.00     0.331 A 
HETATM   11  C   UNK N   1      34.873  16.262  10.394  0.00  0.00     0.280 A 
HETATM   12  C   UNK N   1      32.574  14.033   9.003  0.00  0.00     0.182 A 
HETATM   13  H   UNK N   1      35.861  18.051  10.350  0.00  0.00     0.173 HD
HETATM   14  H   UNK N   1      33.692  13.711  10.768  0.00  0.00     0.167 HD
ENDROOT
BRANCH   3  15
HETATM   15  C   UNK N   1      32.972  17.574   6.798  0.00  0.00     0.135 C 
BRANCH  15  16
HETATM   16  C   UNK N   1      33.689  17.228   5.499  0.00  0.00     0.016 C 
HETATM   17  C   UNK N   1      32.815  17.563   4.312  0.00  0.00     0.006 C 
ENDBRANCH  15  16
ENDBRANCH   3  15
TORSDOF 2
ENDMDL
MODEL 2
REMARK VINA RESULT:      -5.1      1.683      3.506
REMARK  2 active torsions:
REMARK  status: ('A' for Active; 'I' for Inactive)
REMARK    1  A    between atoms: N_3  and  C_8 
REMARK    2  A    between atoms: C_8  and  C_10 
ROOT
HETATM    1  O   UNK N   1      32.515  16.641   6.049  0.00  0.00    -0.246 OA
HETATM    2  O   UNK N   1      35.255  19.226   8.487  0.00  0.00    -0.265 OA
HETATM    3  N   UNK N   1      33.153  15.828   8.085  0.00  0.00    -0.283 N 
HETATM    4  N   UNK N   1      33.880  17.964   7.229  0.00  0.00    -0.273 N 
HETATM    5  N   UNK N   1      35.235  17.219  10.533  0.00  0.00    -0.345 N 
HETATM    6  N   UNK N   1      34.045  15.318  10.280  0.00  0.00    -0.336 N 
ATOM      7  HN  UNK N   1      33.632  14.403  10.456  1.00  0.00     0.168 HD
HETATM    8  C   UNK N   1      33.896  16.096   9.195  0.00  0.00     0.145 A 
HETATM    9  C   UNK N   1      34.609  17.231   9.349  0.00  0.00     0.147 A 
HETATM   10  C   UNK N   1      33.151  16.798   7.074  0.00  0.00     0.331 A 
HETATM   11  C   UNK N   1      34.617  18.197   8.362  0.00  0.00     0.280 A 
HETATM   12  C   UNK N   1      34.874  16.032  11.089  0.00  0.00     0.182 A 
HETATM   13  H   UNK N   1      33.871  18.639   6.512  0.00  0.00     0.173 HD
HETATM   14  H   UNK N   1      35.823  17.912  10.913  0.00  0.00     0.167 HD
ENDROOT
BRANCH   3  15
HETATM   15  C   UNK N   1      32.416  14.547   8.037  0.00  0.00     0.135 C 
BRANCH  15  16
HETATM   16  C   UNK N   1      33.112  13.406   7.306  0.00  0.00     0.016 C 
HETATM   17  C   UNK N   1      33.492  12.313   8.279  0.00  0.00     0.006 C 
ENDBRANCH  15  16
ENDBRANCH   3  15
TORSDOF 2
ENDMDL
MODEL 3
REMARK VINA RESULT:      -5.0      5.607      8.007
REMARK  2 active torsions:
REMARK  status: ('A' for Active; 'I' for Inactive)
REMARK    1  A    between atoms: N_3  and  C_8 
REMARK    2  A    between atoms: C_8  and  C_10 
ROOT
HETATM    1  O   UNK N   1      37.390  14.932  15.751  0.00  0.00    -0.246 OA
HETATM    2  O   UNK N   1      35.993  14.855  11.487  0.00  0.00    -0.265 OA
HETATM    3  N   UNK N   1      36.135  13.134  15.113  0.00  0.00    -0.283 N 
HETATM    4  N   UNK N   1      36.717  14.937  13.617  0.00  0.00    -0.273 N 
HETATM    5  N   UNK N   1      34.696  12.354  12.017  0.00  0.00    -0.345 N 
HETATM    6  N   UNK N   1      34.792  11.411  14.065  0.00  0.00    -0.336 N 
ATOM      7  HN  UNK N   1      34.658  10.763  14.841  1.00  0.00     0.168 HD
HETATM    8  C   UNK N   1      35.471  12.569  14.066  0.00  0.00     0.145 A 
HETATM    9  C   UNK N   1      35.412  13.132  12.841  0.00  0.00     0.147 A 
HETATM   10  C   UNK N   1      36.775  14.357  14.872  0.00  0.00     0.331 A 
HETATM   11  C   UNK N   1      36.038  14.336  12.587  0.00  0.00     0.280 A 
HETATM   12  C   UNK N   1      34.324  11.301  12.792  0.00  0.00     0.182 A 
HETATM   13  H   UNK N   1      37.171  15.796  13.460  0.00  0.00     0.173 HD
HETATM   14  H   UNK N   1      34.487  12.512  11.068  0.00  0.00     0.167 HD
ENDROOT
BRANCH   3  15
HETATM   15  C   UNK N   1      36.126  12.418  16.406  0.00  0.00     0.135 C 
BRANCH  15  16
HETATM   16  C   UNK N   1      34.940  12.707  17.319  0.00  0.00     0.016 C 
HETATM   17  C   UNK N   1      35.272  13.834  18.271  0.00  0.00     0.006 C 
ENDBRANCH  15  16
ENDBRANCH   3  15
TORSDOF 2
ENDMDL
MODEL 4
REMARK VINA RESULT:      -5.0     10.759     12.273
REMARK  2 active torsions:
REMARK  status: ('A' for Active; 'I' for Inactive)
REMARK    1  A    between atoms: N_3  and  C_8 
REMARK    2  A    between atoms: C_8  and  C_10 
ROOT
HETATM    1  O   UNK N   1      24.357  21.000   2.284  0.00  0.00    -0.246 OA
HETATM    2  O   UNK N   1      20.140  19.776   3.213  0.00  0.00    -0.265 OA
HETATM    3  N   UNK N   1      24.079  19.417   3.906  0.00  0.00    -0.283 N 
HETATM    4  N   UNK N   1      22.238  20.421   2.712  0.00  0.00    -0.273 N 
HETATM    5  N   UNK N   1      21.162  17.960   5.182  0.00  0.00    -0.345 N 
HETATM    6  N   UNK N   1      23.381  17.780   5.551  0.00  0.00    -0.336 N 
ATOM      7  HN  UNK N   1      24.279  17.484   5.932  1.00  0.00     0.168 HD
HETATM    8  C   UNK N   1      23.152  18.688   4.589  0.00  0.00     0.145 A 
HETATM    9  C   UNK N   1      21.826  18.795   4.370  0.00  0.00     0.147 A 
HETATM   10  C   UNK N   1      23.598  20.310   2.940  0.00  0.00     0.331 A 
HETATM   11  C   UNK N   1      21.335  19.669   3.421  0.00  0.00     0.280 A 
HETATM   12  C   UNK N   1      22.139  17.346   5.900  0.00  0.00     0.182 A 
HETATM   13  H   UNK N   1      21.911  21.051   2.030  0.00  0.00     0.173 HD
HETATM   14  H   UNK N   1      20.188  17.825   5.244  0.00  0.00     0.167 HD
ENDROOT
BRANCH   3  15
HETATM   15  C   UNK N   1      25.505  19.209   4.239  0.00  0.00     0.135 C 
BRANCH  15  16
HETATM   16  C   UNK N   1      26.105  20.188   5.240  0.00  0.00     0.016 C 
HETATM   17  C   UNK N   1      27.579  20.382   4.966  0.00  0.00     0.006 C 
ENDBRANCH  15  16
ENDBRANCH   3  15
TORSDOF 2
ENDMDL
MODEL 5
REMARK VINA RESULT:      -4.9      3.589      4.473
REMARK  2 active torsions:
REMARK  status: ('A' for Active; 'I' for Inactive)
REMARK    1  A    between atoms: N_3  and  C_8 
REMARK    2  A    between atoms: C_8  and  C_10 
ROOT
HETATM    1  O   UNK N   1      33.176  17.348   7.923  0.00  0.00    -0.246 OA
HETATM    2  O   UNK N   1      29.504  18.710  10.114  0.00  0.00    -0.265 OA
HETATM    3  N   UNK N   1      31.190  17.170   6.810  0.00  0.00    -0.283 N 
HETATM    4  N   UNK N   1      31.373  18.040   9.055  0.00  0.00    -0.273 N 
HETATM    5  N   UNK N   1      27.941  18.004   7.816  0.00  0.00    -0.345 N 
HETATM    6  N   UNK N   1      28.916  17.140   5.974  0.00  0.00    -0.336 N 
ATOM      7  HN  UNK N   1      29.051  16.750   5.041  1.00  0.00     0.168 HD
HETATM    8  C   UNK N   1      29.849  17.387   6.907  0.00  0.00     0.145 A 
HETATM    9  C   UNK N   1      29.264  17.903   8.008  0.00  0.00     0.147 A 
HETATM   10  C   UNK N   1      31.970  17.509   7.924  0.00  0.00     0.331 A 
HETATM   11  C   UNK N   1      30.018  18.244   9.114  0.00  0.00     0.280 A 
HETATM   12  C   UNK N   1      27.750  17.528   6.557  0.00  0.00     0.182 A 
HETATM   13  H   UNK N   1      31.932  18.275   9.831  0.00  0.00     0.173 HD
HETATM   14  H   UNK N   1      27.264  18.345   8.445  0.00  0.00     0.167 HD
ENDROOT
BRANCH   3  15
HETATM   15  C   UNK N   1      31.710  16.599   5.549  0.00  0.00     0.135 C 
BRANCH  15  16
HETATM   16  C   UNK N   1      32.284  17.598   4.553  0.00  0.00     0.016 C 
HETATM   17  C   UNK N   1      32.211  17.041   3.149  0.00  0.00     0.006 C 
ENDBRANCH  15  16
ENDBRANCH   3  15
TORSDOF 2
ENDMDL
MODEL 6
REMARK VINA RESULT:      -4.8      2.726      5.178
REMARK  2 active torsions:
REMARK  status: ('A' for Active; 'I' for Inactive)
REMARK    1  A    between atoms: N_3  and  C_8 
REMARK    2  A    between atoms: C_8  and  C_10 
ROOT
HETATM    1  O   UNK N   1      37.391  13.385  11.686  0.00  0.00    -0.246 OA
HETATM    2  O   UNK N   1      35.847  17.424  10.484  0.00  0.00    -0.265 OA
HETATM    3  N   UNK N   1      35.294  13.458  10.784  0.00  0.00    -0.283 N 
HETATM    4  N   UNK N   1      36.664  15.420  11.102  0.00  0.00    -0.273 N 
HETATM    5  N   UNK N   1      33.417  16.174   9.618  0.00  0.00    -0.345 N 
HETATM    6  N   UNK N   1      33.134  13.943   9.799  0.00  0.00    -0.336 N 
ATOM      7  HN  UNK N   1      32.723  13.011   9.750  1.00  0.00     0.168 HD
HETATM    8  C   UNK N   1      34.344  14.287  10.268  0.00  0.00     0.145 A 
HETATM    9  C   UNK N   1      34.511  15.621  10.159  0.00  0.00     0.147 A 
HETATM   10  C   UNK N   1      36.489  14.052  11.213  0.00  0.00     0.331 A 
HETATM   11  C   UNK N   1      35.683  16.222  10.577  0.00  0.00     0.280 A 
HETATM   12  C   UNK N   1      32.582  15.123   9.405  0.00  0.00     0.182 A 
HETATM   13  H   UNK N   1      37.508  15.826  11.406  0.00  0.00     0.173 HD
HETATM   14  H   UNK N   1      33.256  17.126   9.421  0.00  0.00     0.167 HD
ENDROOT
BRANCH   3  15
HETATM   15  C   UNK N   1      34.991  12.012  10.849  0.00  0.00     0.135 C 
BRANCH  15  16
HETATM   16  C   UNK N   1      34.649  11.466  12.230  0.00  0.00     0.016 C 
HETATM   17  C   UNK N   1      33.922  10.146  12.107  0.00  0.00     0.006 C 
ENDBRANCH  15  16
ENDBRANCH   3  15
TORSDOF 2
ENDMDL
MODEL 7
REMARK VINA RESULT:      -4.8      4.097      5.498
REMARK  2 active torsions:
REMARK  status: ('A' for Active; 'I' for Inactive)
REMARK    1  A    between atoms: N_3  and  C_8 
REMARK    2  A    between atoms: C_8  and  C_10 
ROOT
HETATM    1  O   UNK N   1      31.291  16.421   4.920  0.00  0.00    -0.246 OA
HETATM    2  O   UNK N   1      27.420  18.218   6.308  0.00  0.00    -0.265 OA
HETATM    3  N   UNK N   1      31.205  17.127   7.090  0.00  0.00    -0.283 N 
HETATM    4  N   UNK N   1      29.341  17.309   5.566  0.00  0.00    -0.273 N 
HETATM    5  N   UNK N   1      28.595  18.609   8.893  0.00  0.00    -0.345 N 
HETATM    6  N   UNK N   1      30.725  17.987   9.303  0.00  0.00    -0.336 N 
ATOM      7  HN  UNK N   1      31.612  17.822   9.778  1.00  0.00     0.168 HD
HETATM    8  C   UNK N   1      30.406  17.702   8.031  0.00  0.00     0.145 A 
HETATM    9  C   UNK N   1      29.133  18.075   7.787  0.00  0.00     0.147 A 
HETATM   10  C   UNK N   1      30.648  16.928   5.820  0.00  0.00     0.331 A 
HETATM   11  C   UNK N   1      28.568  17.886   6.541  0.00  0.00     0.280 A 
HETATM   12  C   UNK N   1      29.593  18.544   9.814  0.00  0.00     0.182 A 
HETATM   13  H   UNK N   1      28.960  17.164   4.670  0.00  0.00     0.173 HD
HETATM   14  H   UNK N   1      27.685  18.967   9.010  0.00  0.00     0.167 HD
ENDROOT
BRANCH   3  15
HETATM   15  C   UNK N   1      32.584  16.763   7.480  0.00  0.00     0.135 C 
BRANCH  15  16
HETATM   16  C   UNK N   1      33.683  17.697   6.991  0.00  0.00     0.016 C 
HETATM   17  C   UNK N   1      34.386  18.342   8.164  0.00  0.00     0.006 C 
ENDBRANCH  15  16
ENDBRANCH   3  15
TORSDOF 2
ENDMDL
MODEL 8
REMARK VINA RESULT:      -4.8      4.804      5.693
REMARK  2 active torsions:
REMARK  status: ('A' for Active; 'I' for Inactive)
REMARK    1  A    between atoms: N_3  and  C_8 
REMARK    2  A    between atoms: C_8  and  C_10 
ROOT
HETATM    1  O   UNK N   1      29.267  17.448   4.253  0.00  0.00    -0.246 OA
HETATM    2  O   UNK N   1      32.142  16.297   7.501  0.00  0.00    -0.265 OA
HETATM    3  N   UNK N   1      28.775  18.167   6.363  0.00  0.00    -0.283 N 
HETATM    4  N   UNK N   1      30.729  16.850   5.838  0.00  0.00    -0.273 N 
HETATM    5  N   UNK N   1      30.488  17.693   9.380  0.00  0.00    -0.345 N 
HETATM    6  N   UNK N   1      28.601  18.734   8.713  0.00  0.00    -0.336 N 
ATOM      7  HN  UNK N   1      27.736  19.274   8.725  1.00  0.00     0.168 HD
HETATM    8  C   UNK N   1      29.198  18.157   7.658  0.00  0.00     0.145 A 
HETATM    9  C   UNK N   1      30.326  17.534   8.059  0.00  0.00     0.147 A 
HETATM   10  C   UNK N   1      29.571  17.489   5.431  0.00  0.00     0.331 A 
HETATM   11  C   UNK N   1      31.122  16.862   7.153  0.00  0.00     0.280 A 
HETATM   12  C   UNK N   1      29.415  18.434   9.762  0.00  0.00     0.182 A 
HETATM   13  H   UNK N   1      31.280  16.377   5.174  0.00  0.00     0.173 HD
HETATM   14  H   UNK N   1      31.219  17.349   9.945  0.00  0.00     0.167 HD
ENDROOT
BRANCH   3  15
HETATM   15  C   UNK N   1      27.521  18.885   6.051  0.00  0.00     0.135 C 
BRANCH  15  16
HETATM   16  C   UNK N   1      27.682  20.264   5.424  0.00  0.00     0.016 C 
HETATM   17  C   UNK N   1      27.150  21.330   6.355  0.00  0.00     0.006 C 
ENDBRANCH  15  16
ENDBRANCH   3  15
TORSDOF 2
ENDMDL
MODEL 9
REMARK VINA RESULT:      -4.7     12.669     14.499
REMARK  2 active torsions:
REMARK  status: ('A' for Active; 'I' for Inactive)
REMARK    1  A    between atoms: N_3  and  C_8 
REMARK    2  A    between atoms: C_8  and  C_10 
ROOT
HETATM    1  O   UNK N   1      28.805  22.822  -5.574  0.00  0.00    -0.246 OA
HETATM    2  O   UNK N   1      30.744  22.873  -1.527  0.00  0.00    -0.265 OA
HETATM    3  N   UNK N   1      30.751  21.649  -5.351  0.00  0.00    -0.283 N 
HETATM    4  N   UNK N   1      29.734  22.876  -3.539  0.00  0.00    -0.273 N 
HETATM    5  N   UNK N   1      32.831  21.207  -2.569  0.00  0.00    -0.345 N 
HETATM    6  N   UNK N   1      32.809  20.535  -4.723  0.00  0.00    -0.336 N 
ATOM      7  HN  UNK N   1      33.071  20.088  -5.601  1.00  0.00     0.168 HD
HETATM    8  C   UNK N   1      31.734  21.300  -4.475  0.00  0.00     0.145 A 
HETATM    9  C   UNK N   1      31.749  21.702  -3.187  0.00  0.00     0.147 A 
HETATM   10  C   UNK N   1      29.723  22.463  -4.859  0.00  0.00     0.331 A 
HETATM   11  C   UNK N   1      30.743  22.504  -2.687  0.00  0.00     0.280 A 
HETATM   12  C   UNK N   1      33.469  20.492  -3.533  0.00  0.00     0.182 A 
HETATM   13  H   UNK N   1      29.006  23.448  -3.204  0.00  0.00     0.173 HD
HETATM   14  H   UNK N   1      33.100  21.334  -1.630  0.00  0.00     0.167 HD
ENDROOT
BRANCH   3  15
HETATM   15  C   UNK N   1      30.848  21.144  -6.738  0.00  0.00     0.135 C 
BRANCH  15  16
HETATM   16  C   UNK N   1      30.154  19.816  -7.013  0.00  0.00     0.016 C 
HETATM   17  C   UNK N   1      28.921  20.034  -7.862  0.00  0.00     0.006 C 
ENDBRANCH  15  16
ENDBRANCH   3  15
TORSDOF 2
ENDMDL
