MODEL 1
REMARK VINA RESULT:      -7.2      0.000      0.000
REMARK  3 active torsions:
REMARK  status: ('A' for Active; 'I' for Inactive)
REMARK    1  A    between atoms: O_4  and  C_20 
REMARK    2  A    between atoms: N_6  and  C_15 
REMARK    3  A    between atoms: C_17  and  C_20 
ROOT
HETATM    1  O   UNK N   1      28.585  16.350   4.339  0.00  0.00    -0.323 OA
HETATM    2  O   UNK N   1      30.365  16.553   3.037  0.00  0.00    -0.323 OA
HETATM    3  O   UNK N   1      34.312  17.725   6.020  0.00  0.00    -0.285 OA
HETATM    4  N   UNK N   1      31.107  17.362   8.382  0.00  0.00    -0.291 N 
HETATM    5  N   UNK N   1      32.306  17.669   8.894  0.00  0.00    -0.289 N 
ATOM      6  HN  UNK N   1      32.385  17.809   9.900  1.00  0.00     0.187 HD
HETATM    7  C   UNK N   1      30.959  17.166   7.034  0.00  0.00     0.068 A 
HETATM    8  C   UNK N   1      32.096  17.293   6.182  0.00  0.00     0.048 A 
HETATM    9  C   UNK N   1      29.642  16.658   5.087  0.00  0.00     0.107 A 
HETATM   10  C   UNK N   1      29.703  16.840   6.466  0.00  0.00     0.072 A 
HETATM   11  C   UNK N   1      30.715  16.780   4.299  0.00  0.00     0.106 A 
HETATM   12  C   UNK N   1      31.968  17.096   4.794  0.00  0.00     0.057 A 
HETATM   13  C   UNK N   1      33.329  17.613   6.738  0.00  0.00     0.219 A 
HETATM   14  C   UNK N   1      33.425  17.803   8.125  0.00  0.00     0.173 A 
HETATM   15  C   UNK N   1      28.997  16.270   3.003  0.00  0.00     0.352 A 
ENDROOT
BRANCH  14  16
HETATM   16  C   UNK N   1      34.711  18.146   8.778  0.00  0.00     0.199 C 
HETATM   17  O   UNK N   1      35.201  17.411   9.623  0.00  0.00    -0.645 OA
BRANCH  16  18
HETATM   18  O   UNK N   1      35.353  19.278   8.440  0.00  0.00    -0.771 OA
HETATM   19  H   UNK N   1      34.894  20.096   8.443  0.00  0.00     0.167 HD
ENDBRANCH  16  18
ENDBRANCH  14  16
BRANCH   4  20
HETATM   20  C   UNK N   1      29.940  17.233   9.270  0.00  0.00     0.145 C 
HETATM   21  C   UNK N   1      29.486  18.559   9.865  0.00  0.00     0.028 C 
ENDBRANCH   4  20
TORSDOF 3
ENDMDL
MODEL 2
REMARK VINA RESULT:      -6.3      9.019     11.567
REMARK  3 active torsions:
REMARK  status: ('A' for Active; 'I' for Inactive)
REMARK    1  A    between atoms: O_4  and  C_20 
REMARK    2  A    between atoms: N_6  and  C_15 
REMARK    3  A    between atoms: C_17  and  C_20 
ROOT
HETATM    1  O   UNK N   1      22.788  15.873   6.743  0.00  0.00    -0.323 OA
HETATM    2  O   UNK N   1      20.731  15.406   6.067  0.00  0.00    -0.323 OA
HETATM    3  O   UNK N   1      19.571  18.670   2.346  0.00  0.00    -0.285 OA
HETATM    4  N   UNK N   1      23.285  19.523   3.555  0.00  0.00    -0.291 N 
HETATM    5  N   UNK N   1      22.703  20.226   2.575  0.00  0.00    -0.289 N 
ATOM      6  HN  UNK N   1      23.228  20.984   2.141  1.00  0.00     0.187 HD
HETATM    7  C   UNK N   1      22.611  18.495   4.163  0.00  0.00     0.068 A 
HETATM    8  C   UNK N   1      21.286  18.183   3.739  0.00  0.00     0.048 A 
HETATM    9  C   UNK N   1      22.449  16.710   5.766  0.00  0.00     0.107 A 
HETATM   10  C   UNK N   1      23.202  17.737   5.203  0.00  0.00     0.072 A 
HETATM   11  C   UNK N   1      21.206  16.426   5.360  0.00  0.00     0.106 A 
HETATM   12  C   UNK N   1      20.576  17.131   4.349  0.00  0.00     0.057 A 
HETATM   13  C   UNK N   1      20.705  18.927   2.719  0.00  0.00     0.219 A 
HETATM   14  C   UNK N   1      21.438  19.969   2.131  0.00  0.00     0.173 A 
HETATM   15  C   UNK N   1      21.714  15.008   6.979  0.00  0.00     0.352 A 
ENDROOT
BRANCH  14  16
HETATM   16  C   UNK N   1      20.875  20.799   1.039  0.00  0.00     0.199 C 
HETATM   17  O   UNK N   1      20.732  22.005   1.177  0.00  0.00    -0.645 OA
BRANCH  16  18
HETATM   18  O   UNK N   1      20.515  20.223  -0.122  0.00  0.00    -0.771 OA
HETATM   19  H   UNK N   1      21.150  20.096  -0.799  0.00  0.00     0.167 HD
ENDBRANCH  16  18
ENDBRANCH  14  16
BRANCH   4  20
HETATM   20  C   UNK N   1      24.653  19.854   3.985  0.00  0.00     0.145 C 
HETATM   21  C   UNK N   1      25.490  20.498   2.888  0.00  0.00     0.028 C 
ENDBRANCH   4  20
TORSDOF 3
ENDMDL
MODEL 3
REMARK VINA RESULT:      -6.3      4.154      7.293
REMARK  3 active torsions:
REMARK  status: ('A' for Active; 'I' for Inactive)
REMARK    1  A    between atoms: O_4  and  C_20 
REMARK    2  A    between atoms: N_6  and  C_15 
REMARK    3  A    between atoms: C_17  and  C_20 
ROOT
HETATM    1  O   UNK N   1      35.419  12.249  12.950  0.00  0.00    -0.323 OA
HETATM    2  O   UNK N   1      36.428  14.048  13.755  0.00  0.00    -0.323 OA
HETATM    3  O   UNK N   1      35.786  17.795  10.379  0.00  0.00    -0.285 OA
HETATM    4  N   UNK N   1      33.959  14.555   8.915  0.00  0.00    -0.291 N 
HETATM    5  N   UNK N   1      33.958  15.709   8.236  0.00  0.00    -0.289 N 
ATOM      6  HN  UNK N   1      33.480  15.746   7.336  1.00  0.00     0.187 HD
HETATM    7  C   UNK N   1      34.590  14.466  10.128  0.00  0.00     0.068 A 
HETATM    8  C   UNK N   1      35.245  15.616  10.659  0.00  0.00     0.048 A 
HETATM    9  C   UNK N   1      35.271  13.254  12.090  0.00  0.00     0.107 A 
HETATM   10  C   UNK N   1      34.607  13.258  10.867  0.00  0.00     0.072 A 
HETATM   11  C   UNK N   1      35.882  14.339  12.578  0.00  0.00     0.106 A 
HETATM   12  C   UNK N   1      35.900  15.547  11.904  0.00  0.00     0.057 A 
HETATM   13  C   UNK N   1      35.229  16.802   9.936  0.00  0.00     0.219 A 
HETATM   14  C   UNK N   1      34.568  16.839   8.699  0.00  0.00     0.173 A 
HETATM   15  C   UNK N   1      36.160  12.707  14.045  0.00  0.00     0.352 A 
ENDROOT
BRANCH  14  16
HETATM   16  C   UNK N   1      34.516  18.073   7.879  0.00  0.00     0.199 C 
HETATM   17  O   UNK N   1      34.138  18.040   6.717  0.00  0.00    -0.645 OA
BRANCH  16  18
HETATM   18  O   UNK N   1      34.887  19.249   8.415  0.00  0.00    -0.771 OA
HETATM   19  H   UNK N   1      34.556  20.052   8.061  0.00  0.00     0.167 HD
ENDBRANCH  16  18
ENDBRANCH  14  16
BRANCH   4  20
HETATM   20  C   UNK N   1      33.280  13.374   8.357  0.00  0.00     0.145 C 
HETATM   21  C   UNK N   1      33.120  13.429   6.844  0.00  0.00     0.028 C 
ENDBRANCH   4  20
TORSDOF 3
ENDMDL
MODEL 4
REMARK VINA RESULT:      -6.0      1.882      3.403
REMARK  3 active torsions:
REMARK  status: ('A' for Active; 'I' for Inactive)
REMARK    1  A    between atoms: O_4  and  C_20 
REMARK    2  A    between atoms: N_6  and  C_15 
REMARK    3  A    between atoms: C_17  and  C_20 
ROOT
HETATM    1  O   UNK N   1      27.722  16.452   4.408  0.00  0.00    -0.323 OA
HETATM    2  O   UNK N   1      27.186  16.666   6.546  0.00  0.00    -0.323 OA
HETATM    3  O   UNK N   1      31.457  17.727   9.091  0.00  0.00    -0.285 OA
HETATM    4  N   UNK N   1      32.439  17.343   5.235  0.00  0.00    -0.291 N 
HETATM    5  N   UNK N   1      33.370  17.625   6.156  0.00  0.00    -0.289 N 
ATOM      6  HN  UNK N   1      34.336  17.741   5.853  1.00  0.00     0.187 HD
HETATM    7  C   UNK N   1      31.129  17.180   5.602  0.00  0.00     0.068 A 
HETATM    8  C   UNK N   1      30.768  17.315   6.975  0.00  0.00     0.048 A 
HETATM    9  C   UNK N   1      28.819  16.731   5.108  0.00  0.00     0.107 A 
HETATM   10  C   UNK N   1      30.125  16.880   4.650  0.00  0.00     0.072 A 
HETATM   11  C   UNK N   1      28.492  16.860   6.398  0.00  0.00     0.106 A 
HETATM   12  C   UNK N   1      29.428  17.151   7.376  0.00  0.00     0.057 A 
HETATM   13  C   UNK N   1      31.752  17.608   7.911  0.00  0.00     0.219 A 
HETATM   14  C   UNK N   1      33.079  17.765   7.482  0.00  0.00     0.173 A 
HETATM   15  C   UNK N   1      26.636  16.398   5.289  0.00  0.00     0.352 A 
ENDROOT
BRANCH  14  16
HETATM   16  C   UNK N   1      34.174  18.079   8.431  0.00  0.00     0.199 C 
HETATM   17  O   UNK N   1      34.965  18.981   8.200  0.00  0.00    -0.645 OA
BRANCH  16  18
HETATM   18  O   UNK N   1      34.303  17.365   9.563  0.00  0.00    -0.771 OA
HETATM   19  H   UNK N   1      33.699  17.491  10.269  0.00  0.00     0.167 HD
ENDBRANCH  16  18
ENDBRANCH  14  16
BRANCH   4  20
HETATM   20  C   UNK N   1      32.823  17.205   3.821  0.00  0.00     0.145 C 
HETATM   21  C   UNK N   1      33.459  15.860   3.497  0.00  0.00     0.028 C 
ENDBRANCH   4  20
TORSDOF 3
ENDMDL
MODEL 5
REMARK VINA RESULT:      -6.0      6.390      9.360
REMARK  3 active torsions:
REMARK  status: ('A' for Active; 'I' for Inactive)
REMARK    1  A    between atoms: O_4  and  C_20 
REMARK    2  A    between atoms: N_6  and  C_15 
REMARK    3  A    between atoms: C_17  and  C_20 
ROOT
HETATM    1  O   UNK N   1      27.909  17.292   5.690  0.00  0.00    -0.323 OA
HETATM    2  O   UNK N   1      28.528  19.068   4.519  0.00  0.00    -0.323 OA
HETATM    3  O   UNK N   1      24.340  21.043   2.419  0.00  0.00    -0.285 OA
HETATM    4  N   UNK N   1      23.210  17.841   4.528  0.00  0.00    -0.291 N 
HETATM    5  N   UNK N   1      22.312  18.573   3.857  0.00  0.00    -0.289 N 
ATOM      6  HN  UNK N   1      21.332  18.296   3.895  1.00  0.00     0.187 HD
HETATM    7  C   UNK N   1      24.538  18.180   4.502  0.00  0.00     0.068 A 
HETATM    8  C   UNK N   1      24.952  19.321   3.753  0.00  0.00     0.048 A 
HETATM    9  C   UNK N   1      26.836  17.838   5.123  0.00  0.00     0.107 A 
HETATM   10  C   UNK N   1      25.509  17.424   5.203  0.00  0.00     0.072 A 
HETATM   11  C   UNK N   1      27.212  18.910   4.417  0.00  0.00     0.106 A 
HETATM   12  C   UNK N   1      26.311  19.688   3.712  0.00  0.00     0.057 A 
HETATM   13  C   UNK N   1      24.000  20.064   3.065  0.00  0.00     0.219 A 
HETATM   14  C   UNK N   1      22.654  19.673   3.125  0.00  0.00     0.173 A 
HETATM   15  C   UNK N   1      29.032  18.048   5.332  0.00  0.00     0.352 A 
ENDROOT
BRANCH  14  16
HETATM   16  C   UNK N   1      21.591  20.423   2.413  0.00  0.00     0.199 C 
HETATM   17  O   UNK N   1      20.864  19.866   1.604  0.00  0.00    -0.645 OA
BRANCH  16  18
HETATM   18  O   UNK N   1      21.421  21.735   2.657  0.00  0.00    -0.771 OA
HETATM   19  H   UNK N   1      20.737  22.207   2.223  0.00  0.00     0.167 HD
ENDBRANCH  16  18
ENDBRANCH  14  16
BRANCH   4  20
HETATM   20  C   UNK N   1      22.773  16.666   5.299  0.00  0.00     0.145 C 
HETATM   21  C   UNK N   1      21.811  17.009   6.428  0.00  0.00     0.028 C 
ENDBRANCH   4  20
TORSDOF 3
ENDMDL
MODEL 6
REMARK VINA RESULT:      -6.0     11.167     13.156
REMARK  3 active torsions:
REMARK  status: ('A' for Active; 'I' for Inactive)
REMARK    1  A    between atoms: O_4  and  C_20 
REMARK    2  A    between atoms: N_6  and  C_15 
REMARK    3  A    between atoms: C_17  and  C_20 
ROOT
HETATM    1  O   UNK N   1      26.178  24.403  -5.670  0.00  0.00    -0.323 OA
HETATM    2  O   UNK N   1      26.455  24.946  -3.541  0.00  0.00    -0.323 OA
HETATM    3  O   UNK N   1      30.862  22.924  -2.012  0.00  0.00    -0.285 OA
HETATM    4  N   UNK N   1      30.375  21.936  -5.855  0.00  0.00    -0.291 N 
HETATM    5  N   UNK N   1      31.458  21.539  -5.176  0.00  0.00    -0.289 N 
ATOM      6  HN  UNK N   1      32.159  20.977  -5.660  1.00  0.00     0.187 HD
HETATM    7  C   UNK N   1      29.411  22.691  -5.240  0.00  0.00     0.068 A 
HETATM    8  C   UNK N   1      29.575  23.049  -3.869  0.00  0.00     0.048 A 
HETATM    9  C   UNK N   1      27.326  23.889  -5.233  0.00  0.00     0.107 A 
HETATM   10  C   UNK N   1      28.255  23.125  -5.934  0.00  0.00     0.072 A 
HETATM   11  C   UNK N   1      27.491  24.218  -3.948  0.00  0.00     0.106 A 
HETATM   12  C   UNK N   1      28.598  23.825  -3.217  0.00  0.00     0.057 A 
HETATM   13  C   UNK N   1      30.709  22.624  -3.187  0.00  0.00     0.219 A 
HETATM   14  C   UNK N   1      31.665  21.853  -3.864  0.00  0.00     0.173 A 
HETATM   15  C   UNK N   1      25.574  25.097  -4.615  0.00  0.00     0.352 A 
ENDROOT
BRANCH  14  16
HETATM   16  C   UNK N   1      32.895  21.369  -3.192  0.00  0.00     0.199 C 
HETATM   17  O   UNK N   1      33.938  21.231  -3.815  0.00  0.00    -0.645 OA
BRANCH  16  18
HETATM   18  O   UNK N   1      32.870  21.077  -1.880  0.00  0.00    -0.771 OA
HETATM   19  H   UNK N   1      33.625  20.702  -1.468  0.00  0.00     0.167 HD
ENDBRANCH  16  18
ENDBRANCH  14  16
BRANCH   4  20
HETATM   20  C   UNK N   1      30.215  21.561  -7.269  0.00  0.00     0.145 C 
HETATM   21  C   UNK N   1      30.493  20.088  -7.537  0.00  0.00     0.028 C 
ENDBRANCH   4  20
TORSDOF 3
ENDMDL
MODEL 7
REMARK VINA RESULT:      -5.8     16.506     17.955
REMARK  3 active torsions:
REMARK  status: ('A' for Active; 'I' for Inactive)
REMARK    1  A    between atoms: O_4  and  C_20 
REMARK    2  A    between atoms: N_6  and  C_15 
REMARK    3  A    between atoms: C_17  and  C_20 
ROOT
HETATM    1  O   UNK N   1      27.378  30.303  -4.622  0.00  0.00    -0.323 OA
HETATM    2  O   UNK N   1      26.056  29.210  -3.221  0.00  0.00    -0.323 OA
HETATM    3  O   UNK N   1      24.900  24.753  -5.377  0.00  0.00    -0.285 OA
HETATM    4  N   UNK N   1      27.286  26.714  -7.915  0.00  0.00    -0.291 N 
HETATM    5  N   UNK N   1      26.815  25.497  -8.216  0.00  0.00    -0.289 N 
ATOM      6  HN  UNK N   1      27.078  25.080  -9.108  1.00  0.00     0.187 HD
HETATM    7  C   UNK N   1      26.955  27.310  -6.726  0.00  0.00     0.068 A 
HETATM    8  C   UNK N   1      26.104  26.618  -5.813  0.00  0.00     0.048 A 
HETATM    9  C   UNK N   1      27.053  29.127  -5.154  0.00  0.00     0.107 A 
HETATM   10  C   UNK N   1      27.438  28.596  -6.382  0.00  0.00     0.072 A 
HETATM   11  C   UNK N   1      26.255  28.469  -4.306  0.00  0.00     0.106 A 
HETATM   12  C   UNK N   1      25.751  27.211  -4.585  0.00  0.00     0.057 A 
HETATM   13  C   UNK N   1      25.629  25.356  -6.149  0.00  0.00     0.219 A 
HETATM   14  C   UNK N   1      25.998  24.793  -7.380  0.00  0.00     0.173 A 
HETATM   15  C   UNK N   1      26.760  30.408  -3.370  0.00  0.00     0.352 A 
ENDROOT
BRANCH  14  16
HETATM   16  C   UNK N   1      25.525  23.451  -7.796  0.00  0.00     0.199 C 
HETATM   17  O   UNK N   1      24.729  23.323  -8.715  0.00  0.00    -0.645 OA
BRANCH  16  18
HETATM   18  O   UNK N   1      25.974  22.355  -7.158  0.00  0.00    -0.771 OA
HETATM   19  H   UNK N   1      26.839  22.036  -7.327  0.00  0.00     0.167 HD
ENDBRANCH  16  18
ENDBRANCH  14  16
BRANCH   4  20
HETATM   20  C   UNK N   1      28.162  27.419  -8.864  0.00  0.00     0.145 C 
HETATM   21  C   UNK N   1      27.916  27.029 -10.316  0.00  0.00     0.028 C 
ENDBRANCH   4  20
TORSDOF 3
ENDMDL
MODEL 8
REMARK VINA RESULT:      -5.7     11.133     12.766
REMARK  3 active torsions:
REMARK  status: ('A' for Active; 'I' for Inactive)
REMARK    1  A    between atoms: O_4  and  C_20 
REMARK    2  A    between atoms: N_6  and  C_15 
REMARK    3  A    between atoms: C_17  and  C_20 
ROOT
HETATM    1  O   UNK N   1      34.843  18.467  -6.675  0.00  0.00    -0.323 OA
HETATM    2  O   UNK N   1      35.630  18.672  -4.615  0.00  0.00    -0.323 OA
HETATM    3  O   UNK N   1      32.375  21.593  -2.023  0.00  0.00    -0.285 OA
HETATM    4  N   UNK N   1      30.944  21.232  -5.738  0.00  0.00    -0.291 N 
HETATM    5  N   UNK N   1      30.291  21.953  -4.818  0.00  0.00    -0.289 N 
ATOM      6  HN  UNK N   1      29.419  22.410  -5.084  1.00  0.00     0.187 HD
HETATM    7  C   UNK N   1      32.119  20.603  -5.419  0.00  0.00     0.068 A 
HETATM    8  C   UNK N   1      32.638  20.725  -4.096  0.00  0.00     0.048 A 
HETATM    9  C   UNK N   1      34.015  19.228  -5.965  0.00  0.00     0.107 A 
HETATM   10  C   UNK N   1      32.829  19.834  -6.372  0.00  0.00     0.072 A 
HETATM   11  C   UNK N   1      34.492  19.350  -4.721  0.00  0.00     0.106 A 
HETATM   12  C   UNK N   1      33.843  20.087  -3.746  0.00  0.00     0.057 A 
HETATM   13  C   UNK N   1      31.941  21.479  -3.160  0.00  0.00     0.219 A 
HETATM   14  C   UNK N   1      30.743  22.103  -3.539  0.00  0.00     0.173 A 
HETATM   15  C   UNK N   1      35.906  18.080  -5.851  0.00  0.00     0.352 A 
ENDROOT
BRANCH  14  16
HETATM   16  C   UNK N   1      29.954  22.921  -2.587  0.00  0.00     0.199 C 
HETATM   17  O   UNK N   1      28.939  23.498  -2.947  0.00  0.00    -0.645 OA
BRANCH  16  18
HETATM   18  O   UNK N   1      30.356  23.033  -1.308  0.00  0.00    -0.771 OA
HETATM   19  H   UNK N   1      31.128  23.522  -1.100  0.00  0.00     0.167 HD
ENDBRANCH  16  18
ENDBRANCH  14  16
BRANCH   4  20
HETATM   20  C   UNK N   1      30.399  21.112  -7.100  0.00  0.00     0.145 C 
HETATM   21  C   UNK N   1      29.433  19.946  -7.263  0.00  0.00     0.028 C 
ENDBRANCH   4  20
TORSDOF 3
ENDMDL
MODEL 9
REMARK VINA RESULT:      -5.7     12.630     15.707
REMARK  3 active torsions:
REMARK  status: ('A' for Active; 'I' for Inactive)
REMARK    1  A    between atoms: O_4  and  C_20 
REMARK    2  A    between atoms: N_6  and  C_15 
REMARK    3  A    between atoms: C_17  and  C_20 
ROOT
HETATM    1  O   UNK N   1      30.287  24.341  -2.946  0.00  0.00    -0.323 OA
HETATM    2  O   UNK N   1      31.011  22.623  -4.142  0.00  0.00    -0.323 OA
HETATM    3  O   UNK N   1      27.545  21.707  -7.747  0.00  0.00    -0.285 OA
HETATM    4  N   UNK N   1      26.226  24.807  -5.595  0.00  0.00    -0.291 N 
HETATM    5  N   UNK N   1      25.514  24.335  -6.626  0.00  0.00    -0.289 N 
ATOM      6  HN  UNK N   1      24.627  24.782  -6.853  1.00  0.00     0.187 HD
HETATM    7  C   UNK N   1      27.425  24.232  -5.260  0.00  0.00     0.068 A 
HETATM    8  C   UNK N   1      27.904  23.126  -6.021  0.00  0.00     0.048 A 
HETATM    9  C   UNK N   1      29.403  24.070  -3.903  0.00  0.00     0.107 A 
HETATM   10  C   UNK N   1      28.197  24.712  -4.175  0.00  0.00     0.072 A 
HETATM   11  C   UNK N   1      29.842  23.034  -4.624  0.00  0.00     0.106 A 
HETATM   12  C   UNK N   1      29.132  22.520  -5.695  0.00  0.00     0.057 A 
HETATM   13  C   UNK N   1      27.146  22.654  -7.087  0.00  0.00     0.219 A 
HETATM   14  C   UNK N   1      25.927  23.279  -7.387  0.00  0.00     0.173 A 
HETATM   15  C   UNK N   1      31.348  23.434  -3.055  0.00  0.00     0.352 A 
ENDROOT
BRANCH  14  16
HETATM   16  C   UNK N   1      25.073  22.823  -8.510  0.00  0.00     0.199 C 
HETATM   17  O   UNK N   1      23.969  22.341  -8.304  0.00  0.00    -0.645 OA
BRANCH  16  18
HETATM   18  O   UNK N   1      25.513  22.939  -9.776  0.00  0.00    -0.771 OA
HETATM   19  H   UNK N   1      26.414  23.141  -9.942  0.00  0.00     0.167 HD
ENDBRANCH  16  18
ENDBRANCH  14  16
BRANCH   4  20
HETATM   20  C   UNK N   1      25.722  25.950  -4.817  0.00  0.00     0.145 C 
HETATM   21  C   UNK N   1      24.969  26.969  -5.661  0.00  0.00     0.028 C 
ENDBRANCH   4  20
TORSDOF 3
ENDMDL
