MODEL 1
REMARK VINA RESULT:      -4.0      0.000      0.000
REMARK  3 active torsions:
REMARK  status: ('A' for Active; 'I' for Inactive)
REMARK    1  A    between atoms: P_1  and  O_3 
REMARK    2  A    between atoms: P_1  and  O_4 
REMARK    3  A    between atoms: P_1  and  C_6 
ROOT
HETATM    1  P   UNK N   1      34.345  17.866   8.131  0.00  0.00     0.268 P 
HETATM    2  O   UNK N   1      34.528  17.750   6.594  0.00  0.00    -0.652 OA
ENDROOT
BRANCH   1   3
HETATM    3  O   UNK N   1      32.681  18.313   8.333  0.00  0.00    -0.327 OA
HETATM    4  H   UNK N   1      31.919  18.202   8.923  0.00  0.00     0.220 HD
ENDBRANCH   1   3
BRANCH   1   5
HETATM    5  O   UNK N   1      35.295  19.254   8.555  0.00  0.00    -0.327 OA
HETATM    6  H   UNK N   1      36.076  19.594   9.018  0.00  0.00     0.220 HD
ENDBRANCH   1   5
BRANCH   1   7
HETATM    7  C   UNK N   1      34.882  16.304   8.996  0.00  0.00     0.261 A 
HETATM    8  O   UNK N   1      35.812  16.648   9.994  0.00  0.00    -0.363 OA
HETATM    9  C   UNK N   1      34.519  16.351  10.433  0.00  0.00     0.159 A 
HETATM   10  C   UNK N   1      34.514  14.946  11.000  0.00  0.00     0.043 C 
ENDBRANCH   1   7
TORSDOF 3
ENDMDL
MODEL 2
REMARK VINA RESULT:      -3.9      0.500      1.720
REMARK  3 active torsions:
REMARK  status: ('A' for Active; 'I' for Inactive)
REMARK    1  A    between atoms: P_1  and  O_3 
REMARK    2  A    between atoms: P_1  and  O_4 
REMARK    3  A    between atoms: P_1  and  C_6 
ROOT
HETATM    1  P   UNK N   1      34.261  17.914   8.105  0.00  0.00     0.268 P 
HETATM    2  O   UNK N   1      32.832  18.500   8.263  0.00  0.00    -0.652 OA
ENDROOT
BRANCH   1   3
HETATM    3  O   UNK N   1      35.312  19.212   8.576  0.00  0.00    -0.327 OA
HETATM    4  H   UNK N   1      35.524  20.140   8.388  0.00  0.00     0.220 HD
ENDBRANCH   1   3
BRANCH   1   5
HETATM    5  O   UNK N   1      34.438  17.721   6.390  0.00  0.00    -0.327 OA
HETATM    6  H   UNK N   1      34.093  17.320   5.577  0.00  0.00     0.220 HD
ENDBRANCH   1   5
BRANCH   1   7
HETATM    7  C   UNK N   1      34.450  16.322   9.057  0.00  0.00     0.261 A 
HETATM    8  O   UNK N   1      35.823  16.085   9.254  0.00  0.00    -0.363 OA
HETATM    9  C   UNK N   1      35.117  16.568  10.358  0.00  0.00     0.159 A 
HETATM   10  C   UNK N   1      34.838  15.411  11.296  0.00  0.00     0.043 C 
ENDBRANCH   1   7
TORSDOF 3
ENDMDL
MODEL 3
REMARK VINA RESULT:      -3.7     14.669     15.607
REMARK  3 active torsions:
REMARK  status: ('A' for Active; 'I' for Inactive)
REMARK    1  A    between atoms: P_1  and  O_3 
REMARK    2  A    between atoms: P_1  and  O_4 
REMARK    3  A    between atoms: P_1  and  C_6 
ROOT
HETATM    1  P   UNK N   1      21.021  20.376   2.568  0.00  0.00     0.268 P 
HETATM    2  O   UNK N   1      22.413  21.055   2.685  0.00  0.00    -0.652 OA
ENDROOT
BRANCH   1   3
HETATM    3  O   UNK N   1      20.407  20.916   1.038  0.00  0.00    -0.327 OA
HETATM    4  H   UNK N   1      19.886  20.629   0.271  0.00  0.00     0.220 HD
ENDBRANCH   1   3
BRANCH   1   5
HETATM    5  O   UNK N   1      20.078  21.159   3.795  0.00  0.00    -0.327 OA
HETATM    6  H   UNK N   1      19.269  21.650   4.010  0.00  0.00     0.220 HD
ENDBRANCH   1   5
BRANCH   1   7
HETATM    7  C   UNK N   1      21.148  18.529   2.792  0.00  0.00     0.261 A 
HETATM    8  O   UNK N   1      20.016  18.091   3.504  0.00  0.00    -0.363 OA
HETATM    9  C   UNK N   1      20.013  17.844   2.129  0.00  0.00     0.159 A 
HETATM   10  C   UNK N   1      20.365  16.388   1.901  0.00  0.00     0.043 C 
ENDBRANCH   1   7
TORSDOF 3
ENDMDL
MODEL 4
REMARK VINA RESULT:      -3.7     10.972     11.872
REMARK  3 active torsions:
REMARK  status: ('A' for Active; 'I' for Inactive)
REMARK    1  A    between atoms: P_1  and  O_3 
REMARK    2  A    between atoms: P_1  and  O_4 
REMARK    3  A    between atoms: P_1  and  C_6 
ROOT
HETATM    1  P   UNK N   1      44.013  22.459   4.347  0.00  0.00     0.268 P 
HETATM    2  O   UNK N   1      43.797  22.632   5.875  0.00  0.00    -0.652 OA
ENDROOT
BRANCH   1   3
HETATM    3  O   UNK N   1      45.730  22.267   4.176  0.00  0.00    -0.327 OA
HETATM    4  H   UNK N   1      46.559  22.265   4.680  0.00  0.00     0.220 HD
ENDBRANCH   1   3
BRANCH   1   5
HETATM    5  O   UNK N   1      43.613  24.017   3.697  0.00  0.00    -0.327 OA
HETATM    6  H   UNK N   1      43.236  24.895   3.862  0.00  0.00     0.220 HD
ENDBRANCH   1   5
BRANCH   1   7
HETATM    7  C   UNK N   1      42.964  21.076   3.667  0.00  0.00     0.261 A 
HETATM    8  O   UNK N   1      42.032  21.629   2.769  0.00  0.00    -0.363 OA
HETATM    9  C   UNK N   1      43.125  20.974   2.196  0.00  0.00     0.159 A 
HETATM   10  C   UNK N   1      42.676  19.603   1.732  0.00  0.00     0.043 C 
ENDBRANCH   1   7
TORSDOF 3
ENDMDL
MODEL 5
REMARK VINA RESULT:      -3.6      3.571      5.115
REMARK  3 active torsions:
REMARK  status: ('A' for Active; 'I' for Inactive)
REMARK    1  A    between atoms: P_1  and  O_3 
REMARK    2  A    between atoms: P_1  and  O_4 
REMARK    3  A    between atoms: P_1  and  C_6 
ROOT
HETATM    1  P   UNK N   1      35.928  14.451  12.476  0.00  0.00     0.268 P 
HETATM    2  O   UNK N   1      36.287  14.723  13.961  0.00  0.00    -0.652 OA
ENDROOT
BRANCH   1   3
HETATM    3  O   UNK N   1      34.634  13.296  12.551  0.00  0.00    -0.327 OA
HETATM    4  H   UNK N   1      33.911  12.985  13.119  0.00  0.00     0.220 HD
ENDBRANCH   1   3
BRANCH   1   5
HETATM    5  O   UNK N   1      37.317  13.611  11.864  0.00  0.00    -0.327 OA
HETATM    6  H   UNK N   1      37.682  13.040  11.171  0.00  0.00     0.220 HD
ENDBRANCH   1   5
BRANCH   1   7
HETATM    7  C   UNK N   1      35.556  16.036  11.568  0.00  0.00     0.261 A 
HETATM    8  O   UNK N   1      36.622  16.301  10.688  0.00  0.00    -0.363 OA
HETATM    9  C   UNK N   1      35.457  15.791  10.109  0.00  0.00     0.159 A 
HETATM   10  C   UNK N   1      34.705  16.931   9.454  0.00  0.00     0.043 C 
ENDBRANCH   1   7
TORSDOF 3
ENDMDL
MODEL 6
REMARK VINA RESULT:      -3.6     13.495     14.479
REMARK  3 active torsions:
REMARK  status: ('A' for Active; 'I' for Inactive)
REMARK    1  A    between atoms: P_1  and  O_3 
REMARK    2  A    between atoms: P_1  and  O_4 
REMARK    3  A    between atoms: P_1  and  C_6 
ROOT
HETATM    1  P   UNK N   1      44.526  22.994   2.997  0.00  0.00     0.268 P 
HETATM    2  O   UNK N   1      43.781  21.773   2.394  0.00  0.00    -0.652 OA
ENDROOT
BRANCH   1   3
HETATM    3  O   UNK N   1      45.697  22.295   4.070  0.00  0.00    -0.327 OA
HETATM    4  H   UNK N   1      45.798  21.642   4.780  0.00  0.00     0.220 HD
ENDBRANCH   1   3
BRANCH   1   5
HETATM    5  O   UNK N   1      43.327  23.759   3.989  0.00  0.00    -0.327 OA
HETATM    6  H   UNK N   1      42.464  24.201   4.028  0.00  0.00     0.220 HD
ENDBRANCH   1   5
BRANCH   1   7
HETATM    7  C   UNK N   1      45.203  24.102   1.659  0.00  0.00     0.261 A 
HETATM    8  O   UNK N   1      44.848  25.429   1.962  0.00  0.00    -0.363 OA
HETATM    9  C   UNK N   1      46.173  25.071   2.224  0.00  0.00     0.159 A 
HETATM   10  C   UNK N   1      47.048  25.617   1.114  0.00  0.00     0.043 C 
ENDBRANCH   1   7
TORSDOF 3
ENDMDL
MODEL 7
REMARK VINA RESULT:      -3.5      2.224      3.735
REMARK  3 active torsions:
REMARK  status: ('A' for Active; 'I' for Inactive)
REMARK    1  A    between atoms: P_1  and  O_3 
REMARK    2  A    between atoms: P_1  and  O_4 
REMARK    3  A    between atoms: P_1  and  C_6 
ROOT
HETATM    1  P   UNK N   1      34.595  16.474   9.410  0.00  0.00     0.268 P 
HETATM    2  O   UNK N   1      35.535  17.385  10.245  0.00  0.00    -0.652 OA
ENDROOT
BRANCH   1   3
HETATM    3  O   UNK N   1      33.585  15.702  10.592  0.00  0.00    -0.327 OA
HETATM    4  H   UNK N   1      33.429  15.636  11.547  0.00  0.00     0.220 HD
ENDBRANCH   1   3
BRANCH   1   5
HETATM    5  O   UNK N   1      35.657  15.254   8.782  0.00  0.00    -0.327 OA
HETATM    6  H   UNK N   1      36.548  15.035   8.468  0.00  0.00     0.220 HD
ENDBRANCH   1   5
BRANCH   1   7
HETATM    7  C   UNK N   1      33.710  17.444   8.087  0.00  0.00     0.261 A 
HETATM    8  O   UNK N   1      34.661  18.211   7.391  0.00  0.00    -0.363 OA
HETATM    9  C   UNK N   1      34.203  17.062   6.742  0.00  0.00     0.159 A 
HETATM   10  C   UNK N   1      33.187  17.473   5.695  0.00  0.00     0.043 C 
ENDBRANCH   1   7
TORSDOF 3
ENDMDL
MODEL 8
REMARK VINA RESULT:      -3.5      2.572      3.483
REMARK  3 active torsions:
REMARK  status: ('A' for Active; 'I' for Inactive)
REMARK    1  A    between atoms: P_1  and  O_3 
REMARK    2  A    between atoms: P_1  and  O_4 
REMARK    3  A    between atoms: P_1  and  C_6 
ROOT
HETATM    1  P   UNK N   1      34.221  17.711   8.356  0.00  0.00     0.268 P 
HETATM    2  O   UNK N   1      35.084  18.965   8.050  0.00  0.00    -0.652 OA
ENDROOT
BRANCH   1   3
HETATM    3  O   UNK N   1      34.627  17.301   9.993  0.00  0.00    -0.327 OA
HETATM    4  H   UNK N   1      35.227  16.753  10.524  0.00  0.00     0.220 HD
ENDBRANCH   1   3
BRANCH   1   5
HETATM    5  O   UNK N   1      34.909  16.482   7.344  0.00  0.00    -0.327 OA
HETATM    6  H   UNK N   1      35.083  15.537   7.216  0.00  0.00     0.220 HD
ENDBRANCH   1   5
BRANCH   1   7
HETATM    7  C   UNK N   1      32.416  18.031   8.018  0.00  0.00     0.261 A 
HETATM    8  O   UNK N   1      31.945  17.030   7.149  0.00  0.00    -0.363 OA
HETATM    9  C   UNK N   1      31.587  16.897   8.493  0.00  0.00     0.159 A 
HETATM   10  C   UNK N   1      30.152  17.354   8.656  0.00  0.00     0.043 C 
ENDBRANCH   1   7
TORSDOF 3
ENDMDL
MODEL 9
REMARK VINA RESULT:      -3.5      2.207      3.853
REMARK  3 active torsions:
REMARK  status: ('A' for Active; 'I' for Inactive)
REMARK    1  A    between atoms: P_1  and  O_3 
REMARK    2  A    between atoms: P_1  and  O_4 
REMARK    3  A    between atoms: P_1  and  C_6 
ROOT
HETATM    1  P   UNK N   1      34.339  15.892   9.975  0.00  0.00     0.268 P 
HETATM    2  O   UNK N   1      35.497  14.921   9.617  0.00  0.00    -0.652 OA
ENDROOT
BRANCH   1   3
HETATM    3  O   UNK N   1      35.104  17.156  10.885  0.00  0.00    -0.327 OA
HETATM    4  H   UNK N   1      35.964  17.447  11.226  0.00  0.00     0.220 HD
ENDBRANCH   1   3
BRANCH   1   5
HETATM    5  O   UNK N   1      33.371  14.982  11.091  0.00  0.00    -0.327 OA
HETATM    6  H   UNK N   1      32.708  14.286  11.212  0.00  0.00     0.220 HD
ENDBRANCH   1   5
BRANCH   1   7
HETATM    7  C   UNK N   1      33.411  16.429   8.450  0.00  0.00     0.261 A 
HETATM    8  O   UNK N   1      33.196  17.817   8.529  0.00  0.00    -0.363 OA
HETATM    9  C   UNK N   1      34.212  17.400   7.666  0.00  0.00     0.159 A 
HETATM   10  C   UNK N   1      33.690  17.456   6.245  0.00  0.00     0.043 C 
ENDBRANCH   1   7
TORSDOF 3
ENDMDL
