MODEL 1
REMARK VINA RESULT:      -7.3      0.000      0.000
REMARK  1 active torsions:
REMARK  status: ('A' for Active; 'I' for Inactive)
REMARK    1  A    between atoms: C_8  and  C_11 
ROOT
HETATM    1 Cl   UNK N   1      28.198  17.820   9.371  0.00  0.00    -0.084 Cl
HETATM    2  O   UNK N   1      32.543  16.634   2.606  0.00  0.00    -0.271 OA
HETATM    3  N   UNK N   1      31.925  17.096   4.711  0.00  0.00    -0.320 N 
HETATM    4  N   UNK N   1      29.290  17.040   3.142  0.00  0.00    -0.380 N 
ATOM      5  HN  UNK N   1      28.848  17.294   2.259  1.00  0.00     0.160 HD
HETATM    6  C   UNK N   1      29.531  17.429   5.561  0.00  0.00     0.020 A 
HETATM    7  C   UNK N   1      30.943  17.186   5.765  0.00  0.00     0.049 A 
HETATM    8  C   UNK N   1      28.848  17.608   4.212  0.00  0.00     0.051 C 
HETATM    9  C   UNK N   1      30.351  16.083   3.096  0.00  0.00     0.223 C 
HETATM   10  C   UNK N   1      31.657  16.659   3.451  0.00  0.00     0.241 C 
HETATM   11  C   UNK N   1      28.734  17.612   6.708  0.00  0.00     0.040 A 
HETATM   12  C   UNK N   1      31.428  17.148   7.091  0.00  0.00     0.032 A 
HETATM   13  C   UNK N   1      33.302  17.428   5.029  0.00  0.00     0.159 C 
HETATM   14  C   UNK N   1      29.248  17.555   7.997  0.00  0.00     0.035 A 
HETATM   15  C   UNK N   1      30.597  17.319   8.190  0.00  0.00     0.026 A 
ENDROOT
BRANCH   8  16
HETATM   16  C   UNK N   1      27.558  18.379   4.057  0.00  0.00    -0.009 A 
HETATM   17  C   UNK N   1      27.590  19.786   4.102  0.00  0.00     0.014 A 
HETATM   18  C   UNK N   1      26.425  20.538   3.927  0.00  0.00     0.001 A 
HETATM   19  C   UNK N   1      25.209  19.898   3.690  0.00  0.00     0.000 A 
HETATM   20  C   UNK N   1      25.155  18.505   3.642  0.00  0.00     0.001 A 
HETATM   21  C   UNK N   1      26.319  17.753   3.830  0.00  0.00     0.014 A 
ENDBRANCH   8  16
TORSDOF 1
ENDMDL
MODEL 2
REMARK VINA RESULT:      -6.9      8.587     10.733
REMARK  1 active torsions:
REMARK  status: ('A' for Active; 'I' for Inactive)
REMARK    1  A    between atoms: C_8  and  C_11 
ROOT
HETATM    1 Cl   UNK N   1      20.482  10.776   5.161  0.00  0.00    -0.084 Cl
HETATM    2  O   UNK N   1      20.931  18.626   7.218  0.00  0.00    -0.271 OA
HETATM    3  N   UNK N   1      21.021  16.690   6.090  0.00  0.00    -0.320 N 
HETATM    4  N   UNK N   1      20.647  15.847   9.016  0.00  0.00    -0.380 N 
ATOM      5  HN  UNK N   1      20.913  16.058   9.978  1.00  0.00     0.160 HD
HETATM    6  C   UNK N   1      20.792  14.336   7.077  0.00  0.00     0.020 A 
HETATM    7  C   UNK N   1      20.800  15.269   5.970  0.00  0.00     0.049 A 
HETATM    8  C   UNK N   1      20.994  14.698   8.542  0.00  0.00     0.051 C 
HETATM    9  C   UNK N   1      19.920  16.848   8.299  0.00  0.00     0.223 C 
HETATM   10  C   UNK N   1      20.689  17.426   7.186  0.00  0.00     0.241 C 
HETATM   11  C   UNK N   1      20.688  12.966   6.768  0.00  0.00     0.040 A 
HETATM   12  C   UNK N   1      20.703  14.750   4.660  0.00  0.00     0.032 A 
HETATM   13  C   UNK N   1      21.569  17.396   4.947  0.00  0.00     0.159 C 
HETATM   14  C   UNK N   1      20.581  12.496   5.465  0.00  0.00     0.035 A 
HETATM   15  C   UNK N   1      20.584  13.389   4.409  0.00  0.00     0.026 A 
ENDROOT
BRANCH   8  16
HETATM   16  C   UNK N   1      21.518  13.707   9.554  0.00  0.00    -0.009 A 
HETATM   17  C   UNK N   1      22.899  13.435   9.596  0.00  0.00     0.014 A 
HETATM   18  C   UNK N   1      23.430  12.552  10.540  0.00  0.00     0.001 A 
HETATM   19  C   UNK N   1      22.593  11.933  11.468  0.00  0.00     0.000 A 
HETATM   20  C   UNK N   1      21.221  12.188  11.443  0.00  0.00     0.001 A 
HETATM   21  C   UNK N   1      20.689  13.062  10.490  0.00  0.00     0.014 A 
ENDBRANCH   8  16
TORSDOF 1
ENDMDL
MODEL 3
REMARK VINA RESULT:      -6.5     12.172     13.282
REMARK  1 active torsions:
REMARK  status: ('A' for Active; 'I' for Inactive)
REMARK    1  A    between atoms: C_8  and  C_11 
ROOT
HETATM    1 Cl   UNK N   1      31.026  23.561  -3.903  0.00  0.00    -0.084 Cl
HETATM    2  O   UNK N   1      25.221  21.458  -9.188  0.00  0.00    -0.271 OA
HETATM    3  N   UNK N   1      27.201  21.827  -8.204  0.00  0.00    -0.320 N 
HETATM    4  N   UNK N   1      25.188  23.334  -6.447  0.00  0.00    -0.380 N 
ATOM      5  HN  UNK N   1      24.347  23.909  -6.461  1.00  0.00     0.160 HD
HETATM    6  C   UNK N   1      27.614  23.165  -6.057  0.00  0.00     0.020 A 
HETATM    7  C   UNK N   1      28.017  22.225  -7.081  0.00  0.00     0.049 A 
HETATM    8  C   UNK N   1      26.266  23.870  -5.983  0.00  0.00     0.051 C 
HETATM    9  C   UNK N   1      25.081  21.998  -6.943  0.00  0.00     0.223 C 
HETATM   10  C   UNK N   1      25.842  21.785  -8.185  0.00  0.00     0.241 C 
HETATM   11  C   UNK N   1      28.581  23.536  -5.103  0.00  0.00     0.040 A 
HETATM   12  C   UNK N   1      29.345  21.743  -7.058  0.00  0.00     0.032 A 
HETATM   13  C   UNK N   1      27.871  21.377  -9.410  0.00  0.00     0.159 C 
HETATM   14  C   UNK N   1      29.874  23.029  -5.107  0.00  0.00     0.035 A 
HETATM   15  C   UNK N   1      30.256  22.128  -6.084  0.00  0.00     0.026 A 
ENDROOT
BRANCH   8  16
HETATM   16  C   UNK N   1      26.085  25.192  -5.276  0.00  0.00    -0.009 A 
HETATM   17  C   UNK N   1      25.444  26.249  -5.951  0.00  0.00     0.014 A 
HETATM   18  C   UNK N   1      25.224  27.477  -5.320  0.00  0.00     0.001 A 
HETATM   19  C   UNK N   1      25.629  27.667  -3.999  0.00  0.00     0.000 A 
HETATM   20  C   UNK N   1      26.267  26.633  -3.313  0.00  0.00     0.001 A 
HETATM   21  C   UNK N   1      26.497  25.410  -3.948  0.00  0.00     0.014 A 
ENDBRANCH   8  16
TORSDOF 1
ENDMDL
MODEL 4
REMARK VINA RESULT:      -6.4     10.002     13.089
REMARK  1 active torsions:
REMARK  status: ('A' for Active; 'I' for Inactive)
REMARK    1  A    between atoms: C_8  and  C_11 
ROOT
HETATM    1 Cl   UNK N   1      35.297  16.473  11.223  0.00  0.00    -0.084 Cl
HETATM    2  O   UNK N   1      35.528   8.703  13.596  0.00  0.00    -0.271 OA
HETATM    3  N   UNK N   1      35.004  10.619  12.554  0.00  0.00    -0.320 N 
HETATM    4  N   UNK N   1      36.732  11.496  14.933  0.00  0.00    -0.380 N 
ATOM      5  HN  UNK N   1      36.936  11.319  15.916  1.00  0.00     0.160 HD
HETATM    6  C   UNK N   1      35.765  12.974  13.218  0.00  0.00     0.020 A 
HETATM    7  C   UNK N   1      35.203  12.022  12.283  0.00  0.00     0.049 A 
HETATM    8  C   UNK N   1      36.254  12.653  14.624  0.00  0.00     0.051 C 
HETATM    9  C   UNK N   1      36.999  10.441  14.006  0.00  0.00     0.223 C 
HETATM   10  C   UNK N   1      35.777   9.887  13.402  0.00  0.00     0.241 C 
HETATM   11  C   UNK N   1      35.771  14.330  12.836  0.00  0.00     0.040 A 
HETATM   12  C   UNK N   1      34.702  12.510  11.056  0.00  0.00     0.032 A 
HETATM   13  C   UNK N   1      33.958   9.924  11.828  0.00  0.00     0.159 C 
HETATM   14  C   UNK N   1      35.279  14.768  11.613  0.00  0.00     0.035 A 
HETATM   15  C   UNK N   1      34.747  13.856  10.719  0.00  0.00     0.026 A 
ENDROOT
BRANCH   8  16
HETATM   16  C   UNK N   1      36.302  13.693  15.719  0.00  0.00    -0.009 A 
HETATM   17  C   UNK N   1      35.465  13.547  16.841  0.00  0.00     0.014 A 
HETATM   18  C   UNK N   1      35.505  14.466  17.893  0.00  0.00     0.001 A 
HETATM   19  C   UNK N   1      36.392  15.541  17.849  0.00  0.00     0.000 A 
HETATM   20  C   UNK N   1      37.230  15.705  16.745  0.00  0.00     0.001 A 
HETATM   21  C   UNK N   1      37.180  14.791  15.688  0.00  0.00     0.014 A 
ENDBRANCH   8  16
TORSDOF 1
ENDMDL
MODEL 5
REMARK VINA RESULT:      -6.4      3.193      6.423
REMARK  1 active torsions:
REMARK  status: ('A' for Active; 'I' for Inactive)
REMARK    1  A    between atoms: C_8  and  C_11 
ROOT
HETATM    1 Cl   UNK N   1      31.753  14.374   3.433  0.00  0.00    -0.084 Cl
HETATM    2  O   UNK N   1      27.399  20.043   7.299  0.00  0.00    -0.271 OA
HETATM    3  N   UNK N   1      28.373  18.788   5.717  0.00  0.00    -0.320 N 
HETATM    4  N   UNK N   1      29.781  17.962   8.315  0.00  0.00    -0.380 N 
ATOM      5  HN  UNK N   1      30.153  18.307   9.199  1.00  0.00     0.160 HD
HETATM    6  C   UNK N   1      30.203  17.031   6.075  0.00  0.00     0.020 A 
HETATM    7  C   UNK N   1      29.165  17.661   5.287  0.00  0.00     0.049 A 
HETATM    8  C   UNK N   1      30.615  17.435   7.485  0.00  0.00     0.051 C 
HETATM    9  C   UNK N   1      28.376  18.102   8.093  0.00  0.00     0.223 C 
HETATM   10  C   UNK N   1      28.058  19.051   7.014  0.00  0.00     0.241 C 
HETATM   11  C   UNK N   1      30.965  16.022   5.454  0.00  0.00     0.040 A 
HETATM   12  C   UNK N   1      28.984  17.228   3.955  0.00  0.00     0.032 A 
HETATM   13  C   UNK N   1      27.818  19.662   4.700  0.00  0.00     0.159 C 
HETATM   14  C   UNK N   1      30.746  15.615   4.144  0.00  0.00     0.035 A 
HETATM   15  C   UNK N   1      29.751  16.217   3.394  0.00  0.00     0.026 A 
ENDROOT
BRANCH   8  16
HETATM   16  C   UNK N   1      31.994  17.154   8.034  0.00  0.00    -0.009 A 
HETATM   17  C   UNK N   1      33.012  18.110   7.853  0.00  0.00     0.014 A 
HETATM   18  C   UNK N   1      34.292  17.906   8.377  0.00  0.00     0.001 A 
HETATM   19  C   UNK N   1      34.574  16.750   9.103  0.00  0.00     0.000 A 
HETATM   20  C   UNK N   1      33.579  15.789   9.293  0.00  0.00     0.001 A 
HETATM   21  C   UNK N   1      32.303  15.989   8.758  0.00  0.00     0.014 A 
ENDBRANCH   8  16
TORSDOF 1
ENDMDL
MODEL 6
REMARK VINA RESULT:      -6.3      2.173      5.972
REMARK  1 active torsions:
REMARK  status: ('A' for Active; 'I' for Inactive)
REMARK    1  A    between atoms: C_8  and  C_11 
ROOT
HETATM    1 Cl   UNK N   1      28.424  18.139   9.435  0.00  0.00    -0.084 Cl
HETATM    2  O   UNK N   1      32.457  16.606   2.547  0.00  0.00    -0.271 OA
HETATM    3  N   UNK N   1      30.845  16.842   4.088  0.00  0.00    -0.320 N 
HETATM    4  N   UNK N   1      33.457  17.038   5.685  0.00  0.00    -0.380 N 
ATOM      5  HN  UNK N   1      34.400  16.662   5.777  1.00  0.00     0.160 HD
HETATM    6  C   UNK N   1      31.179  17.247   6.597  0.00  0.00     0.020 A 
HETATM    7  C   UNK N   1      30.373  17.235   5.394  0.00  0.00     0.049 A 
HETATM    8  C   UNK N   1      32.652  16.871   6.679  0.00  0.00     0.051 C 
HETATM    9  C   UNK N   1      33.130  17.708   4.466  0.00  0.00     0.223 C 
HETATM   10  C   UNK N   1      32.130  16.985   3.665  0.00  0.00     0.241 C 
HETATM   11  C   UNK N   1      30.526  17.536   7.810  0.00  0.00     0.040 A 
HETATM   12  C   UNK N   1      28.993  17.511   5.514  0.00  0.00     0.032 A 
HETATM   13  C   UNK N   1      29.878  16.325   3.138  0.00  0.00     0.159 C 
HETATM   14  C   UNK N   1      29.167  17.816   7.885  0.00  0.00     0.035 A 
HETATM   15  C   UNK N   1      28.400  17.807   6.734  0.00  0.00     0.026 A 
ENDROOT
BRANCH   8  16
HETATM   16  C   UNK N   1      33.287  16.372   7.956  0.00  0.00    -0.009 A 
HETATM   17  C   UNK N   1      33.059  15.043   8.362  0.00  0.00     0.014 A 
HETATM   18  C   UNK N   1      33.656  14.531   9.517  0.00  0.00     0.001 A 
HETATM   19  C   UNK N   1      34.503  15.333  10.281  0.00  0.00     0.000 A 
HETATM   20  C   UNK N   1      34.742  16.653   9.897  0.00  0.00     0.001 A 
HETATM   21  C   UNK N   1      34.134  17.168   8.748  0.00  0.00     0.014 A 
ENDBRANCH   8  16
TORSDOF 1
ENDMDL
MODEL 7
REMARK VINA RESULT:      -6.3     14.196     15.698
REMARK  1 active torsions:
REMARK  status: ('A' for Active; 'I' for Inactive)
REMARK    1  A    between atoms: C_8  and  C_11 
ROOT
HETATM    1 Cl   UNK N   1      29.360  27.880 -10.187  0.00  0.00    -0.084 Cl
HETATM    2  O   UNK N   1      25.319  27.933  -3.136  0.00  0.00    -0.271 OA
HETATM    3  N   UNK N   1      26.828  28.305  -4.752  0.00  0.00    -0.320 N 
HETATM    4  N   UNK N   1      25.145  25.967  -5.808  0.00  0.00    -0.380 N 
ATOM      5  HN  UNK N   1      24.667  25.106  -5.543  1.00  0.00     0.160 HD
HETATM    6  C   UNK N   1      27.010  27.061  -6.985  0.00  0.00     0.020 A 
HETATM    7  C   UNK N   1      27.311  28.171  -6.106  0.00  0.00     0.049 A 
HETATM    8  C   UNK N   1      26.126  25.871  -6.640  0.00  0.00     0.051 C 
HETATM    9  C   UNK N   1      24.674  27.186  -5.228  0.00  0.00     0.223 C 
HETATM   10  C   UNK N   1      25.647  27.795  -4.308  0.00  0.00     0.241 C 
HETATM   11  C   UNK N   1      27.668  27.027  -8.231  0.00  0.00     0.040 A 
HETATM   12  C   UNK N   1      28.237  29.141  -6.549  0.00  0.00     0.032 A 
HETATM   13  C   UNK N   1      27.615  29.090  -3.820  0.00  0.00     0.159 C 
HETATM   14  C   UNK N   1      28.563  28.009  -8.635  0.00  0.00     0.035 A 
HETATM   15  C   UNK N   1      28.846  29.070  -7.795  0.00  0.00     0.026 A 
ENDROOT
BRANCH   8  16
HETATM   16  C   UNK N   1      26.275  24.530  -7.320  0.00  0.00    -0.009 A 
HETATM   17  C   UNK N   1      27.163  23.581  -6.777  0.00  0.00     0.014 A 
HETATM   18  C   UNK N   1      27.304  22.316  -7.354  0.00  0.00     0.001 A 
HETATM   19  C   UNK N   1      26.551  21.971  -8.476  0.00  0.00     0.000 A 
HETATM   20  C   UNK N   1      25.667  22.897  -9.030  0.00  0.00     0.001 A 
HETATM   21  C   UNK N   1      25.535  24.167  -8.460  0.00  0.00     0.014 A 
ENDBRANCH   8  16
TORSDOF 1
ENDMDL
MODEL 8
REMARK VINA RESULT:      -6.2      4.291      7.039
REMARK  1 active torsions:
REMARK  status: ('A' for Active; 'I' for Inactive)
REMARK    1  A    between atoms: C_8  and  C_11 
ROOT
HETATM    1 Cl   UNK N   1      23.768  14.342   7.136  0.00  0.00    -0.084 Cl
HETATM    2  O   UNK N   1      23.019  21.054   2.615  0.00  0.00    -0.271 OA
HETATM    3  N   UNK N   1      22.584  19.222   3.832  0.00  0.00    -0.320 N 
HETATM    4  N   UNK N   1      25.590  19.047   3.244  0.00  0.00    -0.380 N 
ATOM      5  HN  UNK N   1      26.304  19.208   2.535  1.00  0.00     0.160 HD
HETATM    6  C   UNK N   1      24.277  17.451   4.583  0.00  0.00     0.020 A 
HETATM    7  C   UNK N   1      22.989  18.108   4.655  0.00  0.00     0.049 A 
HETATM    8  C   UNK N   1      25.416  17.834   3.648  0.00  0.00     0.051 C 
HETATM    9  C   UNK N   1      24.859  20.183   3.712  0.00  0.00     0.223 C 
HETATM   10  C   UNK N   1      23.440  20.150   3.325  0.00  0.00     0.241 C 
HETATM   11  C   UNK N   1      24.461  16.299   5.372  0.00  0.00     0.040 A 
HETATM   12  C   UNK N   1      22.007  17.556   5.506  0.00  0.00     0.032 A 
HETATM   13  C   UNK N   1      21.167  19.406   3.581  0.00  0.00     0.159 C 
HETATM   14  C   UNK N   1      23.472  15.795   6.207  0.00  0.00     0.035 A 
HETATM   15  C   UNK N   1      22.244  16.426   6.278  0.00  0.00     0.026 A 
ENDROOT
BRANCH   8  16
HETATM   16  C   UNK N   1      26.472  16.844   3.213  0.00  0.00    -0.009 A 
HETATM   17  C   UNK N   1      26.128  15.834   2.294  0.00  0.00     0.014 A 
HETATM   18  C   UNK N   1      27.082  14.921   1.838  0.00  0.00     0.001 A 
HETATM   19  C   UNK N   1      28.402  15.008   2.283  0.00  0.00     0.000 A 
HETATM   20  C   UNK N   1      28.763  16.001   3.194  0.00  0.00     0.001 A 
HETATM   21  C   UNK N   1      27.804  16.906   3.659  0.00  0.00     0.014 A 
ENDBRANCH   8  16
TORSDOF 1
ENDMDL
MODEL 9
REMARK VINA RESULT:      -5.9     11.202     13.289
REMARK  1 active torsions:
REMARK  status: ('A' for Active; 'I' for Inactive)
REMARK    1  A    between atoms: C_8  and  C_11 
ROOT
HETATM    1 Cl   UNK N   1      33.318  27.192  -5.137  0.00  0.00    -0.084 Cl
HETATM    2  O   UNK N   1      25.515  27.798  -2.946  0.00  0.00    -0.271 OA
HETATM    3  N   UNK N   1      27.707  28.180  -3.219  0.00  0.00    -0.320 N 
HETATM    4  N   UNK N   1      27.320  25.282  -4.147  0.00  0.00    -0.380 N 
ATOM      5  HN  UNK N   1      26.826  24.411  -3.954  1.00  0.00     0.160 HD
HETATM    6  C   UNK N   1      29.437  26.539  -4.160  0.00  0.00     0.020 A 
HETATM    7  C   UNK N   1      29.000  27.866  -3.780  0.00  0.00     0.049 A 
HETATM    8  C   UNK N   1      28.606  25.268  -4.051  0.00  0.00     0.051 C 
HETATM    9  C   UNK N   1      26.533  26.421  -4.501  0.00  0.00     0.223 C 
HETATM   10  C   UNK N   1      26.570  27.481  -3.481  0.00  0.00     0.241 C 
HETATM   11  C   UNK N   1      30.775  26.393  -4.573  0.00  0.00     0.040 A 
HETATM   12  C   UNK N   1      29.936  28.921  -3.848  0.00  0.00     0.032 A 
HETATM   13  C   UNK N   1      27.595  29.355  -2.374  0.00  0.00     0.159 C 
HETATM   14  C   UNK N   1      31.662  27.460  -4.639  0.00  0.00     0.035 A 
HETATM   15  C   UNK N   1      31.241  28.728  -4.279  0.00  0.00     0.026 A 
ENDROOT
BRANCH   8  16
HETATM   16  C   UNK N   1      29.237  23.901  -3.924  0.00  0.00    -0.009 A 
HETATM   17  C   UNK N   1      29.277  23.056  -5.050  0.00  0.00     0.014 A 
HETATM   18  C   UNK N   1      29.883  21.799  -4.985  0.00  0.00     0.001 A 
HETATM   19  C   UNK N   1      30.472  21.367  -3.797  0.00  0.00     0.000 A 
HETATM   20  C   UNK N   1      30.442  22.188  -2.669  0.00  0.00     0.001 A 
HETATM   21  C   UNK N   1      29.825  23.440  -2.732  0.00  0.00     0.014 A 
ENDBRANCH   8  16
TORSDOF 1
ENDMDL
