MODEL 1
REMARK VINA RESULT:      -5.8      0.000      0.000
REMARK  1 active torsions:
REMARK  status: ('A' for Active; 'I' for Inactive)
REMARK    1  A    between atoms: C_4  and  C_7 
ROOT
HETATM    1  O   UNK N   1      36.197  13.520  14.758  0.00  0.00    -0.378 OA
HETATM    2  N   UNK N   1      34.600  12.105  12.897  0.00  0.00    -0.413 N 
HETATM    3  C   UNK N   1      34.762  11.636  14.277  0.00  0.00     0.106 C 
HETATM    4  C   UNK N   1      35.050  12.836  15.220  0.00  0.00     0.176 C 
HETATM    5  C   UNK N   1      35.731  12.942  12.504  0.00  0.00     0.140 C 
HETATM    6  C   UNK N   1      35.879  14.075  13.510  0.00  0.00     0.188 C 
HETATM    7  C   UNK N   1      33.488  10.903  14.661  0.00  0.00     0.035 C 
HETATM    8  H   UNK N   1      33.809  11.879  12.295  0.00  0.00     0.153 HD
ENDROOT
BRANCH   4   9
HETATM    9  C   UNK N   1      35.253  12.437  16.671  0.00  0.00    -0.028 A 
HETATM   10  C   UNK N   1      35.668  11.137  17.001  0.00  0.00     0.010 A 
HETATM   11  C   UNK N   1      35.839  10.764  18.337  0.00  0.00     0.001 A 
HETATM   12  C   UNK N   1      35.583  11.682  19.358  0.00  0.00     0.000 A 
HETATM   13  C   UNK N   1      35.156  12.973  19.043  0.00  0.00     0.001 A 
HETATM   14  C   UNK N   1      34.993  13.349  17.707  0.00  0.00     0.010 A 
ENDBRANCH   4   9
TORSDOF 1
ENDMDL
MODEL 2
REMARK VINA RESULT:      -5.6      1.512      2.225
REMARK  1 active torsions:
REMARK  status: ('A' for Active; 'I' for Inactive)
REMARK    1  A    between atoms: C_4  and  C_7 
ROOT
HETATM    1  O   UNK N   1      35.000  13.443  14.209  0.00  0.00    -0.378 OA
HETATM    2  N   UNK N   1      37.295  12.523  12.829  0.00  0.00    -0.413 N 
HETATM    3  C   UNK N   1      37.198  12.441  14.290  0.00  0.00     0.106 C 
HETATM    4  C   UNK N   1      35.710  12.335  14.723  0.00  0.00     0.176 C 
HETATM    5  C   UNK N   1      36.425  13.579  12.316  0.00  0.00     0.140 C 
HETATM    6  C   UNK N   1      35.006  13.333  12.811  0.00  0.00     0.188 C 
HETATM    7  C   UNK N   1      38.008  11.234  14.733  0.00  0.00     0.035 C 
HETATM    8  H   UNK N   1      37.887  11.926  12.252  0.00  0.00     0.153 HD
ENDROOT
BRANCH   4   9
HETATM    9  C   UNK N   1      35.515  12.266  16.227  0.00  0.00    -0.028 A 
HETATM   10  C   UNK N   1      35.374  13.442  16.982  0.00  0.00     0.010 A 
HETATM   11  C   UNK N   1      35.211  13.379  18.368  0.00  0.00     0.001 A 
HETATM   12  C   UNK N   1      35.203  12.143  19.017  0.00  0.00     0.000 A 
HETATM   13  C   UNK N   1      35.356  10.968  18.280  0.00  0.00     0.001 A 
HETATM   14  C   UNK N   1      35.511  11.029  16.893  0.00  0.00     0.010 A 
ENDBRANCH   4   9
TORSDOF 1
ENDMDL
MODEL 3
REMARK VINA RESULT:      -5.3      1.590      2.220
REMARK  1 active torsions:
REMARK  status: ('A' for Active; 'I' for Inactive)
REMARK    1  A    between atoms: C_4  and  C_7 
ROOT
HETATM    1  O   UNK N   1      35.141  12.391  14.054  0.00  0.00    -0.378 OA
HETATM    2  N   UNK N   1      36.476  14.781  13.329  0.00  0.00    -0.413 N 
HETATM    3  C   UNK N   1      36.224  14.442  14.733  0.00  0.00     0.106 C 
HETATM    4  C   UNK N   1      36.146  12.900  14.907  0.00  0.00     0.176 C 
HETATM    5  C   UNK N   1      35.514  14.108  12.460  0.00  0.00     0.140 C 
HETATM    6  C   UNK N   1      35.561  12.611  12.735  0.00  0.00     0.188 C 
HETATM    7  C   UNK N   1      37.346  15.052  15.557  0.00  0.00     0.035 C 
HETATM    8  H   UNK N   1      37.220  15.398  13.005  0.00  0.00     0.153 HD
ENDROOT
BRANCH   4   9
HETATM    9  C   UNK N   1      35.865  12.461  16.333  0.00  0.00    -0.028 A 
HETATM   10  C   UNK N   1      36.073  11.128  16.722  0.00  0.00     0.010 A 
HETATM   11  C   UNK N   1      35.799  10.720  18.031  0.00  0.00     0.001 A 
HETATM   12  C   UNK N   1      35.301  11.635  18.960  0.00  0.00     0.000 A 
HETATM   13  C   UNK N   1      35.077  12.960  18.582  0.00  0.00     0.001 A 
HETATM   14  C   UNK N   1      35.358  13.371  17.276  0.00  0.00     0.010 A 
ENDBRANCH   4   9
TORSDOF 1
ENDMDL
MODEL 4
REMARK VINA RESULT:      -5.2     13.942     15.539
REMARK  1 active torsions:
REMARK  status: ('A' for Active; 'I' for Inactive)
REMARK    1  A    between atoms: C_4  and  C_7 
ROOT
HETATM    1  O   UNK N   1      20.960  15.519   9.066  0.00  0.00    -0.378 OA
HETATM    2  N   UNK N   1      20.242  14.766   6.432  0.00  0.00    -0.413 N 
HETATM    3  C   UNK N   1      21.136  13.937   7.247  0.00  0.00     0.106 C 
HETATM    4  C   UNK N   1      20.834  14.146   8.757  0.00  0.00     0.176 C 
HETATM    5  C   UNK N   1      20.278  16.155   6.884  0.00  0.00     0.140 C 
HETATM    6  C   UNK N   1      19.951  16.200   8.371  0.00  0.00     0.188 C 
HETATM    7  C   UNK N   1      20.933  12.493   6.820  0.00  0.00     0.035 C 
HETATM    8  H   UNK N   1      19.674  14.422   5.659  0.00  0.00     0.153 HD
ENDROOT
BRANCH   4   9
HETATM    9  C   UNK N   1      21.732  13.338   9.676  0.00  0.00    -0.028 A 
HETATM   10  C   UNK N   1      21.189  12.626  10.757  0.00  0.00     0.010 A 
HETATM   11  C   UNK N   1      22.017  11.895  11.614  0.00  0.00     0.001 A 
HETATM   12  C   UNK N   1      23.398  11.880  11.407  0.00  0.00     0.000 A 
HETATM   13  C   UNK N   1      23.952  12.595  10.344  0.00  0.00     0.001 A 
HETATM   14  C   UNK N   1      23.123  13.320   9.483  0.00  0.00     0.010 A 
ENDBRANCH   4   9
TORSDOF 1
ENDMDL
MODEL 5
REMARK VINA RESULT:      -5.1      8.704     10.575
REMARK  1 active torsions:
REMARK  status: ('A' for Active; 'I' for Inactive)
REMARK    1  A    between atoms: C_4  and  C_7 
ROOT
HETATM    1  O   UNK N   1      30.041  16.540   6.673  0.00  0.00    -0.378 OA
HETATM    2  N   UNK N   1      28.002  17.772   8.206  0.00  0.00    -0.413 N 
HETATM    3  C   UNK N   1      29.324  17.492   8.776  0.00  0.00     0.106 C 
HETATM    4  C   UNK N   1      30.401  17.488   7.657  0.00  0.00     0.176 C 
HETATM    5  C   UNK N   1      27.727  16.875   7.086  0.00  0.00     0.140 C 
HETATM    6  C   UNK N   1      28.857  16.991   6.071  0.00  0.00     0.188 C 
HETATM    7  C   UNK N   1      29.599  18.553   9.829  0.00  0.00     0.035 C 
HETATM    8  H   UNK N   1      27.364  18.492   8.543  0.00  0.00     0.153 HD
ENDROOT
BRANCH   4   9
HETATM    9  C   UNK N   1      31.801  17.185   8.159  0.00  0.00    -0.028 A 
HETATM   10  C   UNK N   1      32.836  18.119   7.992  0.00  0.00     0.010 A 
HETATM   11  C   UNK N   1      34.129  17.833   8.439  0.00  0.00     0.001 A 
HETATM   12  C   UNK N   1      34.405  16.606   9.045  0.00  0.00     0.000 A 
HETATM   13  C   UNK N   1      33.388  15.663   9.205  0.00  0.00     0.001 A 
HETATM   14  C   UNK N   1      32.093  15.951   8.764  0.00  0.00     0.010 A 
ENDBRANCH   4   9
TORSDOF 1
ENDMDL
MODEL 6
REMARK VINA RESULT:      -5.0     10.155     12.159
REMARK  1 active torsions:
REMARK  status: ('A' for Active; 'I' for Inactive)
REMARK    1  A    between atoms: C_4  and  C_7 
ROOT
HETATM    1  O   UNK N   1      30.065  16.639   6.825  0.00  0.00    -0.378 OA
HETATM    2  N   UNK N   1      31.305  17.855   9.062  0.00  0.00    -0.413 N 
HETATM    3  C   UNK N   1      32.094  17.313   7.951  0.00  0.00     0.106 C 
HETATM    4  C   UNK N   1      31.268  17.355   6.636  0.00  0.00     0.176 C 
HETATM    5  C   UNK N   1      30.001  17.200   9.130  0.00  0.00     0.140 C 
HETATM    6  C   UNK N   1      29.309  17.335   7.780  0.00  0.00     0.188 C 
HETATM    7  C   UNK N   1      33.366  18.139   7.851  0.00  0.00     0.035 C 
HETATM    8  H   UNK N   1      31.621  18.586   9.698  0.00  0.00     0.153 HD
ENDROOT
BRANCH   4   9
HETATM    9  C   UNK N   1      32.005  16.791   5.435  0.00  0.00    -0.028 A 
HETATM   10  C   UNK N   1      32.110  17.535   4.249  0.00  0.00     0.010 A 
HETATM   11  C   UNK N   1      32.775  17.010   3.137  0.00  0.00     0.001 A 
HETATM   12  C   UNK N   1      33.328  15.730   3.194  0.00  0.00     0.000 A 
HETATM   13  C   UNK N   1      33.219  14.974   4.362  0.00  0.00     0.001 A 
HETATM   14  C   UNK N   1      32.562  15.501   5.477  0.00  0.00     0.010 A 
ENDBRANCH   4   9
TORSDOF 1
ENDMDL
MODEL 7
REMARK VINA RESULT:      -4.9      8.692     10.420
REMARK  1 active torsions:
REMARK  status: ('A' for Active; 'I' for Inactive)
REMARK    1  A    between atoms: C_4  and  C_7 
ROOT
HETATM    1  O   UNK N   1      30.176  18.393   9.215  0.00  0.00    -0.378 OA
HETATM    2  N   UNK N   1      28.495  17.710   7.041  0.00  0.00    -0.413 N 
HETATM    3  C   UNK N   1      29.940  17.464   6.996  0.00  0.00     0.106 C 
HETATM    4  C   UNK N   1      30.494  17.260   8.433  0.00  0.00     0.176 C 
HETATM    5  C   UNK N   1      28.188  18.785   7.981  0.00  0.00     0.140 C 
HETATM    6  C   UNK N   1      28.781  18.437   9.340  0.00  0.00     0.188 C 
HETATM    7  C   UNK N   1      30.168  16.245   6.118  0.00  0.00     0.035 C 
HETATM    8  H   UNK N   1      27.802  17.202   6.493  0.00  0.00     0.153 HD
ENDROOT
BRANCH   4   9
HETATM    9  C   UNK N   1      31.992  17.019   8.481  0.00  0.00    -0.028 A 
HETATM   10  C   UNK N   1      32.502  15.781   8.902  0.00  0.00     0.010 A 
HETATM   11  C   UNK N   1      33.882  15.564   8.962  0.00  0.00     0.001 A 
HETATM   12  C   UNK N   1      34.766  16.587   8.616  0.00  0.00     0.000 A 
HETATM   13  C   UNK N   1      34.272  17.828   8.209  0.00  0.00     0.001 A 
HETATM   14  C   UNK N   1      32.893  18.042   8.141  0.00  0.00     0.010 A 
ENDBRANCH   4   9
TORSDOF 1
ENDMDL
MODEL 8
REMARK VINA RESULT:      -4.9      3.879      7.209
REMARK  1 active torsions:
REMARK  status: ('A' for Active; 'I' for Inactive)
REMARK    1  A    between atoms: C_4  and  C_7 
ROOT
HETATM    1  O   UNK N   1      34.953  14.274  12.563  0.00  0.00    -0.378 OA
HETATM    2  N   UNK N   1      37.522  13.219  12.009  0.00  0.00    -0.413 N 
HETATM    3  C   UNK N   1      36.675  13.765  10.945  0.00  0.00     0.106 C 
HETATM    4  C   UNK N   1      35.718  14.845  11.521  0.00  0.00     0.176 C 
HETATM    5  C   UNK N   1      36.706  12.782  13.140  0.00  0.00     0.140 C 
HETATM    6  C   UNK N   1      35.837  13.945  13.600  0.00  0.00     0.188 C 
HETATM    7  C   UNK N   1      37.595  14.332   9.876  0.00  0.00     0.035 C 
HETATM    8  H   UNK N   1      38.539  13.154  11.968  0.00  0.00     0.153 HD
ENDROOT
BRANCH   4   9
HETATM    9  C   UNK N   1      34.787  15.450  10.486  0.00  0.00    -0.028 A 
HETATM   10  C   UNK N   1      33.711  14.708   9.974  0.00  0.00     0.010 A 
HETATM   11  C   UNK N   1      32.863  15.259   9.009  0.00  0.00     0.001 A 
HETATM   12  C   UNK N   1      33.090  16.552   8.535  0.00  0.00     0.000 A 
HETATM   13  C   UNK N   1      34.165  17.296   9.026  0.00  0.00     0.001 A 
HETATM   14  C   UNK N   1      35.008  16.748   9.997  0.00  0.00     0.010 A 
ENDBRANCH   4   9
TORSDOF 1
ENDMDL
MODEL 9
REMARK VINA RESULT:      -4.9     13.395     15.501
REMARK  1 active torsions:
REMARK  status: ('A' for Active; 'I' for Inactive)
REMARK    1  A    between atoms: C_4  and  C_7 
ROOT
HETATM    1  O   UNK N   1      23.677  12.990   9.784  0.00  0.00    -0.378 OA
HETATM    2  N   UNK N   1      22.558  11.681  12.032  0.00  0.00    -0.413 N 
HETATM    3  C   UNK N   1      21.770  12.615  11.222  0.00  0.00     0.106 C 
HETATM    4  C   UNK N   1      22.307  12.644   9.764  0.00  0.00     0.176 C 
HETATM    5  C   UNK N   1      23.985  11.969  11.904  0.00  0.00     0.140 C 
HETATM    6  C   UNK N   1      24.361  11.950  10.428  0.00  0.00     0.188 C 
HETATM    7  C   UNK N   1      20.321  12.164  11.287  0.00  0.00     0.035 C 
HETATM    8  H   UNK N   1      22.166  10.934  12.605  0.00  0.00     0.153 HD
ENDROOT
BRANCH   4   9
HETATM    9  C   UNK N   1      21.558  13.605   8.858  0.00  0.00    -0.028 A 
HETATM   10  C   UNK N   1      21.148  14.861   9.334  0.00  0.00     0.010 A 
HETATM   11  C   UNK N   1      20.445  15.739   8.505  0.00  0.00     0.001 A 
HETATM   12  C   UNK N   1      20.131  15.366   7.197  0.00  0.00     0.000 A 
HETATM   13  C   UNK N   1      20.521  14.116   6.716  0.00  0.00     0.001 A 
HETATM   14  C   UNK N   1      21.231  13.240   7.541  0.00  0.00     0.010 A 
ENDBRANCH   4   9
TORSDOF 1
ENDMDL
