MODEL 1
REMARK VINA RESULT:      -7.1      0.000      0.000
REMARK  5 active torsions:
REMARK  status: ('A' for Active; 'I' for Inactive)
REMARK    1  A    between atoms: N_5  and  C_10 
REMARK    2  A    between atoms: N_7  and  C_14 
REMARK    3  A    between atoms: C_10  and  C_13 
REMARK    4  A    between atoms: C_13  and  C_14 
REMARK    5  A    between atoms: C_22  and  C_28 
ROOT
HETATM    1  S   UNK N   1      37.687  10.614  12.124  0.00  0.00    -0.086 SA
HETATM    2  N   UNK N   1      36.668  13.654  12.265  0.00  0.00    -0.345 N 
HETATM    3  C   UNK N   1      36.511  12.830  13.429  0.00  0.00     0.053 A 
HETATM    4  C   UNK N   1      37.394  13.236  11.095  0.00  0.00     0.052 A 
HETATM    5  C   UNK N   1      36.922  11.481  13.481  0.00  0.00     0.032 A 
HETATM    6  C   UNK N   1      37.920  11.932  10.944  0.00  0.00     0.032 A 
HETATM    7  C   UNK N   1      35.920  13.392  14.580  0.00  0.00     0.047 A 
HETATM    8  C   UNK N   1      37.606  14.160  10.051  0.00  0.00     0.031 A 
HETATM    9  C   UNK N   1      35.720  12.646  15.742  0.00  0.00     0.050 A 
HETATM   10  C   UNK N   1      36.704  10.734  14.646  0.00  0.00     0.022 A 
HETATM   11  C   UNK N   1      38.640  11.601   9.789  0.00  0.00     0.021 A 
HETATM   12  C   UNK N   1      36.105  11.306  15.766  0.00  0.00     0.017 A 
HETATM   13  C   UNK N   1      38.327  13.818   8.908  0.00  0.00     0.002 A 
HETATM   14  C   UNK N   1      38.850  12.538   8.780  0.00  0.00     0.002 A 
ENDROOT
BRANCH   2  15
HETATM   15  C   UNK N   1      36.035  14.968  12.287  0.00  0.00     0.131 C 
BRANCH  15  16
HETATM   16  C   UNK N   1      34.812  15.057  11.389  0.00  0.00     0.050 C 
BRANCH  16  17
HETATM   17  C   UNK N   1      34.796  16.335  10.556  0.00  0.00     0.274 C 
BRANCH  17  18
HETATM   18  N   UNK N   1      34.592  16.083   9.123  0.00  0.00     0.091 N 
HETATM   19  C   UNK N   1      34.469  17.306   8.322  0.00  0.00     0.302 C 
HETATM   20  C   UNK N   1      33.065  17.921   8.415  0.00  0.00     0.302 C 
HETATM   21  N   UNK N   1      32.009  16.953   8.105  0.00  0.00     0.087 N 
HETATM   22  C   UNK N   1      32.127  15.744   8.924  0.00  0.00     0.302 C 
HETATM   23  C   UNK N   1      32.030  16.609   6.690  0.00  0.00     0.310 C 
HETATM   24  C   UNK N   1      33.526  15.114   8.841  0.00  0.00     0.302 C 
ENDBRANCH  17  18
ENDBRANCH  16  17
ENDBRANCH  15  16
ENDBRANCH   2  15
BRANCH   9  25
HETATM   25  C   UNK N   1      35.110  13.300  16.947  0.00  0.00     0.417 C 
HETATM   26  F   UNK N   1      35.025  12.386  17.982  0.00  0.00    -0.166 F 
HETATM   27  F   UNK N   1      35.868  14.380  17.368  0.00  0.00    -0.166 F 
HETATM   28  F   UNK N   1      33.839  13.743  16.631  0.00  0.00    -0.166 F 
ENDBRANCH   9  25
TORSDOF 5
ENDMDL
MODEL 2
REMARK VINA RESULT:      -7.0      4.814      8.862
REMARK  5 active torsions:
REMARK  status: ('A' for Active; 'I' for Inactive)
REMARK    1  A    between atoms: N_5  and  C_10 
REMARK    2  A    between atoms: N_7  and  C_14 
REMARK    3  A    between atoms: C_10  and  C_13 
REMARK    4  A    between atoms: C_13  and  C_14 
REMARK    5  A    between atoms: C_22  and  C_28 
ROOT
HETATM    1  S   UNK N   1      31.343  16.772   3.718  0.00  0.00    -0.086 SA
HETATM    2  N   UNK N   1      32.190  16.109   6.742  0.00  0.00    -0.345 N 
HETATM    3  C   UNK N   1      30.985  16.856   6.521  0.00  0.00     0.053 A 
HETATM    4  C   UNK N   1      32.954  15.513   5.678  0.00  0.00     0.052 A 
HETATM    5  C   UNK N   1      30.515  17.203   5.237  0.00  0.00     0.032 A 
HETATM    6  C   UNK N   1      32.647  15.708   4.312  0.00  0.00     0.032 A 
HETATM    7  C   UNK N   1      30.227  17.261   7.641  0.00  0.00     0.047 A 
HETATM    8  C   UNK N   1      34.053  14.690   5.999  0.00  0.00     0.031 A 
HETATM    9  C   UNK N   1      29.054  18.003   7.503  0.00  0.00     0.050 A 
HETATM   10  C   UNK N   1      29.345  17.962   5.108  0.00  0.00     0.022 A 
HETATM   11  C   UNK N   1      33.418  15.075   3.328  0.00  0.00     0.021 A 
HETATM   12  C   UNK N   1      28.620  18.364   6.228  0.00  0.00     0.017 A 
HETATM   13  C   UNK N   1      34.810  14.064   5.009  0.00  0.00     0.002 A 
HETATM   14  C   UNK N   1      34.488  14.252   3.672  0.00  0.00     0.002 A 
ENDROOT
BRANCH   2  15
HETATM   15  C   UNK N   1      32.652  15.979   8.120  0.00  0.00     0.131 C 
BRANCH  15  16
HETATM   16  C   UNK N   1      33.574  17.109   8.550  0.00  0.00     0.050 C 
BRANCH  16  17
HETATM   17  C   UNK N   1      34.789  16.604   9.321  0.00  0.00     0.274 C 
BRANCH  17  18
HETATM   18  N   UNK N   1      34.685  15.185   9.691  0.00  0.00     0.091 N 
HETATM   19  C   UNK N   1      34.437  14.966  11.120  0.00  0.00     0.302 C 
HETATM   20  C   UNK N   1      35.718  15.092  11.957  0.00  0.00     0.302 C 
HETATM   21  N   UNK N   1      36.802  14.244  11.451  0.00  0.00     0.087 N 
HETATM   22  C   UNK N   1      37.057  14.484  10.029  0.00  0.00     0.302 C 
HETATM   23  C   UNK N   1      36.500  12.838  11.680  0.00  0.00     0.310 C 
HETATM   24  C   UNK N   1      35.784  14.360   9.175  0.00  0.00     0.302 C 
ENDBRANCH  17  18
ENDBRANCH  16  17
ENDBRANCH  15  16
ENDBRANCH   2  15
BRANCH   9  25
HETATM   25  C   UNK N   1      28.272  18.387   8.726  0.00  0.00     0.417 C 
HETATM   26  F   UNK N   1      27.410  19.425   8.422  0.00  0.00    -0.166 F 
HETATM   27  F   UNK N   1      27.532  17.318   9.203  0.00  0.00    -0.166 F 
HETATM   28  F   UNK N   1      29.146  18.801   9.715  0.00  0.00    -0.166 F 
ENDBRANCH   9  25
TORSDOF 5
ENDMDL
MODEL 3
REMARK VINA RESULT:      -6.9      3.302      6.067
REMARK  5 active torsions:
REMARK  status: ('A' for Active; 'I' for Inactive)
REMARK    1  A    between atoms: N_5  and  C_10 
REMARK    2  A    between atoms: N_7  and  C_14 
REMARK    3  A    between atoms: C_10  and  C_13 
REMARK    4  A    between atoms: C_13  and  C_14 
REMARK    5  A    between atoms: C_22  and  C_28 
ROOT
HETATM    1  S   UNK N   1      35.999   9.192  17.216  0.00  0.00    -0.086 SA
HETATM    2  N   UNK N   1      35.154  11.837  15.607  0.00  0.00    -0.345 N 
HETATM    3  C   UNK N   1      35.238  10.600  14.886  0.00  0.00     0.053 A 
HETATM    4  C   UNK N   1      35.280  11.925  17.038  0.00  0.00     0.052 A 
HETATM    5  C   UNK N   1      35.598   9.377  15.489  0.00  0.00     0.032 A 
HETATM    6  C   UNK N   1      35.610  10.815  17.848  0.00  0.00     0.032 A 
HETATM    7  C   UNK N   1      34.942  10.602  13.506  0.00  0.00     0.047 A 
HETATM    8  C   UNK N   1      35.056  13.165  17.673  0.00  0.00     0.031 A 
HETATM    9  C   UNK N   1      35.019   9.440  12.737  0.00  0.00     0.050 A 
HETATM   10  C   UNK N   1      35.688   8.218  14.707  0.00  0.00     0.022 A 
HETATM   11  C   UNK N   1      35.690  10.967  19.239  0.00  0.00     0.021 A 
HETATM   12  C   UNK N   1      35.406   8.246  13.343  0.00  0.00     0.017 A 
HETATM   13  C   UNK N   1      35.135  13.300  19.058  0.00  0.00     0.002 A 
HETATM   14  C   UNK N   1      35.447  12.198  19.843  0.00  0.00     0.002 A 
ENDROOT
BRANCH   2  15
HETATM   15  C   UNK N   1      34.950  13.053  14.827  0.00  0.00     0.131 C 
BRANCH  15  16
HETATM   16  C   UNK N   1      36.251  13.732  14.428  0.00  0.00     0.050 C 
BRANCH  16  17
HETATM   17  C   UNK N   1      36.094  14.598  13.183  0.00  0.00     0.274 C 
BRANCH  17  18
HETATM   18  N   UNK N   1      35.581  13.853  12.026  0.00  0.00     0.091 N 
HETATM   19  C   UNK N   1      36.631  13.367  11.124  0.00  0.00     0.302 C 
HETATM   20  C   UNK N   1      37.147  14.470  10.187  0.00  0.00     0.302 C 
HETATM   21  N   UNK N   1      36.062  15.136   9.459  0.00  0.00     0.087 N 
HETATM   22  C   UNK N   1      35.028  15.635  10.368  0.00  0.00     0.302 C 
HETATM   23  C   UNK N   1      35.478  14.234   8.476  0.00  0.00     0.310 C 
HETATM   24  C   UNK N   1      34.500  14.544  11.313  0.00  0.00     0.302 C 
ENDBRANCH  17  18
ENDBRANCH  16  17
ENDBRANCH  15  16
ENDBRANCH   2  15
BRANCH   9  25
HETATM   25  C   UNK N   1      34.669   9.492  11.278  0.00  0.00     0.417 C 
HETATM   26  F   UNK N   1      35.681   8.912  10.535  0.00  0.00    -0.166 F 
HETATM   27  F   UNK N   1      33.486   8.821  11.022  0.00  0.00    -0.166 F 
HETATM   28  F   UNK N   1      34.526  10.813  10.891  0.00  0.00    -0.166 F 
ENDBRANCH   9  25
TORSDOF 5
ENDMDL
MODEL 4
REMARK VINA RESULT:      -6.9      8.985     12.541
REMARK  5 active torsions:
REMARK  status: ('A' for Active; 'I' for Inactive)
REMARK    1  A    between atoms: N_5  and  C_10 
REMARK    2  A    between atoms: N_7  and  C_14 
REMARK    3  A    between atoms: C_10  and  C_13 
REMARK    4  A    between atoms: C_13  and  C_14 
REMARK    5  A    between atoms: C_22  and  C_28 
ROOT
HETATM    1  S   UNK N   1      29.023  18.693   8.339  0.00  0.00    -0.086 SA
HETATM    2  N   UNK N   1      29.320  17.384   5.423  0.00  0.00    -0.345 N 
HETATM    3  C   UNK N   1      28.350  18.425   5.605  0.00  0.00     0.053 A 
HETATM    4  C   UNK N   1      30.269  17.004   6.437  0.00  0.00     0.052 A 
HETATM    5  C   UNK N   1      28.134  19.071   6.840  0.00  0.00     0.032 A 
HETATM    6  C   UNK N   1      30.253  17.545   7.743  0.00  0.00     0.032 A 
HETATM    7  C   UNK N   1      27.575  18.827   4.497  0.00  0.00     0.047 A 
HETATM    8  C   UNK N   1      31.268  16.059   6.125  0.00  0.00     0.031 A 
HETATM    9  C   UNK N   1      26.602  19.820   4.603  0.00  0.00     0.050 A 
HETATM   10  C   UNK N   1      27.143  20.057   6.943  0.00  0.00     0.022 A 
HETATM   11  C   UNK N   1      31.223  17.149   8.672  0.00  0.00     0.021 A 
HETATM   12  C   UNK N   1      26.380  20.428   5.838  0.00  0.00     0.017 A 
HETATM   13  C   UNK N   1      32.229  15.677   7.058  0.00  0.00     0.002 A 
HETATM   14  C   UNK N   1      32.210  16.228   8.333  0.00  0.00     0.002 A 
ENDROOT
BRANCH   2  15
HETATM   15  C   UNK N   1      29.312  16.678   4.146  0.00  0.00     0.131 C 
BRANCH  15  16
HETATM   16  C   UNK N   1      28.410  15.454   4.146  0.00  0.00     0.050 C 
BRANCH  16  17
HETATM   17  C   UNK N   1      27.752  15.220   2.790  0.00  0.00     0.274 C 
BRANCH  17  18
HETATM   18  N   UNK N   1      26.447  15.884   2.663  0.00  0.00     0.091 N 
HETATM   19  C   UNK N   1      25.637  15.831   3.883  0.00  0.00     0.302 C 
HETATM   20  C   UNK N   1      24.932  14.477   4.053  0.00  0.00     0.302 C 
HETATM   21  N   UNK N   1      24.162  14.095   2.865  0.00  0.00     0.087 N 
HETATM   22  C   UNK N   1      24.984  14.131   1.653  0.00  0.00     0.302 C 
HETATM   23  C   UNK N   1      22.998  14.957   2.712  0.00  0.00     0.310 C 
HETATM   24  C   UNK N   1      25.696  15.481   1.467  0.00  0.00     0.302 C 
ENDBRANCH  17  18
ENDBRANCH  16  17
ENDBRANCH  15  16
ENDBRANCH   2  15
BRANCH   9  25
HETATM   25  C   UNK N   1      25.823  20.228   3.386  0.00  0.00     0.417 C 
HETATM   26  F   UNK N   1      24.647  20.848   3.771  0.00  0.00    -0.166 F 
HETATM   27  F   UNK N   1      26.550  21.102   2.596  0.00  0.00    -0.166 F 
HETATM   28  F   UNK N   1      25.517  19.103   2.643  0.00  0.00    -0.166 F 
ENDBRANCH   9  25
TORSDOF 5
ENDMDL
MODEL 5
REMARK VINA RESULT:      -6.8     18.711     22.164
REMARK  5 active torsions:
REMARK  status: ('A' for Active; 'I' for Inactive)
REMARK    1  A    between atoms: N_5  and  C_10 
REMARK    2  A    between atoms: N_7  and  C_14 
REMARK    3  A    between atoms: C_10  and  C_13 
REMARK    4  A    between atoms: C_13  and  C_14 
REMARK    5  A    between atoms: C_22  and  C_28 
ROOT
HETATM    1  S   UNK N   1      30.082  27.501  -4.873  0.00  0.00    -0.086 SA
HETATM    2  N   UNK N   1      27.922  25.345  -3.881  0.00  0.00    -0.345 N 
HETATM    3  C   UNK N   1      29.281  24.919  -4.047  0.00  0.00     0.053 A 
HETATM    4  C   UNK N   1      27.508  26.720  -3.989  0.00  0.00     0.052 A 
HETATM    5  C   UNK N   1      30.314  25.779  -4.476  0.00  0.00     0.032 A 
HETATM    6  C   UNK N   1      28.386  27.756  -4.380  0.00  0.00     0.032 A 
HETATM    7  C   UNK N   1      29.607  23.575  -3.763  0.00  0.00     0.047 A 
HETATM    8  C   UNK N   1      26.174  27.062  -3.685  0.00  0.00     0.031 A 
HETATM    9  C   UNK N   1      30.904  23.086  -3.918  0.00  0.00     0.050 A 
HETATM   10  C   UNK N   1      31.611  25.276  -4.644  0.00  0.00     0.022 A 
HETATM   11  C   UNK N   1      27.922  29.076  -4.439  0.00  0.00     0.021 A 
HETATM   12  C   UNK N   1      31.906  23.942  -4.372  0.00  0.00     0.017 A 
HETATM   13  C   UNK N   1      25.727  28.380  -3.743  0.00  0.00     0.002 A 
HETATM   14  C   UNK N   1      26.604  29.391  -4.115  0.00  0.00     0.002 A 
ENDROOT
BRANCH   2  15
HETATM   15  C   UNK N   1      26.926  24.314  -3.610  0.00  0.00     0.131 C 
BRANCH  15  16
HETATM   16  C   UNK N   1      25.899  24.169  -4.721  0.00  0.00     0.050 C 
BRANCH  16  17
HETATM   17  C   UNK N   1      26.515  23.651  -6.016  0.00  0.00     0.274 C 
BRANCH  17  18
HETATM   18  N   UNK N   1      25.892  24.223  -7.218  0.00  0.00     0.091 N 
HETATM   19  C   UNK N   1      26.418  23.676  -8.472  0.00  0.00     0.302 C 
HETATM   20  C   UNK N   1      27.761  24.310  -8.865  0.00  0.00     0.302 C 
HETATM   21  N   UNK N   1      27.701  25.775  -8.887  0.00  0.00     0.087 N 
HETATM   22  C   UNK N   1      27.193  26.314  -7.623  0.00  0.00     0.302 C 
HETATM   23  C   UNK N   1      26.880  26.235  -9.999  0.00  0.00     0.310 C 
HETATM   24  C   UNK N   1      25.849  25.691  -7.216  0.00  0.00     0.302 C 
ENDBRANCH  17  18
ENDBRANCH  16  17
ENDBRANCH  15  16
ENDBRANCH   2  15
BRANCH   9  25
HETATM   25  C   UNK N   1      31.202  21.654  -3.578  0.00  0.00     0.417 C 
HETATM   26  F   UNK N   1      32.004  21.598  -2.454  0.00  0.00    -0.166 F 
HETATM   27  F   UNK N   1      30.038  20.945  -3.331  0.00  0.00    -0.166 F 
HETATM   28  F   UNK N   1      31.867  21.064  -4.638  0.00  0.00    -0.166 F 
ENDBRANCH   9  25
TORSDOF 5
ENDMDL
MODEL 6
REMARK VINA RESULT:      -6.8     18.338     21.488
REMARK  5 active torsions:
REMARK  status: ('A' for Active; 'I' for Inactive)
REMARK    1  A    between atoms: N_5  and  C_10 
REMARK    2  A    between atoms: N_7  and  C_14 
REMARK    3  A    between atoms: C_10  and  C_13 
REMARK    4  A    between atoms: C_13  and  C_14 
REMARK    5  A    between atoms: C_22  and  C_28 
ROOT
HETATM    1  S   UNK N   1      31.316  20.282  -6.862  0.00  0.00    -0.086 SA
HETATM    2  N   UNK N   1      30.079  22.343  -4.735  0.00  0.00    -0.345 N 
HETATM    3  C   UNK N   1      29.313  22.035  -5.908  0.00  0.00     0.053 A 
HETATM    4  C   UNK N   1      31.300  21.664  -4.390  0.00  0.00     0.052 A 
HETATM    5  C   UNK N   1      29.756  21.144  -6.908  0.00  0.00     0.032 A 
HETATM    6  C   UNK N   1      31.911  20.710  -5.235  0.00  0.00     0.032 A 
HETATM    7  C   UNK N   1      28.052  22.647  -6.071  0.00  0.00     0.047 A 
HETATM    8  C   UNK N   1      31.917  21.945  -3.154  0.00  0.00     0.031 A 
HETATM    9  C   UNK N   1      27.259  22.407  -7.193  0.00  0.00     0.050 A 
HETATM   10  C   UNK N   1      28.960  20.920  -8.040  0.00  0.00     0.022 A 
HETATM   11  C   UNK N   1      33.086  20.066  -4.823  0.00  0.00     0.021 A 
HETATM   12  C   UNK N   1      27.725  21.547  -8.186  0.00  0.00     0.017 A 
HETATM   13  C   UNK N   1      33.084  21.295  -2.755  0.00  0.00     0.002 A 
HETATM   14  C   UNK N   1      33.666  20.349  -3.589  0.00  0.00     0.002 A 
ENDROOT
BRANCH   2  15
HETATM   15  C   UNK N   1      29.586  23.416  -3.878  0.00  0.00     0.131 C 
BRANCH  15  16
HETATM   16  C   UNK N   1      30.140  24.782  -4.252  0.00  0.00     0.050 C 
BRANCH  16  17
HETATM   17  C   UNK N   1      29.102  25.889  -4.100  0.00  0.00     0.274 C 
BRANCH  17  18
HETATM   18  N   UNK N   1      27.812  25.555  -4.720  0.00  0.00     0.091 N 
HETATM   19  C   UNK N   1      27.574  26.243  -5.994  0.00  0.00     0.302 C 
HETATM   20  C   UNK N   1      27.104  27.691  -5.792  0.00  0.00     0.302 C 
HETATM   21  N   UNK N   1      25.949  27.784  -4.894  0.00  0.00     0.087 N 
HETATM   22  C   UNK N   1      26.202  27.112  -3.617  0.00  0.00     0.302 C 
HETATM   23  C   UNK N   1      24.762  27.229  -5.530  0.00  0.00     0.310 C 
HETATM   24  C   UNK N   1      26.672  25.660  -3.801  0.00  0.00     0.302 C 
ENDBRANCH  17  18
ENDBRANCH  16  17
ENDBRANCH  15  16
ENDBRANCH   2  15
BRANCH   9  25
HETATM   25  C   UNK N   1      25.914  23.065  -7.305  0.00  0.00     0.417 C 
HETATM   26  F   UNK N   1      25.508  23.512  -6.061  0.00  0.00    -0.166 F 
HETATM   27  F   UNK N   1      25.954  24.142  -8.174  0.00  0.00    -0.166 F 
HETATM   28  F   UNK N   1      24.995  22.145  -7.776  0.00  0.00    -0.166 F 
ENDBRANCH   9  25
TORSDOF 5
ENDMDL
MODEL 7
REMARK VINA RESULT:      -6.8     19.360     23.245
REMARK  5 active torsions:
REMARK  status: ('A' for Active; 'I' for Inactive)
REMARK    1  A    between atoms: N_5  and  C_10 
REMARK    2  A    between atoms: N_7  and  C_14 
REMARK    3  A    between atoms: C_10  and  C_13 
REMARK    4  A    between atoms: C_13  and  C_14 
REMARK    5  A    between atoms: C_22  and  C_28 
ROOT
HETATM    1  S   UNK N   1      27.599  25.656  -8.702  0.00  0.00    -0.086 SA
HETATM    2  N   UNK N   1      26.308  25.144  -5.809  0.00  0.00    -0.345 N 
HETATM    3  C   UNK N   1      26.823  26.451  -6.102  0.00  0.00     0.053 A 
HETATM    4  C   UNK N   1      26.202  24.099  -6.793  0.00  0.00     0.052 A 
HETATM    5  C   UNK N   1      27.411  26.789  -7.339  0.00  0.00     0.032 A 
HETATM    6  C   UNK N   1      26.702  24.232  -8.109  0.00  0.00     0.032 A 
HETATM    7  C   UNK N   1      26.736  27.450  -5.109  0.00  0.00     0.047 A 
HETATM    8  C   UNK N   1      25.565  22.890  -6.446  0.00  0.00     0.031 A 
HETATM    9  C   UNK N   1      27.231  28.737  -5.317  0.00  0.00     0.050 A 
HETATM   10  C   UNK N   1      27.919  28.080  -7.535  0.00  0.00     0.022 A 
HETATM   11  C   UNK N   1      26.540  23.184  -9.024  0.00  0.00     0.021 A 
HETATM   12  C   UNK N   1      27.836  29.046  -6.535  0.00  0.00     0.017 A 
HETATM   13  C   UNK N   1      25.408  21.857  -7.368  0.00  0.00     0.002 A 
HETATM   14  C   UNK N   1      25.892  22.006  -8.661  0.00  0.00     0.002 A 
ENDROOT
BRANCH   2  15
HETATM   15  C   UNK N   1      25.896  24.881  -4.434  0.00  0.00     0.131 C 
BRANCH  15  16
HETATM   16  C   UNK N   1      27.041  24.978  -3.439  0.00  0.00     0.050 C 
BRANCH  16  17
HETATM   17  C   UNK N   1      27.970  23.771  -3.505  0.00  0.00     0.274 C 
BRANCH  17  18
HETATM   18  N   UNK N   1      29.237  24.057  -4.192  0.00  0.00     0.091 N 
HETATM   19  C   UNK N   1      29.543  23.122  -5.279  0.00  0.00     0.302 C 
HETATM   20  C   UNK N   1      30.122  21.798  -4.759  0.00  0.00     0.302 C 
HETATM   21  N   UNK N   1      31.271  22.001  -3.871  0.00  0.00     0.087 N 
HETATM   22  C   UNK N   1      30.951  22.921  -2.776  0.00  0.00     0.302 C 
HETATM   23  C   UNK N   1      32.418  22.491  -4.623  0.00  0.00     0.310 C 
HETATM   24  C   UNK N   1      30.371  24.253  -3.279  0.00  0.00     0.302 C 
ENDBRANCH  17  18
ENDBRANCH  16  17
ENDBRANCH  15  16
ENDBRANCH   2  15
BRANCH   9  25
HETATM   25  C   UNK N   1      27.090  29.769  -4.237  0.00  0.00     0.417 C 
HETATM   26  F   UNK N   1      27.014  31.029  -4.802  0.00  0.00    -0.166 F 
HETATM   27  F   UNK N   1      25.950  29.551  -3.481  0.00  0.00    -0.166 F 
HETATM   28  F   UNK N   1      28.194  29.712  -3.406  0.00  0.00    -0.166 F 
ENDBRANCH   9  25
TORSDOF 5
ENDMDL
MODEL 8
REMARK VINA RESULT:      -6.8     19.834     22.287
REMARK  5 active torsions:
REMARK  status: ('A' for Active; 'I' for Inactive)
REMARK    1  A    between atoms: N_5  and  C_10 
REMARK    2  A    between atoms: N_7  and  C_14 
REMARK    3  A    between atoms: C_10  and  C_13 
REMARK    4  A    between atoms: C_13  and  C_14 
REMARK    5  A    between atoms: C_22  and  C_28 
ROOT
HETATM    1  S   UNK N   1      27.996  22.317  -7.545  0.00  0.00    -0.086 SA
HETATM    2  N   UNK N   1      28.985  23.877  -4.920  0.00  0.00    -0.345 N 
HETATM    3  C   UNK N   1      27.834  24.377  -5.615  0.00  0.00     0.053 A 
HETATM    4  C   UNK N   1      29.625  22.630  -5.250  0.00  0.00     0.052 A 
HETATM    5  C   UNK N   1      27.310  23.773  -6.777  0.00  0.00     0.032 A 
HETATM    6  C   UNK N   1      29.244  21.843  -6.361  0.00  0.00     0.032 A 
HETATM    7  C   UNK N   1      27.189  25.527  -5.112  0.00  0.00     0.047 A 
HETATM    8  C   UNK N   1      30.672  22.157  -4.432  0.00  0.00     0.031 A 
HETATM    9  C   UNK N   1      26.075  26.079  -5.744  0.00  0.00     0.050 A 
HETATM   10  C   UNK N   1      26.200  24.342  -7.415  0.00  0.00     0.022 A 
HETATM   11  C   UNK N   1      29.892  20.626  -6.607  0.00  0.00     0.021 A 
HETATM   12  C   UNK N   1      25.588  25.487  -6.909  0.00  0.00     0.017 A 
HETATM   13  C   UNK N   1      31.306  20.942  -4.687  0.00  0.00     0.002 A 
HETATM   14  C   UNK N   1      30.911  20.173  -5.773  0.00  0.00     0.002 A 
ENDROOT
BRANCH   2  15
HETATM   15  C   UNK N   1      29.527  24.700  -3.845  0.00  0.00     0.131 C 
BRANCH  15  16
HETATM   16  C   UNK N   1      30.600  25.669  -4.316  0.00  0.00     0.050 C 
BRANCH  16  17
HETATM   17  C   UNK N   1      30.852  26.787  -3.311  0.00  0.00     0.274 C 
BRANCH  17  18
HETATM   18  N   UNK N   1      30.619  28.126  -3.871  0.00  0.00     0.091 N 
HETATM   19  C   UNK N   1      31.158  29.212  -3.046  0.00  0.00     0.302 C 
HETATM   20  C   UNK N   1      30.243  29.548  -1.859  0.00  0.00     0.302 C 
HETATM   21  N   UNK N   1      28.862  29.808  -2.274  0.00  0.00     0.087 N 
HETATM   22  C   UNK N   1      28.324  28.709  -3.081  0.00  0.00     0.302 C 
HETATM   23  C   UNK N   1      28.777  31.062  -3.010  0.00  0.00     0.310 C 
HETATM   24  C   UNK N   1      29.227  28.361  -4.275  0.00  0.00     0.302 C 
ENDBRANCH  17  18
ENDBRANCH  16  17
ENDBRANCH  15  16
ENDBRANCH   2  15
BRANCH   9  25
HETATM   25  C   UNK N   1      25.411  27.289  -5.153  0.00  0.00     0.417 C 
HETATM   26  F   UNK N   1      25.444  27.212  -3.773  0.00  0.00    -0.166 F 
HETATM   27  F   UNK N   1      26.046  28.453  -5.550  0.00  0.00    -0.166 F 
HETATM   28  F   UNK N   1      24.093  27.334  -5.571  0.00  0.00    -0.166 F 
ENDBRANCH   9  25
TORSDOF 5
ENDMDL
MODEL 9
REMARK VINA RESULT:      -6.8      5.727     10.086
REMARK  5 active torsions:
REMARK  status: ('A' for Active; 'I' for Inactive)
REMARK    1  A    between atoms: N_5  and  C_10 
REMARK    2  A    between atoms: N_7  and  C_14 
REMARK    3  A    between atoms: C_10  and  C_13 
REMARK    4  A    between atoms: C_13  and  C_14 
REMARK    5  A    between atoms: C_22  and  C_28 
ROOT
HETATM    1  S   UNK N   1      28.623  16.129   5.900  0.00  0.00    -0.086 SA
HETATM    2  N   UNK N   1      31.620  16.793   6.837  0.00  0.00    -0.345 N 
HETATM    3  C   UNK N   1      31.432  16.124   5.581  0.00  0.00     0.053 A 
HETATM    4  C   UNK N   1      30.532  17.315   7.622  0.00  0.00     0.052 A 
HETATM    5  C   UNK N   1      30.162  15.784   5.069  0.00  0.00     0.032 A 
HETATM    6  C   UNK N   1      29.175  17.115   7.280  0.00  0.00     0.032 A 
HETATM    7  C   UNK N   1      32.571  15.793   4.816  0.00  0.00     0.047 A 
HETATM    8  C   UNK N   1      30.819  18.070   8.778  0.00  0.00     0.031 A 
HETATM    9  C   UNK N   1      32.466  15.128   3.595  0.00  0.00     0.050 A 
HETATM   10  C   UNK N   1      30.066  15.102   3.849  0.00  0.00     0.022 A 
HETATM   11  C   UNK N   1      28.167  17.676   8.076  0.00  0.00     0.021 A 
HETATM   12  C   UNK N   1      31.205  14.772   3.118  0.00  0.00     0.017 A 
HETATM   13  C   UNK N   1      29.807  18.624   9.558  0.00  0.00     0.002 A 
HETATM   14  C   UNK N   1      28.478  18.432   9.203  0.00  0.00     0.002 A 
ENDROOT
BRANCH   2  15
HETATM   15  C   UNK N   1      32.987  16.920   7.329  0.00  0.00     0.131 C 
BRANCH  15  16
HETATM   16  C   UNK N   1      33.432  15.732   8.168  0.00  0.00     0.050 C 
BRANCH  16  17
HETATM   17  C   UNK N   1      34.128  16.161   9.455  0.00  0.00     0.274 C 
BRANCH  17  18
HETATM   18  N   UNK N   1      35.478  15.596   9.594  0.00  0.00     0.091 N 
HETATM   19  C   UNK N   1      35.555  14.167   9.272  0.00  0.00     0.302 C 
HETATM   20  C   UNK N   1      35.066  13.285  10.430  0.00  0.00     0.302 C 
HETATM   21  N   UNK N   1      35.736  13.600  11.695  0.00  0.00     0.087 N 
HETATM   22  C   UNK N   1      35.637  15.025  12.019  0.00  0.00     0.302 C 
HETATM   23  C   UNK N   1      37.132  13.189  11.649  0.00  0.00     0.310 C 
HETATM   24  C   UNK N   1      36.125  15.923  10.871  0.00  0.00     0.302 C 
ENDBRANCH  17  18
ENDBRANCH  16  17
ENDBRANCH  15  16
ENDBRANCH   2  15
BRANCH   9  25
HETATM   25  C   UNK N   1      33.708  14.821   2.809  0.00  0.00     0.417 C 
HETATM   26  F   UNK N   1      33.466  13.767   1.946  0.00  0.00    -0.166 F 
HETATM   27  F   UNK N   1      34.116  15.918   2.069  0.00  0.00    -0.166 F 
HETATM   28  F   UNK N   1      34.723  14.468   3.680  0.00  0.00    -0.166 F 
ENDBRANCH   9  25
TORSDOF 5
ENDMDL
