REMARK  1 active torsions:
REMARK  status: ('A' for Active; 'I' for Inactive)
REMARK    1  A    between atoms: C_4  and  C_7 
ROOT
HETATM    1  O   UNK N   1       0.905   1.028   0.000  0.00  0.00    -0.272 OA
HETATM    2  O   UNK N   1       4.342   3.878   0.000  0.00  0.00    -0.273 OA
HETATM    3  N   UNK N   1       2.424   2.692   0.000  0.00  0.00    -0.292 N 
HETATM    4  C   UNK N   1       3.261   0.531  -0.000  0.00  0.00     0.120 A 
HETATM    5  C   UNK N   1       4.482   1.473  -0.000  0.00  0.00     0.122 A 
HETATM    6  C   UNK N   1       2.066   1.408  -0.000  0.00  0.00     0.235 A 
HETATM    7  C   UNK N   1       3.765   2.801  -0.000  0.00  0.00     0.227 A 
HETATM    8  C   UNK N   1       1.504   3.801   0.000  0.00  0.00     0.162 C 
ENDROOT
BRANCH   4   9
HETATM    9  C   UNK N   1       3.291  -0.960  -0.000  0.00  0.00    -0.045 A 
HETATM   10  C   UNK N   1       4.518  -1.633   0.000  0.00  0.00     0.008 A 
HETATM   11  C   UNK N   1       4.550  -3.029   0.000  0.00  0.00     0.001 A 
HETATM   12  C   UNK N   1       3.355  -3.755   0.000  0.00  0.00     0.000 A 
HETATM   13  C   UNK N   1       2.129  -3.086  -0.000  0.00  0.00     0.001 A 
HETATM   14  C   UNK N   1       2.097  -1.690  -0.000  0.00  0.00     0.008 A 
ENDBRANCH   4   9
TORSDOF 1
