MODEL 1
REMARK VINA RESULT:      -5.9      0.000      0.000
REMARK  1 active torsions:
REMARK  status: ('A' for Active; 'I' for Inactive)
REMARK    1  A    between atoms: C_4  and  C_7 
ROOT
HETATM    1  O   UNK N   1      36.810  14.473  15.129  0.00  0.00    -0.272 OA
HETATM    2  O   UNK N   1      34.588  12.124  12.050  0.00  0.00    -0.273 OA
HETATM    3  N   UNK N   1      35.819  13.479  13.366  0.00  0.00    -0.292 N 
HETATM    4  C   UNK N   1      35.343  12.591  15.453  0.00  0.00     0.120 A 
HETATM    5  C   UNK N   1      34.555  11.749  14.430  0.00  0.00     0.122 A 
HETATM    6  C   UNK N   1      36.073  13.615  14.668  0.00  0.00     0.235 A 
HETATM    7  C   UNK N   1      34.974  12.452  13.162  0.00  0.00     0.227 A 
HETATM    8  C   UNK N   1      36.371  14.315  12.331  0.00  0.00     0.162 C 
ENDROOT
BRANCH   4   9
HETATM    9  C   UNK N   1      35.358  12.403  16.933  0.00  0.00    -0.045 A 
HETATM   10  C   UNK N   1      35.620  11.139  17.472  0.00  0.00     0.008 A 
HETATM   11  C   UNK N   1      35.635  10.959  18.857  0.00  0.00     0.001 A 
HETATM   12  C   UNK N   1      35.389  12.043  19.705  0.00  0.00     0.000 A 
HETATM   13  C   UNK N   1      35.127  13.306  19.169  0.00  0.00     0.001 A 
HETATM   14  C   UNK N   1      35.112  13.486  17.785  0.00  0.00     0.008 A 
ENDBRANCH   4   9
TORSDOF 1
ENDMDL
MODEL 2
REMARK VINA RESULT:      -5.8      1.492      1.532
REMARK  1 active torsions:
REMARK  status: ('A' for Active; 'I' for Inactive)
REMARK    1  A    between atoms: C_4  and  C_7 
ROOT
HETATM    1  O   UNK N   1      36.898  12.506  14.374  0.00  0.00    -0.272 OA
HETATM    2  O   UNK N   1      33.591  10.257  12.389  0.00  0.00    -0.273 OA
HETATM    3  N   UNK N   1      35.389  11.413  13.107  0.00  0.00    -0.292 N 
HETATM    4  C   UNK N   1      34.920  11.564  15.372  0.00  0.00     0.120 A 
HETATM    5  C   UNK N   1      33.753  10.782  14.734  0.00  0.00     0.122 A 
HETATM    6  C   UNK N   1      35.850  11.889  14.264  0.00  0.00     0.235 A 
HETATM    7  C   UNK N   1      34.217  10.781  13.298  0.00  0.00     0.227 A 
HETATM    8  C   UNK N   1      36.054  11.558  11.837  0.00  0.00     0.162 C 
ENDROOT
BRANCH   4   9
HETATM    9  C   UNK N   1      35.069  11.915  16.813  0.00  0.00    -0.045 A 
HETATM   10  C   UNK N   1      35.288  10.906  17.758  0.00  0.00     0.008 A 
HETATM   11  C   UNK N   1      35.429  11.231  19.109  0.00  0.00     0.001 A 
HETATM   12  C   UNK N   1      35.351  12.565  19.518  0.00  0.00     0.000 A 
HETATM   13  C   UNK N   1      35.132  13.574  18.577  0.00  0.00     0.001 A 
HETATM   14  C   UNK N   1      34.992  13.250  17.227  0.00  0.00     0.008 A 
ENDBRANCH   4   9
TORSDOF 1
ENDMDL
MODEL 3
REMARK VINA RESULT:      -5.8      0.280      1.322
REMARK  1 active torsions:
REMARK  status: ('A' for Active; 'I' for Inactive)
REMARK    1  A    between atoms: C_4  and  C_7 
ROOT
HETATM    1  O   UNK N   1      36.841  14.289  14.857  0.00  0.00    -0.272 OA
HETATM    2  O   UNK N   1      34.556  11.765  11.969  0.00  0.00    -0.273 OA
HETATM    3  N   UNK N   1      35.824  13.186  13.177  0.00  0.00    -0.292 N 
HETATM    4  C   UNK N   1      35.318  12.484  15.326  0.00  0.00     0.120 A 
HETATM    5  C   UNK N   1      34.507  11.586  14.371  0.00  0.00     0.122 A 
HETATM    6  C   UNK N   1      36.080  13.419  14.464  0.00  0.00     0.235 A 
HETATM    7  C   UNK N   1      34.950  12.171  13.052  0.00  0.00     0.227 A 
HETATM    8  C   UNK N   1      36.403  13.918  12.079  0.00  0.00     0.162 C 
ENDROOT
BRANCH   4   9
HETATM    9  C   UNK N   1      35.324  12.416  16.816  0.00  0.00    -0.045 A 
HETATM   10  C   UNK N   1      35.106  13.576  17.568  0.00  0.00     0.008 A 
HETATM   11  C   UNK N   1      35.111  13.516  18.964  0.00  0.00     0.001 A 
HETATM   12  C   UNK N   1      35.335  12.296  19.609  0.00  0.00     0.000 A 
HETATM   13  C   UNK N   1      35.554  11.137  18.861  0.00  0.00     0.001 A 
HETATM   14  C   UNK N   1      35.549  11.197  17.466  0.00  0.00     0.008 A 
ENDBRANCH   4   9
TORSDOF 1
ENDMDL
MODEL 4
REMARK VINA RESULT:      -5.7      6.929     10.794
REMARK  1 active torsions:
REMARK  status: ('A' for Active; 'I' for Inactive)
REMARK    1  A    between atoms: C_4  and  C_7 
ROOT
HETATM    1  O   UNK N   1      32.631  14.793   8.568  0.00  0.00    -0.272 OA
HETATM    2  O   UNK N   1      35.662  17.487  10.436  0.00  0.00    -0.273 OA
HETATM    3  N   UNK N   1      34.185  15.935   9.733  0.00  0.00    -0.292 N 
HETATM    4  C   UNK N   1      33.410  16.935   7.791  0.00  0.00     0.120 A 
HETATM    5  C   UNK N   1      34.450  17.900   8.396  0.00  0.00     0.122 A 
HETATM    6  C   UNK N   1      33.346  15.773   8.710  0.00  0.00     0.235 A 
HETATM    7  C   UNK N   1      34.836  17.107   9.620  0.00  0.00     0.227 A 
HETATM    8  C   UNK N   1      34.366  14.988  10.804  0.00  0.00     0.162 C 
ENDROOT
BRANCH   4   9
HETATM    9  C   UNK N   1      32.634  17.141   6.535  0.00  0.00    -0.045 A 
HETATM   10  C   UNK N   1      31.236  17.075   6.560  0.00  0.00     0.008 A 
HETATM   11  C   UNK N   1      30.505  17.267   5.386  0.00  0.00     0.001 A 
HETATM   12  C   UNK N   1      31.171  17.526   4.184  0.00  0.00     0.000 A 
HETATM   13  C   UNK N   1      32.566  17.592   4.156  0.00  0.00     0.001 A 
HETATM   14  C   UNK N   1      33.296  17.400   5.330  0.00  0.00     0.008 A 
ENDBRANCH   4   9
TORSDOF 1
ENDMDL
MODEL 5
REMARK VINA RESULT:      -5.7      1.192      2.329
REMARK  1 active torsions:
REMARK  status: ('A' for Active; 'I' for Inactive)
REMARK    1  A    between atoms: C_4  and  C_7 
ROOT
HETATM    1  O   UNK N   1      34.204  11.392  14.071  0.00  0.00    -0.272 OA
HETATM    2  O   UNK N   1      36.503  14.766  12.263  0.00  0.00    -0.273 OA
HETATM    3  N   UNK N   1      35.248  12.998  12.885  0.00  0.00    -0.292 N 
HETATM    4  C   UNK N   1      35.608  13.007  15.175  0.00  0.00     0.120 A 
HETATM    5  C   UNK N   1      36.420  14.185  14.600  0.00  0.00     0.122 A 
HETATM    6  C   UNK N   1      34.940  12.366  14.018  0.00  0.00     0.235 A 
HETATM    7  C   UNK N   1      36.075  14.029  13.139  0.00  0.00     0.227 A 
HETATM    8  C   UNK N   1      34.764  12.628  11.580  0.00  0.00     0.162 C 
ENDROOT
BRANCH   4   9
HETATM    9  C   UNK N   1      35.522  12.605  16.608  0.00  0.00    -0.045 A 
HETATM   10  C   UNK N   1      35.194  13.555  17.581  0.00  0.00     0.008 A 
HETATM   11  C   UNK N   1      35.112  13.182  18.924  0.00  0.00     0.001 A 
HETATM   12  C   UNK N   1      35.360  11.858  19.297  0.00  0.00     0.000 A 
HETATM   13  C   UNK N   1      35.688  10.907  18.329  0.00  0.00     0.001 A 
HETATM   14  C   UNK N   1      35.769  11.280  16.986  0.00  0.00     0.008 A 
ENDBRANCH   4   9
TORSDOF 1
ENDMDL
MODEL 6
REMARK VINA RESULT:      -5.7      1.185      1.926
REMARK  1 active torsions:
REMARK  status: ('A' for Active; 'I' for Inactive)
REMARK    1  A    between atoms: C_4  and  C_7 
ROOT
HETATM    1  O   UNK N   1      34.136  11.319  14.175  0.00  0.00    -0.272 OA
HETATM    2  O   UNK N   1      36.584  14.529  12.268  0.00  0.00    -0.273 OA
HETATM    3  N   UNK N   1      35.248  12.842  12.943  0.00  0.00    -0.292 N 
HETATM    4  C   UNK N   1      35.631  12.886  15.228  0.00  0.00     0.120 A 
HETATM    5  C   UNK N   1      36.495  14.008  14.619  0.00  0.00     0.122 A 
HETATM    6  C   UNK N   1      34.920  12.253  14.092  0.00  0.00     0.235 A 
HETATM    7  C   UNK N   1      36.128  13.836  13.165  0.00  0.00     0.227 A 
HETATM    8  C   UNK N   1      34.733  12.467  11.651  0.00  0.00     0.162 C 
ENDROOT
BRANCH   4   9
HETATM    9  C   UNK N   1      35.539  12.522  16.671  0.00  0.00    -0.045 A 
HETATM   10  C   UNK N   1      35.828  11.215  17.081  0.00  0.00     0.008 A 
HETATM   11  C   UNK N   1      35.743  10.871  18.432  0.00  0.00     0.001 A 
HETATM   12  C   UNK N   1      35.368  11.832  19.375  0.00  0.00     0.000 A 
HETATM   13  C   UNK N   1      35.079  13.137  18.969  0.00  0.00     0.001 A 
HETATM   14  C   UNK N   1      35.164  13.481  17.619  0.00  0.00     0.008 A 
ENDBRANCH   4   9
TORSDOF 1
ENDMDL
MODEL 7
REMARK VINA RESULT:      -5.5     26.649     27.797
REMARK  1 active torsions:
REMARK  status: ('A' for Active; 'I' for Inactive)
REMARK    1  A    between atoms: C_4  and  C_7 
ROOT
HETATM    1  O   UNK N   1      26.421  24.384  -5.099  0.00  0.00    -0.272 OA
HETATM    2  O   UNK N   1      25.176  23.896  -9.358  0.00  0.00    -0.273 OA
HETATM    3  N   UNK N   1      25.781  23.832  -7.187  0.00  0.00    -0.292 N 
HETATM    4  C   UNK N   1      26.110  26.088  -6.771  0.00  0.00     0.120 A 
HETATM    5  C   UNK N   1      25.683  25.973  -8.248  0.00  0.00     0.122 A 
HETATM    6  C   UNK N   1      26.130  24.704  -6.241  0.00  0.00     0.235 A 
HETATM    7  C   UNK N   1      25.517  24.476  -8.338  0.00  0.00     0.227 A 
HETATM    8  C   UNK N   1      25.700  22.406  -7.000  0.00  0.00     0.162 C 
ENDROOT
BRANCH   4   9
HETATM    9  C   UNK N   1      26.435  27.345  -6.036  0.00  0.00    -0.045 A 
HETATM   10  C   UNK N   1      25.717  27.685  -4.884  0.00  0.00     0.008 A 
HETATM   11  C   UNK N   1      26.019  28.860  -4.194  0.00  0.00     0.001 A 
HETATM   12  C   UNK N   1      27.039  29.699  -4.654  0.00  0.00     0.000 A 
HETATM   13  C   UNK N   1      27.757  29.362  -5.804  0.00  0.00     0.001 A 
HETATM   14  C   UNK N   1      27.455  28.186  -6.494  0.00  0.00     0.008 A 
ENDBRANCH   4   9
TORSDOF 1
ENDMDL
MODEL 8
REMARK VINA RESULT:      -5.4     14.254     15.719
REMARK  1 active torsions:
REMARK  status: ('A' for Active; 'I' for Inactive)
REMARK    1  A    between atoms: C_4  and  C_7 
ROOT
HETATM    1  O   UNK N   1      21.403  12.358   6.909  0.00  0.00    -0.272 OA
HETATM    2  O   UNK N   1      19.563  16.417   7.177  0.00  0.00    -0.273 OA
HETATM    3  N   UNK N   1      20.368  14.353   6.756  0.00  0.00    -0.292 N 
HETATM    4  C   UNK N   1      21.487  13.921   8.739  0.00  0.00     0.120 A 
HETATM    5  C   UNK N   1      20.872  15.328   8.881  0.00  0.00     0.122 A 
HETATM    6  C   UNK N   1      21.101  13.439   7.391  0.00  0.00     0.235 A 
HETATM    7  C   UNK N   1      20.200  15.438   7.534  0.00  0.00     0.227 A 
HETATM    8  C   UNK N   1      19.833  14.198   5.427  0.00  0.00     0.162 C 
ENDROOT
BRANCH   4   9
HETATM    9  C   UNK N   1      22.302  13.202   9.759  0.00  0.00    -0.045 A 
HETATM   10  C   UNK N   1      21.683  12.652  10.887  0.00  0.00     0.008 A 
HETATM   11  C   UNK N   1      22.443  11.979  11.845  0.00  0.00     0.001 A 
HETATM   12  C   UNK N   1      23.826  11.853  11.677  0.00  0.00     0.000 A 
HETATM   13  C   UNK N   1      24.447  12.400  10.552  0.00  0.00     0.001 A 
HETATM   14  C   UNK N   1      23.686  13.074   9.594  0.00  0.00     0.008 A 
ENDBRANCH   4   9
TORSDOF 1
ENDMDL
MODEL 9
REMARK VINA RESULT:      -5.1     21.616     24.030
REMARK  1 active torsions:
REMARK  status: ('A' for Active; 'I' for Inactive)
REMARK    1  A    between atoms: C_4  and  C_7 
ROOT
HETATM    1  O   UNK N   1      30.789  23.852  -5.977  0.00  0.00    -0.272 OA
HETATM    2  O   UNK N   1      31.915  21.878  -2.133  0.00  0.00    -0.273 OA
HETATM    3  N   UNK N   1      31.643  22.828  -4.161  0.00  0.00    -0.292 N 
HETATM    4  C   UNK N   1      29.404  23.418  -4.056  0.00  0.00     0.120 A 
HETATM    5  C   UNK N   1      29.742  22.743  -2.711  0.00  0.00     0.122 A 
HETATM    6  C   UNK N   1      30.657  23.403  -4.848  0.00  0.00     0.235 A 
HETATM    7  C   UNK N   1      31.199  22.434  -2.953  0.00  0.00     0.227 A 
HETATM    8  C   UNK N   1      32.989  22.654  -4.644  0.00  0.00     0.162 C 
ENDROOT
BRANCH   4   9
HETATM    9  C   UNK N   1      28.080  23.969  -4.464  0.00  0.00    -0.045 A 
HETATM   10  C   UNK N   1      27.443  23.480  -5.610  0.00  0.00     0.008 A 
HETATM   11  C   UNK N   1      26.203  23.994  -5.995  0.00  0.00     0.001 A 
HETATM   12  C   UNK N   1      25.597  24.998  -5.234  0.00  0.00     0.000 A 
HETATM   13  C   UNK N   1      26.230  25.489  -4.090  0.00  0.00     0.001 A 
HETATM   14  C   UNK N   1      27.470  24.975  -3.705  0.00  0.00     0.008 A 
ENDBRANCH   4   9
TORSDOF 1
ENDMDL
