MODEL 1
REMARK VINA RESULT:      -8.0      0.000      0.000
REMARK  4 active torsions:
REMARK  status: ('A' for Active; 'I' for Inactive)
REMARK    1  A    between atoms: C_7  and  O_1 
REMARK    2  A    between atoms: N_3  and  C_29 
REMARK    3  A    between atoms: C_7  and  C_19 
REMARK    4  A    between atoms: C_11  and  C_17 
ROOT
HETATM    1  C   UNK N   1      34.502  16.086   8.074  0.00  0.00    -0.068 C 
HETATM    2  C   UNK N   1      34.827  16.113   9.235  0.00  0.00    -0.108 C 
HETATM    3  C   UNK N   1      35.251  16.295  10.625  0.00  0.00     0.112 C 
ENDROOT
BRANCH   1   4
HETATM    4  C   UNK N   1      34.182  16.345   6.660  0.00  0.00     0.128 C 
HETATM    5  C   UNK N   1      32.744  16.115   6.176  0.00  0.00     0.004 C 
HETATM    6  C   UNK N   1      32.652  14.629   5.857  0.00  0.00     0.006 C 
HETATM    7  C   UNK N   1      31.663  16.406   7.188  0.00  0.00     0.027 C 
HETATM    8  C   UNK N   1      32.533  16.975   4.904  0.00  0.00     0.020 C 
HETATM    9  C   UNK N   1      31.404  14.350   4.968  0.00  0.00     0.021 C 
HETATM   10  C   UNK N   1      34.003  14.333   5.213  0.00  0.00     0.010 C 
HETATM   11  C   UNK N   1      30.145  15.065   5.485  0.00  0.00    -0.060 C 
HETATM   12  C   UNK N   1      31.112  12.871   4.742  0.00  0.00     0.014 C 
HETATM   13  C   UNK N   1      30.277  16.144   6.600  0.00  0.00     0.049 C 
HETATM   14  C   UNK N   1      28.931  14.733   4.942  0.00  0.00    -0.048 C 
HETATM   15  C   UNK N   1      28.837  13.625   3.936  0.00  0.00    -0.048 C 
HETATM   16  C   UNK N   1      27.671  15.468   5.356  0.00  0.00     0.047 C 
HETATM   17  C   UNK N   1      30.026  12.737   3.660  0.00  0.00     0.040 C 
HETATM   18  C   UNK N   1      27.686  13.362   3.302  0.00  0.00     0.057 C 
HETATM   19  C   UNK N   1      26.443  14.090   3.609  0.00  0.00     0.150 C 
HETATM   20  O   UNK N   1      25.450  13.915   2.923  0.00  0.00    -0.293 OA
HETATM   21  C   UNK N   1      26.339  14.919   4.848  0.00  0.00     0.087 C 
HETATM   22  C   UNK N   1      34.985  15.391   5.772  0.00  0.00     0.052 C 
BRANCH   4  23
HETATM   23  O   UNK N   1      34.563  17.673   6.437  0.00  0.00    -0.377 OA
HETATM   24  H   UNK N   1      34.076  18.509   6.360  0.00  0.00     0.211 HD
ENDBRANCH   4  23
BRANCH  13  25
HETATM   25  C   UNK N   1      29.608  17.468   6.430  0.00  0.00    -0.050 C 
HETATM   26  C   UNK N   1      29.351  18.035   5.175  0.00  0.00     0.010 C 
HETATM   27  C   UNK N   1      28.415  19.064   5.070  0.00  0.00     0.030 C 
HETATM   28  C   UNK N   1      27.757  19.541   6.219  0.00  0.00     0.029 C 
HETATM   29  C   UNK N   1      28.147  19.071   7.478  0.00  0.00     0.030 C 
HETATM   30  C   UNK N   1      29.056  18.034   7.578  0.00  0.00     0.010 C 
BRANCH  28  31
HETATM   31  N   UNK N   1      26.591  20.348   6.104  0.00  0.00    -0.390 N 
HETATM   32  C   UNK N   1      25.927  20.481   4.831  0.00  0.00     0.149 C 
HETATM   33  C   UNK N   1      26.293  21.322   7.122  0.00  0.00     0.149 C 
ENDBRANCH  28  31
ENDBRANCH  13  25
ENDBRANCH   1   4
TORSDOF 4
ENDMDL
MODEL 2
REMARK VINA RESULT:      -7.7     11.604     15.712
REMARK  4 active torsions:
REMARK  status: ('A' for Active; 'I' for Inactive)
REMARK    1  A    between atoms: C_7  and  O_1 
REMARK    2  A    between atoms: N_3  and  C_29 
REMARK    3  A    between atoms: C_7  and  C_19 
REMARK    4  A    between atoms: C_11  and  C_17 
ROOT
HETATM    1  C   UNK N   1      36.198  13.688  15.069  0.00  0.00    -0.068 C 
HETATM    2  C   UNK N   1      36.798  14.632  15.521  0.00  0.00    -0.108 C 
HETATM    3  C   UNK N   1      37.562  15.689  16.188  0.00  0.00     0.112 C 
ENDROOT
BRANCH   1   4
HETATM    4  C   UNK N   1      35.555  12.398  14.771  0.00  0.00     0.128 C 
HETATM    5  C   UNK N   1      35.797  11.217  15.722  0.00  0.00     0.004 C 
HETATM    6  C   UNK N   1      37.111  10.592  15.273  0.00  0.00     0.006 C 
HETATM    7  C   UNK N   1      35.966  11.578  17.177  0.00  0.00     0.027 C 
HETATM    8  C   UNK N   1      34.618  10.225  15.549  0.00  0.00     0.020 C 
HETATM    9  C   UNK N   1      37.251   9.158  15.867  0.00  0.00     0.021 C 
HETATM   10  C   UNK N   1      37.027  10.674  13.753  0.00  0.00     0.010 C 
HETATM   11  C   UNK N   1      36.889   9.105  17.360  0.00  0.00    -0.060 C 
HETATM   12  C   UNK N   1      38.612   8.513  15.633  0.00  0.00     0.014 C 
HETATM   13  C   UNK N   1      36.200  10.330  18.028  0.00  0.00     0.049 C 
HETATM   14  C   UNK N   1      37.181   7.967  18.066  0.00  0.00    -0.048 C 
HETATM   15  C   UNK N   1      37.927   6.846  17.406  0.00  0.00    -0.048 C 
HETATM   16  C   UNK N   1      36.769   7.830  19.519  0.00  0.00     0.047 C 
HETATM   17  C   UNK N   1      38.535   7.030  16.037  0.00  0.00     0.040 C 
HETATM   18  C   UNK N   1      38.119   5.678  18.036  0.00  0.00     0.057 C 
HETATM   19  C   UNK N   1      37.677   5.459  19.424  0.00  0.00     0.150 C 
HETATM   20  O   UNK N   1      37.751   4.346  19.917  0.00  0.00    -0.293 OA
HETATM   21  C   UNK N   1      37.291   6.617  20.285  0.00  0.00     0.087 C 
HETATM   22  C   UNK N   1      36.083  11.860  13.439  0.00  0.00     0.052 C 
BRANCH   4  23
HETATM   23  O   UNK N   1      34.188  12.681  14.688  0.00  0.00    -0.377 OA
HETATM   24  H   UNK N   1      33.676  13.492  14.536  0.00  0.00     0.211 HD
ENDBRANCH   4  23
BRANCH  13  25
HETATM   25  C   UNK N   1      34.979  10.127  18.864  0.00  0.00    -0.050 C 
HETATM   26  C   UNK N   1      34.006   9.163  18.569  0.00  0.00     0.010 C 
HETATM   27  C   UNK N   1      33.108   8.774  19.562  0.00  0.00     0.030 C 
HETATM   28  C   UNK N   1      33.165   9.366  20.838  0.00  0.00     0.029 C 
HETATM   29  C   UNK N   1      34.037  10.437  21.060  0.00  0.00     0.030 C 
HETATM   30  C   UNK N   1      34.944  10.804  20.083  0.00  0.00     0.010 C 
BRANCH  28  31
HETATM   31  N   UNK N   1      32.489   8.775  21.942  0.00  0.00    -0.390 N 
HETATM   32  C   UNK N   1      31.592   7.665  21.731  0.00  0.00     0.149 C 
HETATM   33  C   UNK N   1      32.383   9.496  23.184  0.00  0.00     0.149 C 
ENDBRANCH  28  31
ENDBRANCH  13  25
ENDBRANCH   1   4
TORSDOF 4
ENDMDL
MODEL 3
REMARK VINA RESULT:      -7.7     10.698     15.314
REMARK  4 active torsions:
REMARK  status: ('A' for Active; 'I' for Inactive)
REMARK    1  A    between atoms: C_7  and  O_1 
REMARK    2  A    between atoms: N_3  and  C_29 
REMARK    3  A    between atoms: C_7  and  C_19 
REMARK    4  A    between atoms: C_11  and  C_17 
ROOT
HETATM    1  C   UNK N   1      32.863   9.104  20.918  0.00  0.00    -0.068 C 
HETATM    2  C   UNK N   1      31.821   8.527  20.727  0.00  0.00    -0.108 C 
HETATM    3  C   UNK N   1      30.592   7.827  20.347  0.00  0.00     0.112 C 
ENDROOT
BRANCH   1   4
HETATM    4  C   UNK N   1      34.163   9.792  20.850  0.00  0.00     0.128 C 
HETATM    5  C   UNK N   1      35.016   9.632  19.584  0.00  0.00     0.004 C 
HETATM    6  C   UNK N   1      35.787   8.332  19.771  0.00  0.00     0.006 C 
HETATM    7  C   UNK N   1      34.246   9.495  18.294  0.00  0.00     0.027 C 
HETATM    8  C   UNK N   1      35.977  10.846  19.509  0.00  0.00     0.020 C 
HETATM    9  C   UNK N   1      36.984   8.273  18.776  0.00  0.00     0.021 C 
HETATM   10  C   UNK N   1      36.156   8.362  21.250  0.00  0.00     0.010 C 
HETATM   11  C   UNK N   1      36.581   8.686  17.351  0.00  0.00    -0.060 C 
HETATM   12  C   UNK N   1      37.712   6.934  18.749  0.00  0.00     0.014 C 
HETATM   13  C   UNK N   1      35.192   9.343  17.104  0.00  0.00     0.049 C 
HETATM   14  C   UNK N   1      37.468   8.466  16.328  0.00  0.00    -0.048 C 
HETATM   15  C   UNK N   1      38.757   7.747  16.595  0.00  0.00    -0.048 C 
HETATM   16  C   UNK N   1      37.156   8.931  14.920  0.00  0.00     0.047 C 
HETATM   17  C   UNK N   1      39.006   7.088  17.930  0.00  0.00     0.040 C 
HETATM   18  C   UNK N   1      39.692   7.626  15.642  0.00  0.00     0.057 C 
HETATM   19  C   UNK N   1      39.476   8.122  14.272  0.00  0.00     0.150 C 
HETATM   20  O   UNK N   1      40.395   8.113  13.470  0.00  0.00    -0.293 OA
HETATM   21  C   UNK N   1      38.103   8.486  13.807  0.00  0.00     0.087 C 
HETATM   22  C   UNK N   1      35.087   9.244  21.940  0.00  0.00     0.052 C 
BRANCH   4  23
HETATM   23  O   UNK N   1      33.874  11.142  21.073  0.00  0.00    -0.377 OA
HETATM   24  H   UNK N   1      33.424  11.829  20.555  0.00  0.00     0.211 HD
ENDBRANCH   4  23
BRANCH  13  25
HETATM   25  C   UNK N   1      35.100  10.598  16.299  0.00  0.00    -0.050 C 
HETATM   26  C   UNK N   1      36.037  11.635  16.398  0.00  0.00     0.010 C 
HETATM   27  C   UNK N   1      36.110  12.588  15.382  0.00  0.00     0.030 C 
HETATM   28  C   UNK N   1      35.231  12.518  14.284  0.00  0.00     0.029 C 
HETATM   29  C   UNK N   1      34.202  11.571  14.287  0.00  0.00     0.030 C 
HETATM   30  C   UNK N   1      34.147  10.612  15.282  0.00  0.00     0.010 C 
BRANCH  28  31
HETATM   31  N   UNK N   1      35.487  13.268  13.103  0.00  0.00    -0.390 N 
HETATM   32  C   UNK N   1      35.474  12.617  11.816  0.00  0.00     0.149 C 
HETATM   33  C   UNK N   1      36.131  14.553  13.197  0.00  0.00     0.149 C 
ENDBRANCH  28  31
ENDBRANCH  13  25
ENDBRANCH   1   4
TORSDOF 4
ENDMDL
MODEL 4
REMARK VINA RESULT:      -7.7     11.698     14.009
REMARK  4 active torsions:
REMARK  status: ('A' for Active; 'I' for Inactive)
REMARK    1  A    between atoms: C_7  and  O_1 
REMARK    2  A    between atoms: N_3  and  C_29 
REMARK    3  A    between atoms: C_7  and  C_19 
REMARK    4  A    between atoms: C_11  and  C_17 
ROOT
HETATM    1  C   UNK N   1      30.805  25.019  -3.278  0.00  0.00    -0.068 C 
HETATM    2  C   UNK N   1      31.121  26.122  -3.650  0.00  0.00    -0.108 C 
HETATM    3  C   UNK N   1      31.425  27.432  -4.230  0.00  0.00     0.112 C 
ENDROOT
BRANCH   1   4
HETATM    4  C   UNK N   1      30.286  23.654  -3.094  0.00  0.00     0.128 C 
HETATM    5  C   UNK N   1      30.638  22.584  -4.137  0.00  0.00     0.004 C 
HETATM    6  C   UNK N   1      29.619  22.751  -5.256  0.00  0.00     0.006 C 
HETATM    7  C   UNK N   1      32.000  22.718  -4.771  0.00  0.00     0.027 C 
HETATM    8  C   UNK N   1      30.498  21.199  -3.455  0.00  0.00     0.020 C 
HETATM    9  C   UNK N   1      29.597  21.478  -6.153  0.00  0.00     0.021 C 
HETATM   10  C   UNK N   1      28.328  23.051  -4.501  0.00  0.00     0.010 C 
HETATM   11  C   UNK N   1      31.010  20.996  -6.518  0.00  0.00    -0.060 C 
HETATM   12  C   UNK N   1      28.747  21.612  -7.411  0.00  0.00     0.014 C 
HETATM   13  C   UNK N   1      32.243  21.604  -5.789  0.00  0.00     0.049 C 
HETATM   14  C   UNK N   1      31.146  20.030  -7.482  0.00  0.00    -0.048 C 
HETATM   15  C   UNK N   1      29.940  19.537  -8.224  0.00  0.00    -0.048 C 
HETATM   16  C   UNK N   1      32.509  19.459  -7.819  0.00  0.00     0.047 C 
HETATM   17  C   UNK N   1      28.607  20.227  -8.067  0.00  0.00     0.040 C 
HETATM   18  C   UNK N   1      30.028  18.510  -9.082  0.00  0.00     0.057 C 
HETATM   19  C   UNK N   1      31.315  17.866  -9.397  0.00  0.00     0.150 C 
HETATM   20  O   UNK N   1      31.337  16.855 -10.080  0.00  0.00    -0.293 OA
HETATM   21  C   UNK N   1      32.602  18.527  -9.026  0.00  0.00     0.087 C 
HETATM   22  C   UNK N   1      28.756  23.678  -3.152  0.00  0.00     0.052 C 
BRANCH   4  23
HETATM   23  O   UNK N   1      30.731  23.261  -1.827  0.00  0.00    -0.377 OA
HETATM   24  H   UNK N   1      31.597  23.256  -1.389  0.00  0.00     0.211 HD
ENDBRANCH   4  23
BRANCH  13  25
HETATM   25  C   UNK N   1      33.286  20.700  -5.218  0.00  0.00    -0.050 C 
HETATM   26  C   UNK N   1      32.975  19.556  -4.472  0.00  0.00     0.010 C 
HETATM   27  C   UNK N   1      33.948  18.573  -4.292  0.00  0.00     0.030 C 
HETATM   28  C   UNK N   1      35.236  18.746  -4.833  0.00  0.00     0.029 C 
HETATM   29  C   UNK N   1      35.570  19.965  -5.434  0.00  0.00     0.030 C 
HETATM   30  C   UNK N   1      34.597  20.927  -5.635  0.00  0.00     0.010 C 
BRANCH  28  31
HETATM   31  N   UNK N   1      36.131  17.646  -4.939  0.00  0.00    -0.390 N 
HETATM   32  C   UNK N   1      37.305  17.747  -5.772  0.00  0.00     0.149 C 
HETATM   33  C   UNK N   1      35.695  16.329  -4.551  0.00  0.00     0.149 C 
ENDBRANCH  28  31
ENDBRANCH  13  25
ENDBRANCH   1   4
TORSDOF 4
ENDMDL
MODEL 5
REMARK VINA RESULT:      -7.7      4.546      8.925
REMARK  4 active torsions:
REMARK  status: ('A' for Active; 'I' for Inactive)
REMARK    1  A    between atoms: C_7  and  O_1 
REMARK    2  A    between atoms: N_3  and  C_29 
REMARK    3  A    between atoms: C_7  and  C_19 
REMARK    4  A    between atoms: C_11  and  C_17 
ROOT
HETATM    1  C   UNK N   1      22.467  12.977   8.703  0.00  0.00    -0.068 C 
HETATM    2  C   UNK N   1      22.740  12.654   9.833  0.00  0.00    -0.108 C 
HETATM    3  C   UNK N   1      23.098  12.121  11.149  0.00  0.00     0.112 C 
ENDROOT
BRANCH   1   4
HETATM    4  C   UNK N   1      22.189  13.081   7.261  0.00  0.00     0.128 C 
HETATM    5  C   UNK N   1      22.829  14.230   6.468  0.00  0.00     0.004 C 
HETATM    6  C   UNK N   1      21.909  15.427   6.666  0.00  0.00     0.006 C 
HETATM    7  C   UNK N   1      24.199  14.657   6.934  0.00  0.00     0.027 C 
HETATM    8  C   UNK N   1      22.879  13.802   4.979  0.00  0.00     0.020 C 
HETATM    9  C   UNK N   1      22.206  16.512   5.589  0.00  0.00     0.021 C 
HETATM   10  C   UNK N   1      20.518  14.802   6.611  0.00  0.00     0.010 C 
HETATM   11  C   UNK N   1      23.711  16.769   5.416  0.00  0.00    -0.060 C 
HETATM   12  C   UNK N   1      21.470  17.829   5.806  0.00  0.00     0.014 C 
HETATM   13  C   UNK N   1      24.737  15.802   6.076  0.00  0.00     0.049 C 
HETATM   14  C   UNK N   1      24.112  17.850   4.674  0.00  0.00    -0.048 C 
HETATM   15  C   UNK N   1      23.093  18.807   4.133  0.00  0.00    -0.048 C 
HETATM   16  C   UNK N   1      25.583  18.100   4.403  0.00  0.00     0.047 C 
HETATM   17  C   UNK N   1      21.648  18.711   4.557  0.00  0.00     0.040 C 
HETATM   18  C   UNK N   1      23.448  19.801   3.306  0.00  0.00     0.057 C 
HETATM   19  C   UNK N   1      24.855  20.051   2.947  0.00  0.00     0.150 C 
HETATM   20  O   UNK N   1      25.127  20.878   2.092  0.00  0.00    -0.293 OA
HETATM   21  C   UNK N   1      25.958  19.419   3.731  0.00  0.00     0.087 C 
HETATM   22  C   UNK N   1      20.694  13.327   7.046  0.00  0.00     0.052 C 
BRANCH   4  23
HETATM   23  O   UNK N   1      22.575  11.848   6.725  0.00  0.00    -0.377 OA
HETATM   24  H   UNK N   1      22.137  11.195   6.157  0.00  0.00     0.211 HD
ENDBRANCH   4  23
BRANCH  13  25
HETATM   25  C   UNK N   1      25.867  15.257   5.266  0.00  0.00    -0.050 C 
HETATM   26  C   UNK N   1      25.736  14.908   3.915  0.00  0.00     0.010 C 
HETATM   27  C   UNK N   1      26.881  14.765   3.133  0.00  0.00     0.030 C 
HETATM   28  C   UNK N   1      28.155  14.946   3.705  0.00  0.00     0.029 C 
HETATM   29  C   UNK N   1      28.266  15.135   5.087  0.00  0.00     0.030 C 
HETATM   30  C   UNK N   1      27.129  15.301   5.856  0.00  0.00     0.010 C 
BRANCH  28  31
HETATM   31  N   UNK N   1      29.301  15.121   2.881  0.00  0.00    -0.390 N 
HETATM   32  C   UNK N   1      30.069  13.975   2.459  0.00  0.00     0.149 C 
HETATM   33  C   UNK N   1      29.922  16.417   2.786  0.00  0.00     0.149 C 
ENDBRANCH  28  31
ENDBRANCH  13  25
ENDBRANCH   1   4
TORSDOF 4
ENDMDL
MODEL 6
REMARK VINA RESULT:      -7.6      3.459      8.372
REMARK  4 active torsions:
REMARK  status: ('A' for Active; 'I' for Inactive)
REMARK    1  A    between atoms: C_7  and  O_1 
REMARK    2  A    between atoms: N_3  and  C_29 
REMARK    3  A    between atoms: C_7  and  C_19 
REMARK    4  A    between atoms: C_11  and  C_17 
ROOT
HETATM    1  C   UNK N   1      21.388  19.062   4.206  0.00  0.00    -0.068 C 
HETATM    2  C   UNK N   1      21.070  19.922   3.423  0.00  0.00    -0.108 C 
HETATM    3  C   UNK N   1      20.688  20.859   2.363  0.00  0.00     0.112 C 
ENDROOT
BRANCH   1   4
HETATM    4  C   UNK N   1      21.776  17.833   4.918  0.00  0.00     0.128 C 
HETATM    5  C   UNK N   1      23.057  17.104   4.486  0.00  0.00     0.004 C 
HETATM    6  C   UNK N   1      22.650  16.220   3.315  0.00  0.00     0.006 C 
HETATM    7  C   UNK N   1      24.172  17.990   3.989  0.00  0.00     0.027 C 
HETATM    8  C   UNK N   1      23.541  16.254   5.687  0.00  0.00     0.020 C 
HETATM    9  C   UNK N   1      23.734  15.130   3.066  0.00  0.00     0.021 C 
HETATM   10  C   UNK N   1      21.278  15.704   3.737  0.00  0.00     0.010 C 
HETATM   11  C   UNK N   1      25.159  15.707   3.085  0.00  0.00    -0.060 C 
HETATM   12  C   UNK N   1      23.518  14.306   1.802  0.00  0.00     0.014 C 
HETATM   13  C   UNK N   1      25.393  17.161   3.589  0.00  0.00     0.049 C 
HETATM   14  C   UNK N   1      26.194  14.916   2.658  0.00  0.00    -0.048 C 
HETATM   15  C   UNK N   1      25.914  13.555   2.096  0.00  0.00    -0.048 C 
HETATM   16  C   UNK N   1      27.626  15.406   2.736  0.00  0.00     0.047 C 
HETATM   17  C   UNK N   1      24.497  13.119   1.808  0.00  0.00     0.040 C 
HETATM   18  C   UNK N   1      26.913  12.716   1.784  0.00  0.00     0.057 C 
HETATM   19  C   UNK N   1      28.327  13.109   1.906  0.00  0.00     0.150 C 
HETATM   20  O   UNK N   1      29.205  12.279   1.740  0.00  0.00    -0.293 OA
HETATM   21  C   UNK N   1      28.700  14.546   2.072  0.00  0.00     0.087 C 
HETATM   22  C   UNK N   1      20.703  16.762   4.710  0.00  0.00     0.052 C 
BRANCH   4  23
HETATM   23  O   UNK N   1      21.859  18.202   6.265  0.00  0.00    -0.377 OA
HETATM   24  H   UNK N   1      22.518  18.058   6.963  0.00  0.00     0.211 HD
ENDBRANCH   4  23
BRANCH  13  25
HETATM   25  C   UNK N   1      26.464  17.433   4.593  0.00  0.00    -0.050 C 
HETATM   26  C   UNK N   1      26.662  16.636   5.729  0.00  0.00     0.010 C 
HETATM   27  C   UNK N   1      27.876  16.710   6.411  0.00  0.00     0.030 C 
HETATM   28  C   UNK N   1      28.879  17.597   5.975  0.00  0.00     0.029 C 
HETATM   29  C   UNK N   1      28.598  18.495   4.939  0.00  0.00     0.030 C 
HETATM   30  C   UNK N   1      27.405  18.403   4.248  0.00  0.00     0.010 C 
BRANCH  28  31
HETATM   31  N   UNK N   1      30.215  17.466   6.444  0.00  0.00    -0.390 N 
HETATM   32  C   UNK N   1      31.283  17.188   5.516  0.00  0.00     0.149 C 
HETATM   33  C   UNK N   1      30.461  17.224   7.843  0.00  0.00     0.149 C 
ENDBRANCH  28  31
ENDBRANCH  13  25
ENDBRANCH   1   4
TORSDOF 4
ENDMDL
MODEL 7
REMARK VINA RESULT:      -7.5      3.395      7.639
REMARK  4 active torsions:
REMARK  status: ('A' for Active; 'I' for Inactive)
REMARK    1  A    between atoms: C_7  and  O_1 
REMARK    2  A    between atoms: N_3  and  C_29 
REMARK    3  A    between atoms: C_7  and  C_19 
REMARK    4  A    between atoms: C_11  and  C_17 
ROOT
HETATM    1  C   UNK N   1      24.331  12.924   8.334  0.00  0.00    -0.068 C 
HETATM    2  C   UNK N   1      24.456  12.674   9.508  0.00  0.00    -0.108 C 
HETATM    3  C   UNK N   1      24.708  12.262  10.891  0.00  0.00     0.112 C 
ENDROOT
BRANCH   1   4
HETATM    4  C   UNK N   1      24.372  12.999   6.865  0.00  0.00     0.128 C 
HETATM    5  C   UNK N   1      24.843  14.304   6.207  0.00  0.00     0.004 C 
HETATM    6  C   UNK N   1      23.615  15.203   6.154  0.00  0.00     0.006 C 
HETATM    7  C   UNK N   1      25.903  15.067   6.962  0.00  0.00     0.027 C 
HETATM    8  C   UNK N   1      25.344  13.957   4.782  0.00  0.00     0.020 C 
HETATM    9  C   UNK N   1      23.847  16.365   5.143  0.00  0.00     0.021 C 
HETATM   10  C   UNK N   1      22.495  14.231   5.800  0.00  0.00     0.010 C 
HETATM   11  C   UNK N   1      25.226  17.022   5.313  0.00  0.00    -0.060 C 
HETATM   12  C   UNK N   1      22.754  17.428   5.148  0.00  0.00     0.014 C 
HETATM   13  C   UNK N   1      26.295  16.343   6.218  0.00  0.00     0.049 C 
HETATM   14  C   UNK N   1      25.480  18.196   4.652  0.00  0.00    -0.048 C 
HETATM   15  C   UNK N   1      24.393  18.863   3.864  0.00  0.00    -0.048 C 
HETATM   16  C   UNK N   1      26.851  18.841   4.717  0.00  0.00     0.047 C 
HETATM   17  C   UNK N   1      22.969  18.368   3.949  0.00  0.00     0.040 C 
HETATM   18  C   UNK N   1      24.646  19.944   3.112  0.00  0.00     0.057 C 
HETATM   19  C   UNK N   1      25.977  20.574   3.078  0.00  0.00     0.150 C 
HETATM   20  O   UNK N   1      26.204  21.473   2.286  0.00  0.00    -0.293 OA
HETATM   21  C   UNK N   1      27.001  20.235   4.112  0.00  0.00     0.087 C 
HETATM   22  C   UNK N   1      22.956  12.842   6.306  0.00  0.00     0.052 C 
BRANCH   4  23
HETATM   23  O   UNK N   1      25.187  11.934   6.467  0.00  0.00    -0.377 OA
HETATM   24  H   UNK N   1      25.076  11.198   5.845  0.00  0.00     0.211 HD
ENDBRANCH   4  23
BRANCH  13  25
HETATM   25  C   UNK N   1      27.684  16.150   5.704  0.00  0.00    -0.050 C 
HETATM   26  C   UNK N   1      27.962  15.793   4.378  0.00  0.00     0.010 C 
HETATM   27  C   UNK N   1      29.247  15.990   3.873  0.00  0.00     0.030 C 
HETATM   28  C   UNK N   1      30.258  16.517   4.699  0.00  0.00     0.029 C 
HETATM   29  C   UNK N   1      29.999  16.714   6.060  0.00  0.00     0.030 C 
HETATM   30  C   UNK N   1      28.718  16.543   6.553  0.00  0.00     0.010 C 
BRANCH  28  31
HETATM   31  N   UNK N   1      31.464  17.019   4.138  0.00  0.00    -0.390 N 
HETATM   32  C   UNK N   1      31.752  16.811   2.739  0.00  0.00     0.149 C 
HETATM   33  C   UNK N   1      32.559  17.379   5.002  0.00  0.00     0.149 C 
ENDBRANCH  28  31
ENDBRANCH  13  25
ENDBRANCH   1   4
TORSDOF 4
ENDMDL
MODEL 8
REMARK VINA RESULT:      -7.5      9.772     14.913
REMARK  4 active torsions:
REMARK  status: ('A' for Active; 'I' for Inactive)
REMARK    1  A    between atoms: C_7  and  O_1 
REMARK    2  A    between atoms: N_3  and  C_29 
REMARK    3  A    between atoms: C_7  and  C_19 
REMARK    4  A    between atoms: C_11  and  C_17 
ROOT
HETATM    1  C   UNK N   1      35.372  12.000  11.266  0.00  0.00    -0.068 C 
HETATM    2  C   UNK N   1      34.602  11.960  10.339  0.00  0.00    -0.108 C 
HETATM    3  C   UNK N   1      33.759  12.010   9.142  0.00  0.00     0.112 C 
ENDROOT
BRANCH   1   4
HETATM    4  C   UNK N   1      36.461  12.248  12.225  0.00  0.00     0.128 C 
HETATM    5  C   UNK N   1      36.329  11.692  13.650  0.00  0.00     0.004 C 
HETATM    6  C   UNK N   1      35.507  12.719  14.417  0.00  0.00     0.006 C 
HETATM    7  C   UNK N   1      35.597  10.378  13.770  0.00  0.00     0.027 C 
HETATM    8  C   UNK N   1      37.757  11.566  14.239  0.00  0.00     0.020 C 
HETATM    9  C   UNK N   1      35.662  12.491  15.950  0.00  0.00     0.021 C 
HETATM   10  C   UNK N   1      36.039  14.047  13.887  0.00  0.00     0.010 C 
HETATM   11  C   UNK N   1      35.527  11.010  16.338  0.00  0.00    -0.060 C 
HETATM   12  C   UNK N   1      34.737  13.346  16.808  0.00  0.00     0.014 C 
HETATM   13  C   UNK N   1      35.526   9.921  15.226  0.00  0.00     0.049 C 
HETATM   14  C   UNK N   1      35.414  10.687  17.666  0.00  0.00    -0.048 C 
HETATM   15  C   UNK N   1      35.327  11.772  18.697  0.00  0.00    -0.048 C 
HETATM   16  C   UNK N   1      35.363   9.238  18.108  0.00  0.00     0.047 C 
HETATM   17  C   UNK N   1      35.162  13.214  18.281  0.00  0.00     0.040 C 
HETATM   18  C   UNK N   1      35.338  11.485  20.006  0.00  0.00     0.057 C 
HETATM   19  C   UNK N   1      35.361  10.096  20.499  0.00  0.00     0.150 C 
HETATM   20  O   UNK N   1      35.502   9.877  21.690  0.00  0.00    -0.293 OA
HETATM   21  C   UNK N   1      35.051   8.962  19.577  0.00  0.00     0.087 C 
HETATM   22  C   UNK N   1      36.591  13.753  12.471  0.00  0.00     0.052 C 
BRANCH   4  23
HETATM   23  O   UNK N   1      37.611  11.741  11.611  0.00  0.00    -0.377 OA
HETATM   24  H   UNK N   1      38.243  12.098  10.967  0.00  0.00     0.211 HD
ENDBRANCH   4  23
BRANCH  13  25
HETATM   25  C   UNK N   1      36.412   8.726  15.361  0.00  0.00    -0.050 C 
HETATM   26  C   UNK N   1      37.719   8.801  15.861  0.00  0.00     0.010 C 
HETATM   27  C   UNK N   1      38.347   7.637  16.305  0.00  0.00     0.030 C 
HETATM   28  C   UNK N   1      37.681   6.399  16.225  0.00  0.00     0.029 C 
HETATM   29  C   UNK N   1      36.444   6.327  15.575  0.00  0.00     0.030 C 
HETATM   30  C   UNK N   1      35.811   7.484  15.159  0.00  0.00     0.010 C 
BRANCH  28  31
HETATM   31  N   UNK N   1      38.158   5.271  16.948  0.00  0.00    -0.390 N 
HETATM   32  C   UNK N   1      37.455   4.014  16.872  0.00  0.00     0.149 C 
HETATM   33  C   UNK N   1      39.082   5.459  18.037  0.00  0.00     0.149 C 
ENDBRANCH  28  31
ENDBRANCH  13  25
ENDBRANCH   1   4
TORSDOF 4
ENDMDL
MODEL 9
REMARK VINA RESULT:      -7.4     12.339     15.722
REMARK  4 active torsions:
REMARK  status: ('A' for Active; 'I' for Inactive)
REMARK    1  A    between atoms: C_7  and  O_1 
REMARK    2  A    between atoms: N_3  and  C_29 
REMARK    3  A    between atoms: C_7  and  C_19 
REMARK    4  A    between atoms: C_11  and  C_17 
ROOT
HETATM    1  C   UNK N   1      27.051  28.960  -4.205  0.00  0.00    -0.068 C 
HETATM    2  C   UNK N   1      27.635  29.943  -4.590  0.00  0.00    -0.108 C 
HETATM    3  C   UNK N   1      28.365  31.062  -5.190  0.00  0.00     0.112 C 
ENDROOT
BRANCH   1   4
HETATM    4  C   UNK N   1      26.406  27.652  -4.009  0.00  0.00     0.128 C 
HETATM    5  C   UNK N   1      26.930  26.445  -4.800  0.00  0.00     0.004 C 
HETATM    6  C   UNK N   1      26.237  26.511  -6.154  0.00  0.00     0.006 C 
HETATM    7  C   UNK N   1      28.414  26.443  -5.074  0.00  0.00     0.027 C 
HETATM    8  C   UNK N   1      26.526  25.165  -4.026  0.00  0.00     0.020 C 
HETATM    9  C   UNK N   1      26.350  25.137  -6.879  0.00  0.00     0.021 C 
HETATM   10  C   UNK N   1      24.824  26.956  -5.794  0.00  0.00     0.010 C 
HETATM   11  C   UNK N   1      27.771  24.555  -6.813  0.00  0.00    -0.060 C 
HETATM   12  C   UNK N   1      25.852  25.145  -8.320  0.00  0.00     0.014 C 
HETATM   13  C   UNK N   1      28.823  25.200  -5.864  0.00  0.00     0.049 C 
HETATM   14  C   UNK N   1      28.074  23.470  -7.595  0.00  0.00    -0.048 C 
HETATM   15  C   UNK N   1      27.059  22.936  -8.561  0.00  0.00    -0.048 C 
HETATM   16  C   UNK N   1      29.433  22.806  -7.505  0.00  0.00     0.047 C 
HETATM   17  C   UNK N   1      25.782  23.695  -8.830  0.00  0.00     0.040 C 
HETATM   18  C   UNK N   1      27.285  21.807  -9.248  0.00  0.00     0.057 C 
HETATM   19  C   UNK N   1      28.560  21.077  -9.148  0.00  0.00     0.150 C 
HETATM   20  O   UNK N   1      28.680  19.987  -9.684  0.00  0.00    -0.293 OA
HETATM   21  C   UNK N   1      29.757  21.726  -8.535  0.00  0.00     0.087 C 
HETATM   22  C   UNK N   1      24.945  27.731  -4.459  0.00  0.00     0.052 C 
BRANCH   4  23
HETATM   23  O   UNK N   1      26.491  27.405  -2.634  0.00  0.00    -0.377 OA
HETATM   24  H   UNK N   1      26.973  26.758  -2.095  0.00  0.00     0.211 HD
ENDBRANCH   4  23
BRANCH  13  25
HETATM   25  C   UNK N   1      29.623  24.334  -4.948  0.00  0.00    -0.050 C 
HETATM   26  C   UNK N   1      29.049  23.326  -4.161  0.00  0.00     0.010 C 
HETATM   27  C   UNK N   1      29.867  22.330  -3.627  0.00  0.00     0.030 C 
HETATM   28  C   UNK N   1      31.255  22.356  -3.856  0.00  0.00     0.029 C 
HETATM   29  C   UNK N   1      31.823  23.457  -4.507  0.00  0.00     0.030 C 
HETATM   30  C   UNK N   1      31.009  24.430  -5.059  0.00  0.00     0.010 C 
BRANCH  28  31
HETATM   31  N   UNK N   1      32.054  21.207  -3.602  0.00  0.00    -0.390 N 
HETATM   32  C   UNK N   1      33.138  21.276  -2.653  0.00  0.00     0.149 C 
HETATM   33  C   UNK N   1      32.049  20.112  -4.538  0.00  0.00     0.149 C 
ENDBRANCH  28  31
ENDBRANCH  13  25
ENDBRANCH   1   4
TORSDOF 4
ENDMDL
