MODEL 1
REMARK VINA RESULT:      -5.7      0.000      0.000
REMARK  5 active torsions:
REMARK  status: ('A' for Active; 'I' for Inactive)
REMARK    1  A    between atoms: N_2  and  C_7 
REMARK    2  A    between atoms: C_5  and  C_6 
REMARK    3  A    between atoms: C_5  and  C_8 
REMARK    4  A    between atoms: C_5  and  C_9 
REMARK    5  A    between atoms: C_6  and  C_7 
ROOT
HETATM    1  C   UNK N   1      32.370  17.340   7.822  0.00  0.00     0.070 C 
ENDROOT
BRANCH   1   2
HETATM    2  C   UNK N   1      32.471  16.649   6.463  0.00  0.00     0.046 C 
BRANCH   2   3
HETATM    3  C   UNK N   1      33.449  17.417   5.581  0.00  0.00     0.272 C 
BRANCH   3   4
HETATM    4  N   UNK N   1      33.041  17.378   4.186  0.00  0.00     0.080 N 
HETATM    5  C   UNK N   1      31.600  17.567   4.138  0.00  0.00     0.309 C 
HETATM    6  C   UNK N   1      33.294  16.027   3.717  0.00  0.00     0.309 C 
ENDBRANCH   3   4
ENDBRANCH   2   3
ENDBRANCH   1   2
BRANCH   1   7
HETATM    7  C   UNK N   1      33.290  16.651   8.824  0.00  0.00    -0.048 A 
HETATM    8  C   UNK N   1      34.476  17.235   9.299  0.00  0.00     0.009 A 
HETATM    9  C   UNK N   1      35.302  16.556  10.197  0.00  0.00     0.019 A 
HETATM   10  C   UNK N   1      34.951  15.280  10.637  0.00  0.00     0.011 A 
HETATM   11 Br   UNK N   1      36.085  14.353  11.856  0.00  0.00    -0.051 Br
HETATM   12  C   UNK N   1      33.775  14.684  10.178  0.00  0.00     0.019 A 
HETATM   13  C   UNK N   1      32.952  15.363   9.274  0.00  0.00     0.009 A 
ENDBRANCH   1   7
BRANCH   1  14
HETATM   14  C   UNK N   1      30.912  17.618   8.183  0.00  0.00     0.017 A 
HETATM   15  N   UNK N   1      30.635  18.243   9.364  0.00  0.00    -0.369 N 
HETATM   16  C   UNK N   1      29.362  18.520   9.755  0.00  0.00     0.088 A 
ATOM     17  HN  UNK N   1      31.408  18.512   9.974  1.00  0.00     0.165 HD
HETATM   18  C   UNK N   1      28.285  18.153   8.949  0.00  0.00     0.017 A 
HETATM   19  C   UNK N   1      28.531  17.504   7.742  0.00  0.00     0.003 A 
HETATM   20  C   UNK N   1      29.844  17.239   7.356  0.00  0.00     0.025 A 
ENDBRANCH   1  14
TORSDOF 5
ENDMDL
MODEL 2
REMARK VINA RESULT:      -5.6     14.518     17.699
REMARK  5 active torsions:
REMARK  status: ('A' for Active; 'I' for Inactive)
REMARK    1  A    between atoms: N_2  and  C_7 
REMARK    2  A    between atoms: C_5  and  C_6 
REMARK    3  A    between atoms: C_5  and  C_8 
REMARK    4  A    between atoms: C_5  and  C_9 
REMARK    5  A    between atoms: C_6  and  C_7 
ROOT
HETATM    1  C   UNK N   1      25.925  25.902  -5.812  0.00  0.00     0.070 C 
ENDROOT
BRANCH   1   2
HETATM    2  C   UNK N   1      26.151  27.410  -5.711  0.00  0.00     0.046 C 
BRANCH   2   3
HETATM    3  C   UNK N   1      25.461  27.938  -4.458  0.00  0.00     0.272 C 
BRANCH   3   4
HETATM    4  N   UNK N   1      26.237  29.000  -3.838  0.00  0.00     0.080 N 
HETATM    5  C   UNK N   1      27.060  29.610  -4.870  0.00  0.00     0.309 C 
HETATM    6  C   UNK N   1      27.151  28.359  -2.909  0.00  0.00     0.309 C 
ENDBRANCH   3   4
ENDBRANCH   2   3
ENDBRANCH   1   2
BRANCH   1   7
HETATM    7  C   UNK N   1      26.918  25.169  -4.917  0.00  0.00    -0.048 A 
HETATM    8  C   UNK N   1      26.531  24.469  -3.762  0.00  0.00     0.009 A 
HETATM    9  C   UNK N   1      27.477  23.832  -2.956  0.00  0.00     0.019 A 
HETATM   10  C   UNK N   1      28.828  23.883  -3.297  0.00  0.00     0.011 A 
HETATM   11 Br   UNK N   1      30.119  23.021  -2.192  0.00  0.00    -0.051 Br
HETATM   12  C   UNK N   1      29.232  24.572  -4.443  0.00  0.00     0.019 A 
HETATM   13  C   UNK N   1      28.283  25.214  -5.246  0.00  0.00     0.009 A 
ENDBRANCH   1   7
BRANCH   1  14
HETATM   14  C   UNK N   1      25.744  25.477  -7.269  0.00  0.00     0.017 A 
HETATM   15  N   UNK N   1      25.392  24.186  -7.536  0.00  0.00    -0.369 N 
HETATM   16  C   UNK N   1      25.217  23.732  -8.807  0.00  0.00     0.088 A 
ATOM     17  HN  UNK N   1      25.257  23.539  -6.759  1.00  0.00     0.165 HD
HETATM   18  C   UNK N   1      25.409  24.590  -9.890  0.00  0.00     0.017 A 
HETATM   19  C   UNK N   1      25.777  25.911  -9.653  0.00  0.00     0.003 A 
HETATM   20  C   UNK N   1      25.942  26.357  -8.343  0.00  0.00     0.025 A 
ENDBRANCH   1  14
TORSDOF 5
ENDMDL
MODEL 3
REMARK VINA RESULT:      -5.4      3.370      4.902
REMARK  5 active torsions:
REMARK  status: ('A' for Active; 'I' for Inactive)
REMARK    1  A    between atoms: N_2  and  C_7 
REMARK    2  A    between atoms: C_5  and  C_6 
REMARK    3  A    between atoms: C_5  and  C_8 
REMARK    4  A    between atoms: C_5  and  C_9 
REMARK    5  A    between atoms: C_6  and  C_7 
ROOT
HETATM    1  C   UNK N   1      28.441  17.551   6.372  0.00  0.00     0.070 C 
ENDROOT
BRANCH   1   2
HETATM    2  C   UNK N   1      27.565  16.673   7.266  0.00  0.00     0.046 C 
BRANCH   2   3
HETATM    3  C   UNK N   1      26.648  15.825   6.390  0.00  0.00     0.272 C 
BRANCH   3   4
HETATM    4  N   UNK N   1      27.265  15.537   5.106  0.00  0.00     0.080 N 
HETATM    5  C   UNK N   1      26.253  15.709   4.076  0.00  0.00     0.309 C 
HETATM    6  C   UNK N   1      27.607  14.126   5.115  0.00  0.00     0.309 C 
ENDBRANCH   3   4
ENDBRANCH   2   3
ENDBRANCH   1   2
BRANCH   1   7
HETATM    7  C   UNK N   1      29.881  17.523   6.871  0.00  0.00    -0.048 A 
HETATM    8  C   UNK N   1      30.240  17.857   8.188  0.00  0.00     0.009 A 
HETATM    9  C   UNK N   1      31.576  17.843   8.594  0.00  0.00     0.019 A 
HETATM   10  C   UNK N   1      32.575  17.490   7.688  0.00  0.00     0.011 A 
HETATM   11 Br   UNK N   1      34.398  17.480   8.244  0.00  0.00    -0.051 Br
HETATM   12  C   UNK N   1      32.239  17.152   6.376  0.00  0.00     0.019 A 
HETATM   13  C   UNK N   1      30.900  17.173   5.969  0.00  0.00     0.009 A 
ENDBRANCH   1   7
BRANCH   1  14
HETATM   14  C   UNK N   1      27.753  18.884   6.081  0.00  0.00     0.017 A 
HETATM   15  N   UNK N   1      27.306  19.635   7.129  0.00  0.00    -0.369 N 
HETATM   16  C   UNK N   1      26.680  20.829   6.948  0.00  0.00     0.088 A 
ATOM     17  HN  UNK N   1      27.444  19.289   8.079  1.00  0.00     0.165 HD
HETATM   18  C   UNK N   1      26.464  21.320   5.661  0.00  0.00     0.017 A 
HETATM   19  C   UNK N   1      26.899  20.574   4.569  0.00  0.00     0.003 A 
HETATM   20  C   UNK N   1      27.546  19.358   4.777  0.00  0.00     0.025 A 
ENDBRANCH   1  14
TORSDOF 5
ENDMDL
MODEL 4
REMARK VINA RESULT:      -5.4      4.655      6.998
REMARK  5 active torsions:
REMARK  status: ('A' for Active; 'I' for Inactive)
REMARK    1  A    between atoms: N_2  and  C_7 
REMARK    2  A    between atoms: C_5  and  C_6 
REMARK    3  A    between atoms: C_5  and  C_8 
REMARK    4  A    between atoms: C_5  and  C_9 
REMARK    5  A    between atoms: C_6  and  C_7 
ROOT
HETATM    1  C   UNK N   1      28.865  17.455   5.493  0.00  0.00     0.070 C 
ENDROOT
BRANCH   1   2
HETATM    2  C   UNK N   1      30.186  17.640   4.746  0.00  0.00     0.046 C 
BRANCH   2   3
HETATM    3  C   UNK N   1      30.596  16.312   4.117  0.00  0.00     0.272 C 
BRANCH   3   4
HETATM    4  N   UNK N   1      32.043  16.183   4.058  0.00  0.00     0.080 N 
HETATM    5  C   UNK N   1      32.468  15.406   5.211  0.00  0.00     0.309 C 
HETATM    6  C   UNK N   1      32.587  17.517   4.238  0.00  0.00     0.309 C 
ENDBRANCH   3   4
ENDBRANCH   2   3
ENDBRANCH   1   2
BRANCH   1   7
HETATM    7  C   UNK N   1      27.764  18.253   4.803  0.00  0.00    -0.048 A 
HETATM    8  C   UNK N   1      27.825  19.645   4.629  0.00  0.00     0.009 A 
HETATM    9  C   UNK N   1      26.781  20.339   4.014  0.00  0.00     0.019 A 
HETATM   10  C   UNK N   1      25.659  19.647   3.557  0.00  0.00     0.011 A 
HETATM   11 Br   UNK N   1      24.233  20.597   2.725  0.00  0.00    -0.051 Br
HETATM   12  C   UNK N   1      25.582  18.262   3.718  0.00  0.00     0.019 A 
HETATM   13  C   UNK N   1      26.627  17.570   4.340  0.00  0.00     0.009 A 
ENDBRANCH   1   7
BRANCH   1  14
HETATM   14  C   UNK N   1      29.074  17.578   7.001  0.00  0.00     0.017 A 
HETATM   15  N   UNK N   1      27.982  17.751   7.803  0.00  0.00    -0.369 N 
HETATM   16  C   UNK N   1      28.089  17.873   9.154  0.00  0.00     0.088 A 
ATOM     17  HN  UNK N   1      27.057  17.790   7.376  1.00  0.00     0.165 HD
HETATM   18  C   UNK N   1      29.342  17.837   9.764  0.00  0.00     0.017 A 
HETATM   19  C   UNK N   1      30.477  17.672   8.975  0.00  0.00     0.003 A 
HETATM   20  C   UNK N   1      30.345  17.540   7.594  0.00  0.00     0.025 A 
ENDBRANCH   1  14
TORSDOF 5
ENDMDL
MODEL 5
REMARK VINA RESULT:      -5.4     11.016     14.357
REMARK  5 active torsions:
REMARK  status: ('A' for Active; 'I' for Inactive)
REMARK    1  A    between atoms: N_2  and  C_7 
REMARK    2  A    between atoms: C_5  and  C_6 
REMARK    3  A    between atoms: C_5  and  C_8 
REMARK    4  A    between atoms: C_5  and  C_9 
REMARK    5  A    between atoms: C_6  and  C_7 
ROOT
HETATM    1  C   UNK N   1      35.689  10.265  19.622  0.00  0.00     0.070 C 
ENDROOT
BRANCH   1   2
HETATM    2  C   UNK N   1      36.686  10.816  20.641  0.00  0.00     0.046 C 
BRANCH   2   3
HETATM    3  C   UNK N   1      37.834   9.824  20.806  0.00  0.00     0.272 C 
BRANCH   3   4
HETATM    4  N   UNK N   1      38.209   9.683  22.203  0.00  0.00     0.080 N 
HETATM    5  C   UNK N   1      37.009   9.357  22.956  0.00  0.00     0.309 C 
HETATM    6  C   UNK N   1      38.633  10.996  22.655  0.00  0.00     0.309 C 
ENDBRANCH   3   4
ENDBRANCH   2   3
ENDBRANCH   1   2
BRANCH   1   7
HETATM    7  C   UNK N   1      35.741  11.098  18.345  0.00  0.00    -0.048 A 
HETATM    8  C   UNK N   1      35.224  12.401  18.263  0.00  0.00     0.009 A 
HETATM    9  C   UNK N   1      35.269  13.118  17.065  0.00  0.00     0.019 A 
HETATM   10  C   UNK N   1      35.839  12.541  15.931  0.00  0.00     0.011 A 
HETATM   11 Br   UNK N   1      35.893  13.519  14.296  0.00  0.00    -0.051 Br
HETATM   12  C   UNK N   1      36.362  11.248  15.994  0.00  0.00     0.019 A 
HETATM   13  C   UNK N   1      36.309  10.529  17.193  0.00  0.00     0.009 A 
ENDBRANCH   1   7
BRANCH   1  14
HETATM   14  C   UNK N   1      34.348   9.958  20.286  0.00  0.00     0.017 A 
HETATM   15  N   UNK N   1      34.024  10.608  21.442  0.00  0.00    -0.369 N 
HETATM   16  C   UNK N   1      32.850  10.384  22.093  0.00  0.00     0.088 A 
ATOM     17  HN  UNK N   1      34.682  11.284  21.830  1.00  0.00     0.165 HD
HETATM   18  C   UNK N   1      31.937   9.456  21.593  0.00  0.00     0.017 A 
HETATM   19  C   UNK N   1      32.241   8.768  20.421  0.00  0.00     0.003 A 
HETATM   20  C   UNK N   1      33.444   9.020  19.765  0.00  0.00     0.025 A 
ENDBRANCH   1  14
TORSDOF 5
ENDMDL
MODEL 6
REMARK VINA RESULT:      -5.4     13.537     16.788
REMARK  5 active torsions:
REMARK  status: ('A' for Active; 'I' for Inactive)
REMARK    1  A    between atoms: N_2  and  C_7 
REMARK    2  A    between atoms: C_5  and  C_6 
REMARK    3  A    between atoms: C_5  and  C_8 
REMARK    4  A    between atoms: C_5  and  C_9 
REMARK    5  A    between atoms: C_6  and  C_7 
ROOT
HETATM    1  C   UNK N   1      27.054  24.734  -4.475  0.00  0.00     0.070 C 
ENDROOT
BRANCH   1   2
HETATM    2  C   UNK N   1      26.876  24.366  -5.947  0.00  0.00     0.046 C 
BRANCH   2   3
HETATM    3  C   UNK N   1      25.841  23.252  -6.064  0.00  0.00     0.272 C 
BRANCH   3   4
HETATM    4  N   UNK N   1      25.888  22.627  -7.376  0.00  0.00     0.080 N 
HETATM    5  C   UNK N   1      25.475  23.618  -8.357  0.00  0.00     0.309 C 
HETATM    6  C   UNK N   1      24.868  21.593  -7.382  0.00  0.00     0.309 C 
ENDBRANCH   3   4
ENDBRANCH   2   3
ENDBRANCH   1   2
BRANCH   1   7
HETATM    7  C   UNK N   1      26.970  26.247  -4.305  0.00  0.00    -0.048 A 
HETATM    8  C   UNK N   1      28.089  27.046  -4.015  0.00  0.00     0.009 A 
HETATM    9  C   UNK N   1      27.962  28.425  -3.843  0.00  0.00     0.019 A 
HETATM   10  C   UNK N   1      26.711  29.029  -3.962  0.00  0.00     0.011 A 
HETATM   11 Br   UNK N   1      26.540  30.912  -3.718  0.00  0.00    -0.051 Br
HETATM   12  C   UNK N   1      25.588  28.253  -4.253  0.00  0.00     0.019 A 
HETATM   13  C   UNK N   1      25.716  26.870  -4.420  0.00  0.00     0.009 A 
ENDBRANCH   1   7
BRANCH   1  14
HETATM   14  C   UNK N   1      28.212  23.954  -3.857  0.00  0.00     0.017 A 
HETATM   15  N   UNK N   1      29.233  23.544  -4.665  0.00  0.00    -0.369 N 
HETATM   16  C   UNK N   1      30.296  22.841  -4.189  0.00  0.00     0.088 A 
ATOM     17  HN  UNK N   1      29.198  23.772  -5.659  1.00  0.00     0.165 HD
HETATM   18  C   UNK N   1      30.364  22.503  -2.837  0.00  0.00     0.017 A 
HETATM   19  C   UNK N   1      29.335  22.897  -1.987  0.00  0.00     0.003 A 
HETATM   20  C   UNK N   1      28.260  23.625  -2.494  0.00  0.00     0.025 A 
ENDBRANCH   1  14
TORSDOF 5
ENDMDL
MODEL 7
REMARK VINA RESULT:      -5.4      4.519      7.819
REMARK  5 active torsions:
REMARK  status: ('A' for Active; 'I' for Inactive)
REMARK    1  A    between atoms: N_2  and  C_7 
REMARK    2  A    between atoms: C_5  and  C_6 
REMARK    3  A    between atoms: C_5  and  C_8 
REMARK    4  A    between atoms: C_5  and  C_9 
REMARK    5  A    between atoms: C_6  and  C_7 
ROOT
HETATM    1  C   UNK N   1      29.455  17.723   5.524  0.00  0.00     0.070 C 
ENDROOT
BRANCH   1   2
HETATM    2  C   UNK N   1      28.921  16.803   6.621  0.00  0.00     0.046 C 
BRANCH   2   3
HETATM    3  C   UNK N   1      28.712  17.612   7.897  0.00  0.00     0.272 C 
BRANCH   3   4
HETATM    4  N   UNK N   1      29.978  18.089   8.429  0.00  0.00     0.080 N 
HETATM    5  C   UNK N   1      30.816  16.930   8.694  0.00  0.00     0.309 C 
HETATM    6  C   UNK N   1      29.688  18.689   9.719  0.00  0.00     0.309 C 
ENDBRANCH   3   4
ENDBRANCH   2   3
ENDBRANCH   1   2
BRANCH   1   7
HETATM    7  C   UNK N   1      28.298  18.453   4.851  0.00  0.00    -0.048 A 
HETATM    8  C   UNK N   1      28.154  19.850   4.883  0.00  0.00     0.009 A 
HETATM    9  C   UNK N   1      27.063  20.474   4.275  0.00  0.00     0.019 A 
HETATM   10  C   UNK N   1      26.100  19.708   3.619  0.00  0.00     0.011 A 
HETATM   11 Br   UNK N   1      24.609  20.563   2.796  0.00  0.00    -0.051 Br
HETATM   12  C   UNK N   1      26.227  18.319   3.573  0.00  0.00     0.019 A 
HETATM   13  C   UNK N   1      27.318  17.695   4.189  0.00  0.00     0.009 A 
ENDBRANCH   1   7
BRANCH   1  14
HETATM   14  C   UNK N   1      30.508  17.007   4.680  0.00  0.00     0.017 A 
HETATM   15  N   UNK N   1      31.346  17.754   3.904  0.00  0.00    -0.369 N 
HETATM   16  C   UNK N   1      32.305  17.188   3.122  0.00  0.00     0.088 A 
ATOM     17  HN  UNK N   1      31.250  18.770   3.909  1.00  0.00     0.165 HD
HETATM   18  C   UNK N   1      32.449  15.801   3.084  0.00  0.00     0.017 A 
HETATM   19  C   UNK N   1      31.604  15.009   3.856  0.00  0.00     0.003 A 
HETATM   20  C   UNK N   1      30.636  15.610   4.657  0.00  0.00     0.025 A 
ENDBRANCH   1  14
TORSDOF 5
ENDMDL
MODEL 8
REMARK VINA RESULT:      -5.3      3.327      4.578
REMARK  5 active torsions:
REMARK  status: ('A' for Active; 'I' for Inactive)
REMARK    1  A    between atoms: N_2  and  C_7 
REMARK    2  A    between atoms: C_5  and  C_6 
REMARK    3  A    between atoms: C_5  and  C_8 
REMARK    4  A    between atoms: C_5  and  C_9 
REMARK    5  A    between atoms: C_6  and  C_7 
ROOT
HETATM    1  C   UNK N   1      29.217  17.206   5.364  0.00  0.00     0.070 C 
ENDROOT
BRANCH   1   2
HETATM    2  C   UNK N   1      28.404  16.021   5.884  0.00  0.00     0.046 C 
BRANCH   2   3
HETATM    3  C   UNK N   1      28.037  15.114   4.714  0.00  0.00     0.272 C 
BRANCH   3   4
HETATM    4  N   UNK N   1      29.037  15.185   3.660  0.00  0.00     0.080 N 
HETATM    5  C   UNK N   1      28.340  15.177   2.384  0.00  0.00     0.309 C 
HETATM    6  C   UNK N   1      29.796  13.948   3.722  0.00  0.00     0.309 C 
ENDBRANCH   3   4
ENDBRANCH   2   3
ENDBRANCH   1   2
BRANCH   1   7
HETATM    7  C   UNK N   1      30.534  17.304   6.127  0.00  0.00    -0.048 A 
HETATM    8  C   UNK N   1      31.785  17.334   5.488  0.00  0.00     0.009 A 
HETATM    9  C   UNK N   1      32.968  17.398   6.228  0.00  0.00     0.019 A 
HETATM   10  C   UNK N   1      32.916  17.438   7.621  0.00  0.00     0.011 A 
HETATM   11 Br   UNK N   1      34.532  17.518   8.627  0.00  0.00    -0.051 Br
HETATM   12  C   UNK N   1      31.682  17.413   8.273  0.00  0.00     0.019 A 
HETATM   13  C   UNK N   1      30.499  17.342   7.531  0.00  0.00     0.009 A 
ENDBRANCH   1   7
BRANCH   1  14
HETATM   14  C   UNK N   1      28.332  18.440   5.197  0.00  0.00     0.017 A 
HETATM   15  N   UNK N   1      27.969  18.821   3.938  0.00  0.00    -0.369 N 
HETATM   16  C   UNK N   1      27.187  19.911   3.709  0.00  0.00     0.088 A 
ATOM     17  HN  UNK N   1      28.295  18.272   3.142  1.00  0.00     0.165 HD
HETATM   18  C   UNK N   1      26.739  20.689   4.776  0.00  0.00     0.017 A 
HETATM   19  C   UNK N   1      27.099  20.333   6.073  0.00  0.00     0.003 A 
HETATM   20  C   UNK N   1      27.892  19.208   6.286  0.00  0.00     0.025 A 
ENDBRANCH   1  14
TORSDOF 5
ENDMDL
MODEL 9
REMARK VINA RESULT:      -5.2     13.667     16.594
REMARK  5 active torsions:
REMARK  status: ('A' for Active; 'I' for Inactive)
REMARK    1  A    between atoms: N_2  and  C_7 
REMARK    2  A    between atoms: C_5  and  C_6 
REMARK    3  A    between atoms: C_5  and  C_8 
REMARK    4  A    between atoms: C_5  and  C_9 
REMARK    5  A    between atoms: C_6  and  C_7 
ROOT
HETATM    1  C   UNK N   1      27.573  24.642  -4.336  0.00  0.00     0.070 C 
ENDROOT
BRANCH   1   2
HETATM    2  C   UNK N   1      29.070  24.573  -4.039  0.00  0.00     0.046 C 
BRANCH   2   3
HETATM    3  C   UNK N   1      29.304  23.631  -2.861  0.00  0.00     0.272 C 
BRANCH   3   4
HETATM    4  N   UNK N   1      30.593  22.967  -2.969  0.00  0.00     0.080 N 
HETATM    5  C   UNK N   1      31.379  23.677  -3.964  0.00  0.00     0.309 C 
HETATM    6  C   UNK N   1      30.336  21.645  -3.515  0.00  0.00     0.309 C 
ENDBRANCH   3   4
ENDBRANCH   2   3
ENDBRANCH   1   2
BRANCH   1   7
HETATM    7  C   UNK N   1      27.234  23.726  -5.507  0.00  0.00    -0.048 A 
HETATM    8  C   UNK N   1      28.214  23.100  -6.295  0.00  0.00     0.009 A 
HETATM    9  C   UNK N   1      27.858  22.289  -7.374  0.00  0.00     0.019 A 
HETATM   10  C   UNK N   1      26.512  22.088  -7.679  0.00  0.00     0.011 A 
HETATM   11 Br   UNK N   1      26.029  20.987  -9.158  0.00  0.00    -0.051 Br
HETATM   12  C   UNK N   1      25.523  22.699  -6.906  0.00  0.00     0.019 A 
HETATM   13  C   UNK N   1      25.882  23.516  -5.828  0.00  0.00     0.009 A 
ENDBRANCH   1   7
BRANCH   1  14
HETATM   14  C   UNK N   1      27.085  26.090  -4.326  0.00  0.00     0.017 A 
HETATM   15  N   UNK N   1      26.336  26.523  -3.269  0.00  0.00    -0.369 N 
HETATM   16  C   UNK N   1      25.862  27.796  -3.192  0.00  0.00     0.088 A 
ATOM     17  HN  UNK N   1      26.125  25.872  -2.513  1.00  0.00     0.165 HD
HETATM   18  C   UNK N   1      26.123  28.705  -4.218  0.00  0.00     0.017 A 
HETATM   19  C   UNK N   1      26.875  28.293  -5.315  0.00  0.00     0.003 A 
HETATM   20  C   UNK N   1      27.359  26.987  -5.369  0.00  0.00     0.025 A 
ENDBRANCH   1  14
TORSDOF 5
ENDMDL
