REMARK  5 active torsions:
REMARK  status: ('A' for Active; 'I' for Inactive)
REMARK    1  A    between atoms: N_2  and  C_7 
REMARK    2  A    between atoms: C_5  and  C_6 
REMARK    3  A    between atoms: C_5  and  C_8 
REMARK    4  A    between atoms: C_5  and  C_9 
REMARK    5  A    between atoms: C_6  and  C_7 
ROOT
HETATM    1  C   UNK N   1       3.876   0.902  -0.268  0.00  0.00     0.070 C 
ENDROOT
BRANCH   1   2
HETATM    2  C   UNK N   1       2.917   1.659   0.650  0.00  0.00     0.046 C 
BRANCH   2   3
HETATM    3  C   UNK N   1       2.486   2.953  -0.033  0.00  0.00     0.272 C 
BRANCH   3   4
HETATM    4  N   UNK N   1       1.209   3.419   0.483  0.00  0.00     0.080 N 
HETATM    5  C   UNK N   1       0.160   2.637  -0.152  0.00  0.00     0.309 C 
HETATM    6  C   UNK N   1       1.044   4.784   0.015  0.00  0.00     0.309 C 
ENDBRANCH   3   4
ENDBRANCH   2   3
ENDBRANCH   1   2
BRANCH   1   7
HETATM    7  C   UNK N   1       3.641  -0.599  -0.138  0.00  0.00    -0.048 A 
HETATM    8  C   UNK N   1       4.669  -1.510   0.156  0.00  0.00     0.009 A 
HETATM    9  C   UNK N   1       4.413  -2.880   0.240  0.00  0.00     0.019 A 
HETATM   10  C   UNK N   1       3.120  -3.360   0.035  0.00  0.00     0.011 A 
HETATM   11 Br   UNK N   1       2.775  -5.231   0.143  0.00  0.00    -0.051 Br
HETATM   12  C   UNK N   1       2.084  -2.470  -0.255  0.00  0.00     0.019 A 
HETATM   13  C   UNK N   1       2.344  -1.098  -0.345  0.00  0.00     0.009 A 
ENDBRANCH   1   7
BRANCH   1  14
HETATM   14  C   UNK N   1       5.290   1.471  -0.163  0.00  0.00     0.017 A 
HETATM   15  N   UNK N   1       5.470   2.815  -0.319  0.00  0.00    -0.369 N 
HETATM   16  C   UNK N   1       6.699   3.394  -0.244  0.00  0.00     0.088 A 
ATOM     17  HN  UNK N   1       4.657   3.405  -0.498  1.00  0.00     0.165 HD
HETATM   18  C   UNK N   1       7.830   2.611  -0.014  0.00  0.00     0.017 A 
HETATM   19  C   UNK N   1       7.683   1.235   0.140  0.00  0.00     0.003 A 
HETATM   20  C   UNK N   1       6.414   0.664   0.069  0.00  0.00     0.025 A 
ENDBRANCH   1  14
TORSDOF 5
