REMARK  8 active torsions:
REMARK  status: ('A' for Active; 'I' for Inactive)
REMARK    1  A    between atoms: O_2  and  C_6 
REMARK    2  A    between atoms: N_4  and  C_11 
REMARK       I    between atoms: N_5  and  C_17 
REMARK    3  A    between atoms: C_6  and  C_14 
REMARK    4  A    between atoms: C_11  and  C_12 
REMARK    5  A    between atoms: C_12  and  C_13 
REMARK    6  A    between atoms: C_13  and  C_15 
REMARK    7  A    between atoms: C_13  and  C_16 
REMARK    8  A    between atoms: C_13  and  C_17 
ROOT
HETATM    1  C   UNK N   1       4.285  -2.700   0.322  0.00  0.00     0.097 C 
ENDROOT
BRANCH   1   2
HETATM    2  C   UNK N   1       4.641  -1.176   0.342  0.00  0.00     0.059 C 
BRANCH   2   3
HETATM    3  C   UNK N   1       4.465  -0.465  -1.032  0.00  0.00     0.274 C 
BRANCH   3   4
HETATM    4  N   UNK N   1       5.322   0.711  -1.249  0.00  0.00     0.088 N 
HETATM    5  C   UNK N   1       4.510   1.875  -1.619  0.00  0.00     0.276 C 
HETATM    6  C   UNK N   1       3.754   2.448  -0.414  0.00  0.00     0.073 C 
HETATM    7  C   UNK N   1       4.721   2.826   0.713  0.00  0.00     0.088 C 
HETATM    8  C   UNK N   1       5.559   1.591   1.064  0.00  0.00     0.073 C 
HETATM    9  C   UNK N   1       6.271   1.024  -0.170  0.00  0.00     0.276 C 
BRANCH   7  10
HETATM   10  O   UNK N   1       3.971   3.161   1.841  0.00  0.00    -0.385 OA
HETATM   11  H   UNK N   1       3.912   3.730   2.625  0.00  0.00     0.211 HD
ENDBRANCH   7  10
BRANCH   7  12
HETATM   12  C   UNK N   1       5.569   4.026   0.324  0.00  0.00    -0.024 A 
HETATM   13  C   UNK N   1       4.952   5.260   0.063  0.00  0.00     0.012 A 
HETATM   14  C   UNK N   1       5.722   6.378  -0.274  0.00  0.00     0.024 A 
HETATM   15  C   UNK N   1       7.113   6.270  -0.361  0.00  0.00     0.034 A 
HETATM   16 Cl   UNK N   1       8.079   7.668  -0.776  0.00  0.00    -0.084 Cl
HETATM   17  C   UNK N   1       7.736   5.048  -0.110  0.00  0.00     0.024 A 
HETATM   18  C   UNK N   1       6.970   3.935   0.236  0.00  0.00     0.012 A 
ENDBRANCH   7  12
ENDBRANCH   3   4
ENDBRANCH   2   3
ENDBRANCH   1   2
BRANCH   1  19
HETATM   19  C   UNK N   1       2.670  -2.517   0.241  0.00  0.00    -0.036 A 
HETATM   20  C   UNK N   1       1.783  -3.634   0.207  0.00  0.00     0.009 A 
HETATM   21  C   UNK N   1       0.395  -3.493   0.168  0.00  0.00     0.001 A 
HETATM   22  C   UNK N   1      -0.179  -2.227   0.181  0.00  0.00     0.000 A 
HETATM   23  C   UNK N   1       0.635  -1.103   0.243  0.00  0.00     0.001 A 
HETATM   24  C   UNK N   1       2.023  -1.245   0.281  0.00  0.00     0.009 A 
ENDBRANCH   1  19
BRANCH   1  25
HETATM   25  C   UNK N   1       4.338  -4.214   0.011  0.00  0.00    -0.036 A 
HETATM   26  C   UNK N   1       4.210  -4.687  -1.317  0.00  0.00     0.009 A 
HETATM   27  C   UNK N   1       4.184  -6.057  -1.580  0.00  0.00     0.001 A 
HETATM   28  C   UNK N   1       4.260  -6.971  -0.527  0.00  0.00     0.000 A 
HETATM   29  C   UNK N   1       4.361  -6.519   0.791  0.00  0.00     0.001 A 
HETATM   30  C   UNK N   1       4.394  -5.148   1.063  0.00  0.00     0.009 A 
ENDBRANCH   1  25
BRANCH   1  31
HETATM   31  C   UNK N   1       5.827  -2.752   0.013  0.00  0.00     0.237 C 
HETATM   32  O   UNK N   1       6.230  -2.659  -1.152  0.00  0.00    -0.272 OA
HETATM   33  N   UNK N   1       6.746  -2.915   1.021  0.00  0.00    -0.360 N 
HETATM   34  C   UNK N   1       8.157  -2.960   0.728  0.00  0.00     0.152 C 
HETATM   35  C   UNK N   1       6.334  -3.024   2.400  0.00  0.00     0.152 C 
ENDBRANCH   1  31
TORSDOF 8
