MODEL 1
REMARK VINA RESULT:      -7.4      0.000      0.000
REMARK  8 active torsions:
REMARK  status: ('A' for Active; 'I' for Inactive)
REMARK    1  A    between atoms: O_2  and  C_6 
REMARK    2  A    between atoms: N_4  and  C_11 
REMARK       I    between atoms: N_5  and  C_17 
REMARK    3  A    between atoms: C_6  and  C_14 
REMARK    4  A    between atoms: C_11  and  C_12 
REMARK    5  A    between atoms: C_12  and  C_13 
REMARK    6  A    between atoms: C_13  and  C_15 
REMARK    7  A    between atoms: C_13  and  C_16 
REMARK    8  A    between atoms: C_13  and  C_17 
ROOT
HETATM    1  C   UNK N   1      28.025  16.622   5.252  0.00  0.00     0.097 C 
ENDROOT
BRANCH   1   2
HETATM    2  C   UNK N   1      29.154  15.551   5.422  0.00  0.00     0.059 C 
BRANCH   2   3
HETATM    3  C   UNK N   1      30.570  16.154   5.653  0.00  0.00     0.274 C 
BRANCH   3   4
HETATM    4  N   UNK N   1      31.364  15.513   6.713  0.00  0.00     0.088 N 
HETATM    5  C   UNK N   1      32.670  15.094   6.192  0.00  0.00     0.276 C 
HETATM    6  C   UNK N   1      33.611  16.288   5.987  0.00  0.00     0.073 C 
HETATM    7  C   UNK N   1      33.798  17.070   7.291  0.00  0.00     0.088 C 
HETATM    8  C   UNK N   1      32.415  17.480   7.811  0.00  0.00     0.073 C 
HETATM    9  C   UNK N   1      31.491  16.267   7.969  0.00  0.00     0.276 C 
BRANCH   7  10
HETATM   10  O   UNK N   1      34.504  18.239   7.004  0.00  0.00    -0.385 OA
HETATM   11  H   UNK N   1      34.735  18.890   6.322  0.00  0.00     0.211 HD
ENDBRANCH   7  10
BRANCH   7  12
HETATM   12  C   UNK N   1      34.595  16.262   8.302  0.00  0.00    -0.024 A 
HETATM   13  C   UNK N   1      34.705  16.716   9.626  0.00  0.00     0.012 A 
HETATM   14  C   UNK N   1      35.416  15.971  10.573  0.00  0.00     0.024 A 
HETATM   15  C   UNK N   1      36.030  14.771  10.202  0.00  0.00     0.034 A 
HETATM   16 Cl   UNK N   1      36.915  13.834  11.384  0.00  0.00    -0.084 Cl
HETATM   17  C   UNK N   1      35.933  14.314   8.888  0.00  0.00     0.024 A 
HETATM   18  C   UNK N   1      35.215  15.051   7.946  0.00  0.00     0.012 A 
ENDBRANCH   7  12
ENDBRANCH   3   4
ENDBRANCH   2   3
ENDBRANCH   1   2
BRANCH   1  19
HETATM   19  C   UNK N   1      28.151  17.269   6.740  0.00  0.00    -0.036 A 
HETATM   20  C   UNK N   1      27.723  16.570   7.908  0.00  0.00     0.009 A 
HETATM   21  C   UNK N   1      27.853  17.099   9.192  0.00  0.00     0.001 A 
HETATM   22  C   UNK N   1      28.435  18.348   9.378  0.00  0.00     0.000 A 
HETATM   23  C   UNK N   1      28.897  19.062   8.279  0.00  0.00     0.001 A 
HETATM   24  C   UNK N   1      28.766  18.532   6.995  0.00  0.00     0.009 A 
ENDBRANCH   1  19
BRANCH   1  25
HETATM   25  C   UNK N   1      27.114  17.707   4.631  0.00  0.00    -0.036 A 
HETATM   26  C   UNK N   1      27.663  18.901   4.105  0.00  0.00     0.009 A 
HETATM   27  C   UNK N   1      26.830  19.906   3.615  0.00  0.00     0.001 A 
HETATM   28  C   UNK N   1      25.443  19.748   3.662  0.00  0.00     0.000 A 
HETATM   29  C   UNK N   1      24.886  18.585   4.201  0.00  0.00     0.001 A 
HETATM   30  C   UNK N   1      25.714  17.570   4.689  0.00  0.00     0.009 A 
ENDBRANCH   1  25
BRANCH   1  31
HETATM   31  C   UNK N   1      28.254  16.193   3.755  0.00  0.00     0.237 C 
HETATM   32  O   UNK N   1      29.008  16.852   3.030  0.00  0.00    -0.272 OA
HETATM   33  N   UNK N   1      27.615  15.098   3.227  0.00  0.00    -0.360 N 
HETATM   34  C   UNK N   1      27.833  14.713   1.854  0.00  0.00     0.152 C 
HETATM   35  C   UNK N   1      26.728  14.289   4.027  0.00  0.00     0.152 C 
ENDBRANCH   1  31
TORSDOF 8
ENDMDL
MODEL 2
REMARK VINA RESULT:      -7.4     11.885     14.029
REMARK  8 active torsions:
REMARK  status: ('A' for Active; 'I' for Inactive)
REMARK    1  A    between atoms: O_2  and  C_6 
REMARK    2  A    between atoms: N_4  and  C_11 
REMARK       I    between atoms: N_5  and  C_17 
REMARK    3  A    between atoms: C_6  and  C_14 
REMARK    4  A    between atoms: C_11  and  C_12 
REMARK    5  A    between atoms: C_12  and  C_13 
REMARK    6  A    between atoms: C_13  and  C_15 
REMARK    7  A    between atoms: C_13  and  C_16 
REMARK    8  A    between atoms: C_13  and  C_17 
ROOT
HETATM    1  C   UNK N   1      28.311  25.196  -5.409  0.00  0.00     0.097 C 
ENDROOT
BRANCH   1   2
HETATM    2  C   UNK N   1      28.893  23.979  -6.202  0.00  0.00     0.059 C 
BRANCH   2   3
HETATM    3  C   UNK N   1      29.348  22.793  -5.301  0.00  0.00     0.274 C 
BRANCH   3   4
HETATM    4  N   UNK N   1      30.561  22.091  -5.747  0.00  0.00     0.088 N 
HETATM    5  C   UNK N   1      31.757  22.877  -5.425  0.00  0.00     0.276 C 
HETATM    6  C   UNK N   1      32.084  22.827  -3.928  0.00  0.00     0.073 C 
HETATM    7  C   UNK N   1      32.269  21.382  -3.453  0.00  0.00     0.088 C 
HETATM    8  C   UNK N   1      31.008  20.590  -3.816  0.00  0.00     0.073 C 
HETATM    9  C   UNK N   1      30.691  20.691  -5.313  0.00  0.00     0.276 C 
BRANCH   7  10
HETATM   10  O   UNK N   1      32.377  21.388  -2.062  0.00  0.00    -0.385 OA
HETATM   11  H   UNK N   1      32.840  21.761  -1.294  0.00  0.00     0.211 HD
ENDBRANCH   7  10
BRANCH   7  12
HETATM   12  C   UNK N   1      33.537  20.777  -4.032  0.00  0.00    -0.024 A 
HETATM   13  C   UNK N   1      34.611  21.611  -4.384  0.00  0.00     0.012 A 
HETATM   14  C   UNK N   1      35.792  21.065  -4.897  0.00  0.00     0.024 A 
HETATM   15  C   UNK N   1      35.907  19.683  -5.071  0.00  0.00     0.034 A 
HETATM   16 Cl   UNK N   1      37.385  18.996  -5.706  0.00  0.00    -0.084 Cl
HETATM   17  C   UNK N   1      34.845  18.845  -4.731  0.00  0.00     0.024 A 
HETATM   18  C   UNK N   1      33.670  19.387  -4.210  0.00  0.00     0.012 A 
ENDBRANCH   7  12
ENDBRANCH   3   4
ENDBRANCH   2   3
ENDBRANCH   1   2
BRANCH   1  19
HETATM   19  C   UNK N   1      29.734  25.922  -5.103  0.00  0.00    -0.036 A 
HETATM   20  C   UNK N   1      30.166  26.210  -3.774  0.00  0.00     0.009 A 
HETATM   21  C   UNK N   1      31.397  26.805  -3.493  0.00  0.00     0.001 A 
HETATM   22  C   UNK N   1      32.270  27.124  -4.527  0.00  0.00     0.000 A 
HETATM   23  C   UNK N   1      31.915  26.839  -5.840  0.00  0.00     0.001 A 
HETATM   24  C   UNK N   1      30.684  26.246  -6.119  0.00  0.00     0.009 A 
ENDBRANCH   1  19
BRANCH   1  25
HETATM   25  C   UNK N   1      27.388  26.361  -4.982  0.00  0.00    -0.036 A 
HETATM   26  C   UNK N   1      27.372  27.578  -5.705  0.00  0.00     0.009 A 
HETATM   27  C   UNK N   1      26.592  28.649  -5.268  0.00  0.00     0.001 A 
HETATM   28  C   UNK N   1      25.840  28.533  -4.098  0.00  0.00     0.000 A 
HETATM   29  C   UNK N   1      25.865  27.347  -3.360  0.00  0.00     0.001 A 
HETATM   30  C   UNK N   1      26.639  26.267  -3.793  0.00  0.00     0.009 A 
ENDBRANCH   1  25
BRANCH   1  31
HETATM   31  C   UNK N   1      27.006  24.630  -6.083  0.00  0.00     0.237 C 
HETATM   32  O   UNK N   1      26.171  24.022  -5.405  0.00  0.00    -0.272 OA
HETATM   33  N   UNK N   1      26.780  24.786  -7.429  0.00  0.00    -0.360 N 
HETATM   34  C   UNK N   1      25.580  24.265  -8.037  0.00  0.00     0.152 C 
HETATM   35  C   UNK N   1      27.717  25.491  -8.270  0.00  0.00     0.152 C 
ENDBRANCH   1  31
TORSDOF 8
ENDMDL
MODEL 3
REMARK VINA RESULT:      -7.2      1.479      2.544
REMARK  8 active torsions:
REMARK  status: ('A' for Active; 'I' for Inactive)
REMARK    1  A    between atoms: O_2  and  C_6 
REMARK    2  A    between atoms: N_4  and  C_11 
REMARK       I    between atoms: N_5  and  C_17 
REMARK    3  A    between atoms: C_6  and  C_14 
REMARK    4  A    between atoms: C_11  and  C_12 
REMARK    5  A    between atoms: C_12  and  C_13 
REMARK    6  A    between atoms: C_13  and  C_15 
REMARK    7  A    between atoms: C_13  and  C_16 
REMARK    8  A    between atoms: C_13  and  C_17 
ROOT
HETATM    1  C   UNK N   1      28.211  16.582   5.234  0.00  0.00     0.097 C 
ENDROOT
BRANCH   1   2
HETATM    2  C   UNK N   1      29.573  16.715   4.476  0.00  0.00     0.059 C 
BRANCH   2   3
HETATM    3  C   UNK N   1      30.733  17.280   5.348  0.00  0.00     0.274 C 
BRANCH   3   4
HETATM    4  N   UNK N   1      31.383  16.307   6.241  0.00  0.00     0.088 N 
HETATM    5  C   UNK N   1      32.690  15.914   5.704  0.00  0.00     0.276 C 
HETATM    6  C   UNK N   1      33.736  17.021   5.885  0.00  0.00     0.073 C 
HETATM    7  C   UNK N   1      33.875  17.411   7.360  0.00  0.00     0.088 C 
HETATM    8  C   UNK N   1      32.491  17.803   7.888  0.00  0.00     0.073 C 
HETATM    9  C   UNK N   1      31.463  16.688   7.659  0.00  0.00     0.276 C 
BRANCH   7  10
HETATM   10  O   UNK N   1      34.693  18.539   7.441  0.00  0.00    -0.385 OA
HETATM   11  H   UNK N   1      35.431  18.963   7.907  0.00  0.00     0.211 HD
ENDBRANCH   7  10
BRANCH   7  12
HETATM   12  C   UNK N   1      34.519  16.291   8.161  0.00  0.00    -0.024 A 
HETATM   13  C   UNK N   1      34.530  16.354   9.564  0.00  0.00     0.012 A 
HETATM   14  C   UNK N   1      35.099  15.320  10.314  0.00  0.00     0.024 A 
HETATM   15  C   UNK N   1      35.668  14.218   9.669  0.00  0.00     0.034 A 
HETATM   16 Cl   UNK N   1      36.375  12.920  10.604  0.00  0.00    -0.084 Cl
HETATM   17  C   UNK N   1      35.669  14.147   8.276  0.00  0.00     0.024 A 
HETATM   18  C   UNK N   1      35.093  15.173   7.527  0.00  0.00     0.012 A 
ENDBRANCH   7  12
ENDBRANCH   3   4
ENDBRANCH   2   3
ENDBRANCH   1   2
BRANCH   1  19
HETATM   19  C   UNK N   1      27.921  18.176   5.387  0.00  0.00    -0.036 A 
HETATM   20  C   UNK N   1      27.676  19.012   4.257  0.00  0.00     0.009 A 
HETATM   21  C   UNK N   1      27.396  20.374   4.374  0.00  0.00     0.001 A 
HETATM   22  C   UNK N   1      27.329  20.968   5.629  0.00  0.00     0.000 A 
HETATM   23  C   UNK N   1      27.530  20.197   6.767  0.00  0.00     0.001 A 
HETATM   24  C   UNK N   1      27.811  18.834   6.649  0.00  0.00     0.009 A 
ENDBRANCH   1  19
BRANCH   1  25
HETATM   25  C   UNK N   1      26.812  16.076   5.658  0.00  0.00    -0.036 A 
HETATM   26  C   UNK N   1      25.644  16.540   5.007  0.00  0.00     0.009 A 
HETATM   27  C   UNK N   1      24.383  16.136   5.445  0.00  0.00     0.001 A 
HETATM   28  C   UNK N   1      24.266  15.287   6.547  0.00  0.00     0.000 A 
HETATM   29  C   UNK N   1      25.409  14.840   7.216  0.00  0.00     0.001 A 
HETATM   30  C   UNK N   1      26.677  15.235   6.780  0.00  0.00     0.009 A 
ENDBRANCH   1  25
BRANCH   1  31
HETATM   31  C   UNK N   1      28.395  15.114   4.697  0.00  0.00     0.237 C 
HETATM   32  O   UNK N   1      28.891  14.245   5.423  0.00  0.00    -0.272 OA
HETATM   33  N   UNK N   1      28.026  14.777   3.417  0.00  0.00    -0.360 N 
HETATM   34  C   UNK N   1      28.198  13.429   2.935  0.00  0.00     0.152 C 
HETATM   35  C   UNK N   1      27.438  15.748   2.526  0.00  0.00     0.152 C 
ENDBRANCH   1  31
TORSDOF 8
ENDMDL
MODEL 4
REMARK VINA RESULT:      -7.2      7.908      9.757
REMARK  8 active torsions:
REMARK  status: ('A' for Active; 'I' for Inactive)
REMARK    1  A    between atoms: O_2  and  C_6 
REMARK    2  A    between atoms: N_4  and  C_11 
REMARK       I    between atoms: N_5  and  C_17 
REMARK    3  A    between atoms: C_6  and  C_14 
REMARK    4  A    between atoms: C_11  and  C_12 
REMARK    5  A    between atoms: C_12  and  C_13 
REMARK    6  A    between atoms: C_13  and  C_15 
REMARK    7  A    between atoms: C_13  and  C_16 
REMARK    8  A    between atoms: C_13  and  C_17 
ROOT
HETATM    1  C   UNK N   1      21.720  15.968   4.209  0.00  0.00     0.097 C 
ENDROOT
BRANCH   1   2
HETATM    2  C   UNK N   1      21.723  14.684   5.103  0.00  0.00     0.059 C 
BRANCH   2   3
HETATM    3  C   UNK N   1      23.127  14.299   5.656  0.00  0.00     0.274 C 
BRANCH   3   4
HETATM    4  N   UNK N   1      23.262  14.340   7.121  0.00  0.00     0.088 N 
HETATM    5  C   UNK N   1      22.089  13.735   7.760  0.00  0.00     0.276 C 
HETATM    6  C   UNK N   1      22.100  12.206   7.640  0.00  0.00     0.073 C 
HETATM    7  C   UNK N   1      23.381  11.617   8.241  0.00  0.00     0.088 C 
HETATM    8  C   UNK N   1      24.583  12.280   7.559  0.00  0.00     0.073 C 
HETATM    9  C   UNK N   1      24.520  13.808   7.666  0.00  0.00     0.276 C 
BRANCH   7  10
HETATM   10  O   UNK N   1      23.422  10.255   7.937  0.00  0.00    -0.385 OA
HETATM   11  H   UNK N   1      23.531   9.358   8.290  0.00  0.00     0.211 HD
ENDBRANCH   7  10
BRANCH   7  12
HETATM   12  C   UNK N   1      23.396  11.774   9.752  0.00  0.00    -0.024 A 
HETATM   13  C   UNK N   1      24.619  11.934  10.424  0.00  0.00     0.012 A 
HETATM   14  C   UNK N   1      24.647  12.102  11.812  0.00  0.00     0.024 A 
HETATM   15  C   UNK N   1      23.454  12.105  12.541  0.00  0.00     0.034 A 
HETATM   16 Cl   UNK N   1      23.485  12.322  14.276  0.00  0.00    -0.084 Cl
HETATM   17  C   UNK N   1      22.234  11.942  11.885  0.00  0.00     0.024 A 
HETATM   18  C   UNK N   1      22.205  11.783  10.500  0.00  0.00     0.012 A 
ENDBRANCH   7  12
ENDBRANCH   3   4
ENDBRANCH   2   3
ENDBRANCH   1   2
BRANCH   1  19
HETATM   19  C   UNK N   1      22.113  15.229   2.813  0.00  0.00    -0.036 A 
HETATM   20  C   UNK N   1      23.456  15.183   2.333  0.00  0.00     0.009 A 
HETATM   21  C   UNK N   1      23.813  14.527   1.154  0.00  0.00     0.001 A 
HETATM   22  C   UNK N   1      22.848  13.865   0.404  0.00  0.00     0.000 A 
HETATM   23  C   UNK N   1      21.528  13.852   0.838  0.00  0.00     0.001 A 
HETATM   24  C   UNK N   1      21.172  14.509   2.016  0.00  0.00     0.009 A 
ENDBRANCH   1  19
BRANCH   1  25
HETATM   25  C   UNK N   1      21.322  17.338   3.612  0.00  0.00    -0.036 A 
HETATM   26  C   UNK N   1      20.098  17.501   2.921  0.00  0.00     0.009 A 
HETATM   27  C   UNK N   1      19.781  18.721   2.322  0.00  0.00     0.001 A 
HETATM   28  C   UNK N   1      20.685  19.783   2.382  0.00  0.00     0.000 A 
HETATM   29  C   UNK N   1      21.908  19.629   3.038  0.00  0.00     0.001 A 
HETATM   30  C   UNK N   1      22.231  18.413   3.647  0.00  0.00     0.009 A 
ENDBRANCH   1  25
BRANCH   1  31
HETATM   31  C   UNK N   1      20.982  16.500   5.493  0.00  0.00     0.237 C 
HETATM   32  O   UNK N   1      21.533  17.328   6.227  0.00  0.00    -0.272 OA
HETATM   33  N   UNK N   1      19.729  16.047   5.828  0.00  0.00    -0.360 N 
HETATM   34  C   UNK N   1      19.060  16.541   7.006  0.00  0.00     0.152 C 
HETATM   35  C   UNK N   1      19.036  15.084   5.006  0.00  0.00     0.152 C 
ENDBRANCH   1  31
TORSDOF 8
ENDMDL
MODEL 5
REMARK VINA RESULT:      -7.1      5.397     11.381
REMARK  8 active torsions:
REMARK  status: ('A' for Active; 'I' for Inactive)
REMARK    1  A    between atoms: O_2  and  C_6 
REMARK    2  A    between atoms: N_4  and  C_11 
REMARK       I    between atoms: N_5  and  C_17 
REMARK    3  A    between atoms: C_6  and  C_14 
REMARK    4  A    between atoms: C_11  and  C_12 
REMARK    5  A    between atoms: C_12  and  C_13 
REMARK    6  A    between atoms: C_13  and  C_15 
REMARK    7  A    between atoms: C_13  and  C_16 
REMARK    8  A    between atoms: C_13  and  C_17 
ROOT
HETATM    1  C   UNK N   1      36.270  12.610  14.179  0.00  0.00     0.097 C 
ENDROOT
BRANCH   1   2
HETATM    2  C   UNK N   1      35.270  13.494  13.361  0.00  0.00     0.059 C 
BRANCH   2   3
HETATM    3  C   UNK N   1      35.959  14.526  12.419  0.00  0.00     0.274 C 
BRANCH   3   4
HETATM    4  N   UNK N   1      35.065  15.214  11.475  0.00  0.00     0.088 N 
HETATM    5  C   UNK N   1      35.839  15.825  10.390  0.00  0.00     0.276 C 
HETATM    6  C   UNK N   1      36.348  14.777   9.393  0.00  0.00     0.073 C 
HETATM    7  C   UNK N   1      35.187  13.964   8.810  0.00  0.00     0.088 C 
HETATM    8  C   UNK N   1      34.395  13.352   9.971  0.00  0.00     0.073 C 
HETATM    9  C   UNK N   1      33.934  14.424  10.966  0.00  0.00     0.276 C 
BRANCH   7  10
HETATM   10  O   UNK N   1      35.719  12.913   8.062  0.00  0.00    -0.385 OA
HETATM   11  H   UNK N   1      35.720  11.954   7.914  0.00  0.00     0.211 HD
ENDBRANCH   7  10
BRANCH   7  12
HETATM   12  C   UNK N   1      34.328  14.820   7.894  0.00  0.00    -0.024 A 
HETATM   13  C   UNK N   1      34.937  15.744   7.030  0.00  0.00     0.012 A 
HETATM   14  C   UNK N   1      34.160  16.523   6.166  0.00  0.00     0.024 A 
HETATM   15  C   UNK N   1      32.769  16.390   6.164  0.00  0.00     0.034 A 
HETATM   16 Cl   UNK N   1      31.795  17.358   5.080  0.00  0.00    -0.084 Cl
HETATM   17  C   UNK N   1      32.152  15.480   7.022  0.00  0.00     0.024 A 
HETATM   18  C   UNK N   1      32.927  14.696   7.877  0.00  0.00     0.012 A 
ENDBRANCH   7  12
ENDBRANCH   3   4
ENDBRANCH   2   3
ENDBRANCH   1   2
BRANCH   1  19
HETATM   19  C   UNK N   1      36.306  13.546  15.510  0.00  0.00    -0.036 A 
HETATM   20  C   UNK N   1      37.188  14.661  15.627  0.00  0.00     0.009 A 
HETATM   21  C   UNK N   1      37.209  15.491  16.749  0.00  0.00     0.001 A 
HETATM   22  C   UNK N   1      36.335  15.259  17.805  0.00  0.00     0.000 A 
HETATM   23  C   UNK N   1      35.434  14.205  17.734  0.00  0.00     0.001 A 
HETATM   24  C   UNK N   1      35.414  13.375  16.611  0.00  0.00     0.009 A 
ENDBRANCH   1  19
BRANCH   1  25
HETATM   25  C   UNK N   1      36.988  11.376  14.773  0.00  0.00    -0.036 A 
HETATM   26  C   UNK N   1      38.190  10.892  14.204  0.00  0.00     0.009 A 
HETATM   27  C   UNK N   1      38.790   9.734  14.700  0.00  0.00     0.001 A 
HETATM   28  C   UNK N   1      38.192   9.032  15.748  0.00  0.00     0.000 A 
HETATM   29  C   UNK N   1      36.992   9.484  16.303  0.00  0.00     0.001 A 
HETATM   30  C   UNK N   1      36.387  10.647  15.817  0.00  0.00     0.009 A 
ENDBRANCH   1  25
BRANCH   1  31
HETATM   31  C   UNK N   1      35.864  11.614  13.031  0.00  0.00     0.237 C 
HETATM   32  O   UNK N   1      36.611  11.446  12.061  0.00  0.00    -0.272 OA
HETATM   33  N   UNK N   1      34.674  10.928  13.077  0.00  0.00    -0.360 N 
HETATM   34  C   UNK N   1      34.311  10.015  12.021  0.00  0.00     0.152 C 
HETATM   35  C   UNK N   1      33.764  11.080  14.187  0.00  0.00     0.152 C 
ENDBRANCH   1  31
TORSDOF 8
ENDMDL
MODEL 6
REMARK VINA RESULT:      -7.1      4.481      8.634
REMARK  8 active torsions:
REMARK  status: ('A' for Active; 'I' for Inactive)
REMARK    1  A    between atoms: O_2  and  C_6 
REMARK    2  A    between atoms: N_4  and  C_11 
REMARK       I    between atoms: N_5  and  C_17 
REMARK    3  A    between atoms: C_6  and  C_14 
REMARK    4  A    between atoms: C_11  and  C_12 
REMARK    5  A    between atoms: C_12  and  C_13 
REMARK    6  A    between atoms: C_13  and  C_15 
REMARK    7  A    between atoms: C_13  and  C_16 
REMARK    8  A    between atoms: C_13  and  C_17 
ROOT
HETATM    1  C   UNK N   1      29.398  16.209   5.205  0.00  0.00     0.097 C 
ENDROOT
BRANCH   1   2
HETATM    2  C   UNK N   1      28.217  15.285   5.653  0.00  0.00     0.059 C 
BRANCH   2   3
HETATM    3  C   UNK N   1      26.852  15.634   4.992  0.00  0.00     0.274 C 
BRANCH   3   4
HETATM    4  N   UNK N   1      25.830  16.177   5.901  0.00  0.00     0.088 N 
HETATM    5  C   UNK N   1      24.794  16.884   5.142  0.00  0.00     0.276 C 
HETATM    6  C   UNK N   1      23.858  15.912   4.413  0.00  0.00     0.073 C 
HETATM    7  C   UNK N   1      23.207  14.934   5.396  0.00  0.00     0.088 C 
HETATM    8  C   UNK N   1      24.318  14.224   6.178  0.00  0.00     0.073 C 
HETATM    9  C   UNK N   1      25.254  15.226   6.863  0.00  0.00     0.276 C 
BRANCH   7  10
HETATM   10  O   UNK N   1      22.521  13.965   4.662  0.00  0.00    -0.385 OA
HETATM   11  H   UNK N   1      21.767  13.785   4.079  0.00  0.00     0.211 HD
ENDBRANCH   7  10
BRANCH   7  12
HETATM   12  C   UNK N   1      22.213  15.649   6.297  0.00  0.00    -0.024 A 
HETATM   13  C   UNK N   1      21.781  15.034   7.484  0.00  0.00     0.012 A 
HETATM   14  C   UNK N   1      20.884  15.690   8.334  0.00  0.00     0.024 A 
HETATM   15  C   UNK N   1      20.405  16.960   8.001  0.00  0.00     0.034 A 
HETATM   16 Cl   UNK N   1      19.288  17.785   9.065  0.00  0.00    -0.084 Cl
HETATM   17  C   UNK N   1      20.822  17.577   6.822  0.00  0.00     0.024 A 
HETATM   18  C   UNK N   1      21.724  16.929   5.979  0.00  0.00     0.012 A 
ENDBRANCH   7  12
ENDBRANCH   3   4
ENDBRANCH   2   3
ENDBRANCH   1   2
BRANCH   1  19
HETATM   19  C   UNK N   1      28.744  17.611   5.711  0.00  0.00    -0.036 A 
HETATM   20  C   UNK N   1      28.583  17.915   7.095  0.00  0.00     0.009 A 
HETATM   21  C   UNK N   1      28.052  19.125   7.544  0.00  0.00     0.001 A 
HETATM   22  C   UNK N   1      27.673  20.102   6.632  0.00  0.00     0.000 A 
HETATM   23  C   UNK N   1      27.834  19.873   5.271  0.00  0.00     0.001 A 
HETATM   24  C   UNK N   1      28.364  18.663   4.823  0.00  0.00     0.009 A 
ENDBRANCH   1  19
BRANCH   1  25
HETATM   25  C   UNK N   1      30.827  16.734   4.932  0.00  0.00    -0.036 A 
HETATM   26  C   UNK N   1      31.320  16.842   3.609  0.00  0.00     0.009 A 
HETATM   27  C   UNK N   1      32.635  17.245   3.376  0.00  0.00     0.001 A 
HETATM   28  C   UNK N   1      33.482  17.520   4.451  0.00  0.00     0.000 A 
HETATM   29  C   UNK N   1      33.017  17.393   5.763  0.00  0.00     0.001 A 
HETATM   30  C   UNK N   1      31.699  16.996   6.006  0.00  0.00     0.009 A 
ENDBRANCH   1  25
BRANCH   1  31
HETATM   31  C   UNK N   1      30.080  14.794   5.117  0.00  0.00     0.237 C 
HETATM   32  O   UNK N   1      30.710  14.347   6.082  0.00  0.00    -0.272 OA
HETATM   33  N   UNK N   1      30.002  14.041   3.970  0.00  0.00    -0.360 N 
HETATM   34  C   UNK N   1      30.629  12.744   3.899  0.00  0.00     0.152 C 
HETATM   35  C   UNK N   1      29.276  14.509   2.814  0.00  0.00     0.152 C 
ENDBRANCH   1  31
TORSDOF 8
ENDMDL
MODEL 7
REMARK VINA RESULT:      -7.0     12.200     15.114
REMARK  8 active torsions:
REMARK  status: ('A' for Active; 'I' for Inactive)
REMARK    1  A    between atoms: O_2  and  C_6 
REMARK    2  A    between atoms: N_4  and  C_11 
REMARK       I    between atoms: N_5  and  C_17 
REMARK    3  A    between atoms: C_6  and  C_14 
REMARK    4  A    between atoms: C_11  and  C_12 
REMARK    5  A    between atoms: C_12  and  C_13 
REMARK    6  A    between atoms: C_13  and  C_15 
REMARK    7  A    between atoms: C_13  and  C_16 
REMARK    8  A    between atoms: C_13  and  C_17 
ROOT
HETATM    1  C   UNK N   1      26.547  24.702  -7.509  0.00  0.00     0.097 C 
ENDROOT
BRANCH   1   2
HETATM    2  C   UNK N   1      27.028  23.793  -6.329  0.00  0.00     0.059 C 
BRANCH   2   3
HETATM    3  C   UNK N   1      28.258  24.353  -5.557  0.00  0.00     0.274 C 
BRANCH   3   4
HETATM    4  N   UNK N   1      29.529  23.653  -5.801  0.00  0.00     0.088 N 
HETATM    5  C   UNK N   1      30.658  24.461  -5.325  0.00  0.00     0.276 C 
HETATM    6  C   UNK N   1      30.760  24.450  -3.795  0.00  0.00     0.073 C 
HETATM    7  C   UNK N   1      30.884  23.019  -3.262  0.00  0.00     0.088 C 
HETATM    8  C   UNK N   1      29.696  22.204  -3.788  0.00  0.00     0.073 C 
HETATM    9  C   UNK N   1      29.604  22.267  -5.317  0.00  0.00     0.276 C 
BRANCH   7  10
HETATM   10  O   UNK N   1      30.784  23.059  -1.871  0.00  0.00    -0.385 OA
HETATM   11  H   UNK N   1      30.537  23.593  -1.099  0.00  0.00     0.211 HD
ENDBRANCH   7  10
BRANCH   7  12
HETATM   12  C   UNK N   1      32.228  22.414  -3.632  0.00  0.00    -0.024 A 
HETATM   13  C   UNK N   1      32.683  21.266  -2.963  0.00  0.00     0.012 A 
HETATM   14  C   UNK N   1      33.908  20.685  -3.309  0.00  0.00     0.024 A 
HETATM   15  C   UNK N   1      34.691  21.251  -4.319  0.00  0.00     0.034 A 
HETATM   16 Cl   UNK N   1      36.220  20.524  -4.758  0.00  0.00    -0.084 Cl
HETATM   17  C   UNK N   1      34.251  22.394  -4.986  0.00  0.00     0.024 A 
HETATM   18  C   UNK N   1      33.026  22.968  -4.649  0.00  0.00     0.012 A 
ENDBRANCH   7  12
ENDBRANCH   3   4
ENDBRANCH   2   3
ENDBRANCH   1   2
BRANCH   1  19
HETATM   19  C   UNK N   1      26.351  26.060  -6.635  0.00  0.00    -0.036 A 
HETATM   20  C   UNK N   1      25.262  26.226  -5.728  0.00  0.00     0.009 A 
HETATM   21  C   UNK N   1      25.098  27.372  -4.949  0.00  0.00     0.001 A 
HETATM   22  C   UNK N   1      26.025  28.405  -5.022  0.00  0.00     0.000 A 
HETATM   23  C   UNK N   1      27.122  28.287  -5.867  0.00  0.00     0.001 A 
HETATM   24  C   UNK N   1      27.285  27.140  -6.646  0.00  0.00     0.009 A 
ENDBRANCH   1  19
BRANCH   1  25
HETATM   25  C   UNK N   1      26.424  25.339  -8.913  0.00  0.00    -0.036 A 
HETATM   26  C   UNK N   1      27.501  26.061  -9.479  0.00  0.00     0.009 A 
HETATM   27  C   UNK N   1      27.356  26.696 -10.713  0.00  0.00     0.001 A 
HETATM   28  C   UNK N   1      26.134  26.641 -11.386  0.00  0.00     0.000 A 
HETATM   29  C   UNK N   1      25.053  25.954 -10.828  0.00  0.00     0.001 A 
HETATM   30  C   UNK N   1      25.192  25.310  -9.594  0.00  0.00     0.009 A 
ENDBRANCH   1  25
BRANCH   1  31
HETATM   31  C   UNK N   1      27.131  23.474  -8.301  0.00  0.00     0.237 C 
HETATM   32  O   UNK N   1      28.270  23.528  -8.779  0.00  0.00    -0.272 OA
HETATM   33  N   UNK N   1      26.388  22.333  -8.487  0.00  0.00    -0.360 N 
HETATM   34  C   UNK N   1      26.932  21.213  -9.213  0.00  0.00     0.152 C 
HETATM   35  C   UNK N   1      25.055  22.211  -7.948  0.00  0.00     0.152 C 
ENDBRANCH   1  31
TORSDOF 8
ENDMDL
MODEL 8
REMARK VINA RESULT:      -7.0      4.047      8.576
REMARK  8 active torsions:
REMARK  status: ('A' for Active; 'I' for Inactive)
REMARK    1  A    between atoms: O_2  and  C_6 
REMARK    2  A    between atoms: N_4  and  C_11 
REMARK       I    between atoms: N_5  and  C_17 
REMARK    3  A    between atoms: C_6  and  C_14 
REMARK    4  A    between atoms: C_11  and  C_12 
REMARK    5  A    between atoms: C_12  and  C_13 
REMARK    6  A    between atoms: C_13  and  C_15 
REMARK    7  A    between atoms: C_13  and  C_16 
REMARK    8  A    between atoms: C_13  and  C_17 
ROOT
HETATM    1  C   UNK N   1      30.848  15.987   5.427  0.00  0.00     0.097 C 
ENDROOT
BRANCH   1   2
HETATM    2  C   UNK N   1      29.918  15.050   4.585  0.00  0.00     0.059 C 
BRANCH   2   3
HETATM    3  C   UNK N   1      28.623  14.608   5.328  0.00  0.00     0.274 C 
BRANCH   3   4
HETATM    4  N   UNK N   1      27.571  14.032   4.475  0.00  0.00     0.088 N 
HETATM    5  C   UNK N   1      26.249  14.259   5.068  0.00  0.00     0.276 C 
HETATM    6  C   UNK N   1      25.799  15.717   4.916  0.00  0.00     0.073 C 
HETATM    7  C   UNK N   1      25.786  16.137   3.442  0.00  0.00     0.088 C 
HETATM    8  C   UNK N   1      27.177  15.876   2.854  0.00  0.00     0.073 C 
HETATM    9  C   UNK N   1      27.610  14.419   3.056  0.00  0.00     0.276 C 
BRANCH   7  10
HETATM   10  O   UNK N   1      25.553  17.512   3.380  0.00  0.00    -0.385 OA
HETATM   11  H   UNK N   1      25.956  18.390   3.297  0.00  0.00     0.211 HD
ENDBRANCH   7  10
BRANCH   7  12
HETATM   12  C   UNK N   1      24.678  15.426   2.683  0.00  0.00    -0.024 A 
HETATM   13  C   UNK N   1      23.370  15.428   3.193  0.00  0.00     0.012 A 
HETATM   14  C   UNK N   1      22.337  14.797   2.493  0.00  0.00     0.024 A 
HETATM   15  C   UNK N   1      22.604  14.151   1.282  0.00  0.00     0.034 A 
HETATM   16 Cl   UNK N   1      21.312  13.367   0.401  0.00  0.00    -0.084 Cl
HETATM   17  C   UNK N   1      23.900  14.137   0.769  0.00  0.00     0.024 A 
HETATM   18  C   UNK N   1      24.929  14.775   1.461  0.00  0.00     0.012 A 
ENDBRANCH   7  12
ENDBRANCH   3   4
ENDBRANCH   2   3
ENDBRANCH   1   2
BRANCH   1  19
HETATM   19  C   UNK N   1      29.737  17.139   5.724  0.00  0.00    -0.036 A 
HETATM   20  C   UNK N   1      29.214  17.366   7.032  0.00  0.00     0.009 A 
HETATM   21  C   UNK N   1      28.284  18.369   7.308  0.00  0.00     0.001 A 
HETATM   22  C   UNK N   1      27.844  19.212   6.293  0.00  0.00     0.000 A 
HETATM   23  C   UNK N   1      28.341  19.056   5.005  0.00  0.00     0.001 A 
HETATM   24  C   UNK N   1      29.270  18.052   4.730  0.00  0.00     0.009 A 
ENDBRANCH   1  19
BRANCH   1  25
HETATM   25  C   UNK N   1      31.922  16.471   6.429  0.00  0.00    -0.036 A 
HETATM   26  C   UNK N   1      31.882  16.070   7.786  0.00  0.00     0.009 A 
HETATM   27  C   UNK N   1      32.811  16.570   8.698  0.00  0.00     0.001 A 
HETATM   28  C   UNK N   1      33.773  17.492   8.280  0.00  0.00     0.000 A 
HETATM   29  C   UNK N   1      33.808  17.917   6.950  0.00  0.00     0.001 A 
HETATM   30  C   UNK N   1      32.885  17.416   6.027  0.00  0.00     0.009 A 
ENDBRANCH   1  25
BRANCH   1  31
HETATM   31  C   UNK N   1      31.699  14.664   5.409  0.00  0.00     0.237 C 
HETATM   32  O   UNK N   1      31.603  13.852   6.336  0.00  0.00    -0.272 OA
HETATM   33  N   UNK N   1      32.569  14.395   4.381  0.00  0.00    -0.360 N 
HETATM   34  C   UNK N   1      33.343  13.179   4.373  0.00  0.00     0.152 C 
HETATM   35  C   UNK N   1      32.719  15.304   3.270  0.00  0.00     0.152 C 
ENDBRANCH   1  31
TORSDOF 8
ENDMDL
MODEL 9
REMARK VINA RESULT:      -6.9      4.521      9.129
REMARK  8 active torsions:
REMARK  status: ('A' for Active; 'I' for Inactive)
REMARK    1  A    between atoms: O_2  and  C_6 
REMARK    2  A    between atoms: N_4  and  C_11 
REMARK       I    between atoms: N_5  and  C_17 
REMARK    3  A    between atoms: C_6  and  C_14 
REMARK    4  A    between atoms: C_11  and  C_12 
REMARK    5  A    between atoms: C_12  and  C_13 
REMARK    6  A    between atoms: C_13  and  C_15 
REMARK    7  A    between atoms: C_13  and  C_16 
REMARK    8  A    between atoms: C_13  and  C_17 
ROOT
HETATM    1  C   UNK N   1      29.224  16.268   5.281  0.00  0.00     0.097 C 
ENDROOT
BRANCH   1   2
HETATM    2  C   UNK N   1      27.921  15.407   5.397  0.00  0.00     0.059 C 
BRANCH   2   3
HETATM    3  C   UNK N   1      26.622  16.244   5.588  0.00  0.00     0.274 C 
BRANCH   3   4
HETATM    4  N   UNK N   1      25.674  16.204   4.464  0.00  0.00     0.088 N 
HETATM    5  C   UNK N   1      24.509  15.381   4.806  0.00  0.00     0.276 C 
HETATM    6  C   UNK N   1      23.570  16.101   5.782  0.00  0.00     0.073 C 
HETATM    7  C   UNK N   1      23.107  17.445   5.210  0.00  0.00     0.088 C 
HETATM    8  C   UNK N   1      24.349  18.271   4.854  0.00  0.00     0.073 C 
HETATM    9  C   UNK N   1      25.282  17.507   3.906  0.00  0.00     0.276 C 
BRANCH   7  10
HETATM   10  O   UNK N   1      22.415  18.132   6.208  0.00  0.00    -0.385 OA
HETATM   11  H   UNK N   1      21.601  18.178   6.733  0.00  0.00     0.211 HD
ENDBRANCH   7  10
BRANCH   7  12
HETATM   12  C   UNK N   1      22.173  17.241   4.028  0.00  0.00    -0.024 A 
HETATM   13  C   UNK N   1      21.543  18.349   3.439  0.00  0.00     0.012 A 
HETATM   14  C   UNK N   1      20.699  18.179   2.337  0.00  0.00     0.024 A 
HETATM   15  C   UNK N   1      20.470  16.900   1.821  0.00  0.00     0.034 A 
HETATM   16 Cl   UNK N   1      19.419  16.685   0.439  0.00  0.00    -0.084 Cl
HETATM   17  C   UNK N   1      21.085  15.792   2.402  0.00  0.00     0.024 A 
HETATM   18  C   UNK N   1      21.936  15.962   3.494  0.00  0.00     0.012 A 
ENDBRANCH   7  12
ENDBRANCH   3   4
ENDBRANCH   2   3
ENDBRANCH   1   2
BRANCH   1  19
HETATM   19  C   UNK N   1      28.656  17.578   6.062  0.00  0.00    -0.036 A 
HETATM   20  C   UNK N   1      28.577  17.636   7.485  0.00  0.00     0.009 A 
HETATM   21  C   UNK N   1      28.121  18.763   8.170  0.00  0.00     0.001 A 
HETATM   22  C   UNK N   1      27.738  19.899   7.467  0.00  0.00     0.000 A 
HETATM   23  C   UNK N   1      27.821  19.911   6.080  0.00  0.00     0.001 A 
HETATM   24  C   UNK N   1      28.276  18.783   5.396  0.00  0.00     0.009 A 
ENDBRANCH   1  19
BRANCH   1  25
HETATM   25  C   UNK N   1      30.716  16.673   5.255  0.00  0.00    -0.036 A 
HETATM   26  C   UNK N   1      31.489  16.672   6.441  0.00  0.00     0.009 A 
HETATM   27  C   UNK N   1      32.814  17.109   6.422  0.00  0.00     0.001 A 
HETATM   28  C   UNK N   1      33.377  17.575   5.232  0.00  0.00     0.000 A 
HETATM   29  C   UNK N   1      32.618  17.606   4.059  0.00  0.00     0.001 A 
HETATM   30  C   UNK N   1      31.292  17.164   4.068  0.00  0.00     0.009 A 
ENDBRANCH   1  25
BRANCH   1  31
HETATM   31  C   UNK N   1      29.775  14.844   4.902  0.00  0.00     0.237 C 
HETATM   32  O   UNK N   1      30.349  14.154   5.753  0.00  0.00    -0.272 OA
HETATM   33  N   UNK N   1      29.644  14.350   3.627  0.00  0.00    -0.360 N 
HETATM   34  C   UNK N   1      30.151  13.043   3.290  0.00  0.00     0.152 C 
HETATM   35  C   UNK N   1      28.979  15.108   2.595  0.00  0.00     0.152 C 
ENDBRANCH   1  31
TORSDOF 8
ENDMDL
