MODEL 1
REMARK VINA RESULT:      -7.0      0.000      0.000
REMARK  3 active torsions:
REMARK  status: ('A' for Active; 'I' for Inactive)
REMARK    1  A    between atoms: S_1  and  N_7 
REMARK    2  A    between atoms: S_1  and  C_15 
REMARK    3  A    between atoms: N_5  and  N_6 
REMARK       I    between atoms: N_6  and  C_14 
REMARK       I    between atoms: N_7  and  C_14 
ROOT
HETATM    1  O   UNK N   1      20.675  17.171   3.053  0.00  0.00    -0.245 OA
HETATM    2  N   UNK N   1      19.725  16.828   1.047  0.00  0.00    -0.270 N 
HETATM    3  N   UNK N   1      20.383  18.955   1.737  0.00  0.00    -0.231 N 
HETATM    4  C   UNK N   1      20.254  17.637   2.004  0.00  0.00     0.344 C 
HETATM    5  H   UNK N   1      19.413  17.245   0.212  0.00  0.00     0.185 HD
HETATM    6  H   UNK N   1      19.904  19.314   0.956  0.00  0.00     0.183 HD
ENDROOT
BRANCH   3   7
HETATM    7  S   UNK N   1      21.348  20.073   2.693  0.00  0.00     0.266 S 
HETATM    8  O   UNK N   1      21.196  21.402   1.938  0.00  0.00    -0.200 OA
HETATM    9  O   UNK N   1      20.458  20.366   3.910  0.00  0.00    -0.200 OA
BRANCH   7  10
HETATM   10  C   UNK N   1      23.056  19.872   3.201  0.00  0.00     0.080 A 
HETATM   11  C   UNK N   1      23.442  18.833   4.056  0.00  0.00     0.026 A 
HETATM   12  C   UNK N   1      24.799  18.629   4.338  0.00  0.00     0.008 A 
HETATM   13  C   UNK N   1      25.769  19.452   3.756  0.00  0.00    -0.062 A 
HETATM   14  C   UNK N   1      25.384  20.488   2.901  0.00  0.00     0.008 A 
HETATM   15  C   UNK N   1      27.212  19.219   4.032  0.00  0.00     0.048 C 
HETATM   16  C   UNK N   1      24.031  20.692   2.622  0.00  0.00     0.026 A 
ENDBRANCH   7  10
ENDBRANCH   3   7
BRANCH   2  17
HETATM   17  N   UNK N   1      19.594  15.444   1.173  0.00  0.00    -0.227 NA
HETATM   18  C   UNK N   1      20.881  14.815   0.873  0.00  0.00     0.113 C 
HETATM   19  C   UNK N   1      21.068  13.525   1.675  0.00  0.00     0.016 C 
HETATM   20  C   UNK N   1      19.871  12.572   1.637  0.00  0.00     0.001 C 
HETATM   21  C   UNK N   1      19.158  12.565   0.292  0.00  0.00     0.001 C 
HETATM   22  C   UNK N   1      18.098  13.658   0.284  0.00  0.00     0.016 C 
HETATM   23  C   UNK N   1      18.691  15.052   0.090  0.00  0.00     0.113 C 
ENDBRANCH   2  17
TORSDOF 3
ENDMDL
MODEL 2
REMARK VINA RESULT:      -6.9     12.938     16.018
REMARK  3 active torsions:
REMARK  status: ('A' for Active; 'I' for Inactive)
REMARK    1  A    between atoms: S_1  and  N_7 
REMARK    2  A    between atoms: S_1  and  C_15 
REMARK    3  A    between atoms: N_5  and  N_6 
REMARK       I    between atoms: N_6  and  C_14 
REMARK       I    between atoms: N_7  and  C_14 
ROOT
HETATM    1  O   UNK N   1      36.033  15.888   9.423  0.00  0.00    -0.245 OA
HETATM    2  N   UNK N   1      34.917  15.364  11.301  0.00  0.00    -0.270 N 
HETATM    3  N   UNK N   1      34.165  17.035   9.860  0.00  0.00    -0.231 N 
HETATM    4  C   UNK N   1      35.095  16.107  10.175  0.00  0.00     0.344 C 
HETATM    5  H   UNK N   1      34.138  15.565  11.867  0.00  0.00     0.185 HD
HETATM    6  H   UNK N   1      33.512  17.284  10.553  0.00  0.00     0.183 HD
ENDROOT
BRANCH   3   7
HETATM    7  S   UNK N   1      34.043  17.829   8.295  0.00  0.00     0.266 S 
HETATM    8  O   UNK N   1      32.799  18.716   8.446  0.00  0.00    -0.200 OA
HETATM    9  O   UNK N   1      35.136  18.906   8.352  0.00  0.00    -0.200 OA
BRANCH   7  10
HETATM   10  C   UNK N   1      34.020  17.047   6.680  0.00  0.00     0.080 A 
HETATM   11  C   UNK N   1      34.652  15.818   6.459  0.00  0.00     0.026 A 
HETATM   12  C   UNK N   1      34.515  15.175   5.222  0.00  0.00     0.008 A 
HETATM   13  C   UNK N   1      33.736  15.751   4.213  0.00  0.00    -0.062 A 
HETATM   14  C   UNK N   1      33.104  16.977   4.434  0.00  0.00     0.008 A 
HETATM   15  C   UNK N   1      33.566  15.057   2.910  0.00  0.00     0.048 C 
HETATM   16  C   UNK N   1      33.243  17.619   5.667  0.00  0.00     0.026 A 
ENDBRANCH   7  10
ENDBRANCH   3   7
BRANCH   2  17
HETATM   17  N   UNK N   1      35.768  14.335  11.704  0.00  0.00    -0.227 NA
HETATM   18  C   UNK N   1      35.254  13.063  11.196  0.00  0.00     0.113 C 
HETATM   19  C   UNK N   1      36.391  12.081  10.905  0.00  0.00     0.016 C 
HETATM   20  C   UNK N   1      37.419  11.945  12.030  0.00  0.00     0.001 C 
HETATM   21  C   UNK N   1      36.799  12.041  13.417  0.00  0.00     0.001 C 
HETATM   22  C   UNK N   1      36.749  13.503  13.841  0.00  0.00     0.016 C 
HETATM   23  C   UNK N   1      35.622  14.276  13.159  0.00  0.00     0.113 C 
ENDBRANCH   2  17
TORSDOF 3
ENDMDL
MODEL 3
REMARK VINA RESULT:      -6.8     14.653     17.492
REMARK  3 active torsions:
REMARK  status: ('A' for Active; 'I' for Inactive)
REMARK    1  A    between atoms: S_1  and  N_7 
REMARK    2  A    between atoms: S_1  and  C_15 
REMARK    3  A    between atoms: N_5  and  N_6 
REMARK       I    between atoms: N_6  and  C_14 
REMARK       I    between atoms: N_7  and  C_14 
ROOT
HETATM    1  O   UNK N   1      34.224  14.790  11.677  0.00  0.00    -0.245 OA
HETATM    2  N   UNK N   1      35.129  15.320   9.690  0.00  0.00    -0.270 N 
HETATM    3  N   UNK N   1      36.211  13.893  11.182  0.00  0.00    -0.231 N 
HETATM    4  C   UNK N   1      35.161  14.694  10.898  0.00  0.00     0.344 C 
HETATM    5  H   UNK N   1      35.899  15.201   9.089  0.00  0.00     0.185 HD
HETATM    6  H   UNK N   1      37.006  13.955  10.604  0.00  0.00     0.183 HD
ENDROOT
BRANCH   3   7
HETATM    7  S   UNK N   1      36.255  12.748  12.517  0.00  0.00     0.266 S 
HETATM    8  O   UNK N   1      35.411  11.574  12.000  0.00  0.00    -0.200 OA
HETATM    9  O   UNK N   1      37.654  12.125  12.410  0.00  0.00    -0.200 OA
BRANCH   7  10
HETATM   10  C   UNK N   1      35.841  13.065  14.233  0.00  0.00     0.080 A 
HETATM   11  C   UNK N   1      34.819  12.358  14.877  0.00  0.00     0.026 A 
HETATM   12  C   UNK N   1      34.599  12.541  16.248  0.00  0.00     0.008 A 
HETATM   13  C   UNK N   1      35.408  13.418  16.978  0.00  0.00    -0.062 A 
HETATM   14  C   UNK N   1      36.430  14.122  16.336  0.00  0.00     0.008 A 
HETATM   15  C   UNK N   1      35.195  13.592  18.439  0.00  0.00     0.048 C 
HETATM   16  C   UNK N   1      36.647  13.941  14.969  0.00  0.00     0.026 A 
ENDBRANCH   7  10
ENDBRANCH   3   7
BRANCH   2  17
HETATM   17  N   UNK N   1      34.076  16.123   9.250  0.00  0.00    -0.227 NA
HETATM   18  C   UNK N   1      33.108  15.289   8.535  0.00  0.00     0.113 C 
HETATM   19  C   UNK N   1      31.686  15.830   8.696  0.00  0.00     0.016 C 
HETATM   20  C   UNK N   1      31.541  17.332   8.440  0.00  0.00     0.001 C 
HETATM   21  C   UNK N   1      32.452  17.835   7.330  0.00  0.00     0.001 C 
HETATM   22  C   UNK N   1      33.800  18.218   7.926  0.00  0.00     0.016 C 
HETATM   23  C   UNK N   1      34.670  17.003   8.244  0.00  0.00     0.113 C 
ENDBRANCH   2  17
TORSDOF 3
ENDMDL
MODEL 4
REMARK VINA RESULT:      -6.8      2.495      7.463
REMARK  3 active torsions:
REMARK  status: ('A' for Active; 'I' for Inactive)
REMARK    1  A    between atoms: S_1  and  N_7 
REMARK    2  A    between atoms: S_1  and  C_15 
REMARK    3  A    between atoms: N_5  and  N_6 
REMARK       I    between atoms: N_6  and  C_14 
REMARK       I    between atoms: N_7  and  C_14 
ROOT
HETATM    1  O   UNK N   1      23.513  18.677   3.940  0.00  0.00    -0.245 OA
HETATM    2  N   UNK N   1      24.978  20.379   3.866  0.00  0.00    -0.270 N 
HETATM    3  N   UNK N   1      22.917  20.495   2.783  0.00  0.00    -0.231 N 
HETATM    4  C   UNK N   1      23.800  19.790   3.523  0.00  0.00     0.344 C 
HETATM    5  H   UNK N   1      25.159  21.282   3.520  0.00  0.00     0.185 HD
HETATM    6  H   UNK N   1      23.237  21.317   2.346  0.00  0.00     0.183 HD
ENDROOT
BRANCH   3   7
HETATM    7  S   UNK N   1      21.233  20.042   2.546  0.00  0.00     0.266 S 
HETATM    8  O   UNK N   1      20.566  20.469   3.861  0.00  0.00    -0.200 OA
HETATM    9  O   UNK N   1      20.693  21.139   1.617  0.00  0.00    -0.200 OA
BRANCH   7  10
HETATM   10  C   UNK N   1      20.600  18.438   2.054  0.00  0.00     0.080 A 
HETATM   11  C   UNK N   1      20.301  18.154   0.717  0.00  0.00     0.026 A 
HETATM   12  C   UNK N   1      19.923  16.857   0.345  0.00  0.00     0.008 A 
HETATM   13  C   UNK N   1      19.859  15.842   1.307  0.00  0.00    -0.062 A 
HETATM   14  C   UNK N   1      20.160  16.125   2.641  0.00  0.00     0.008 A 
HETATM   15  C   UNK N   1      19.486  14.458   0.910  0.00  0.00     0.048 C 
HETATM   16  C   UNK N   1      20.534  17.418   3.011  0.00  0.00     0.026 A 
ENDBRANCH   7  10
ENDBRANCH   3   7
BRANCH   2  17
HETATM   17  N   UNK N   1      25.946  19.784   4.676  0.00  0.00    -0.227 NA
HETATM   18  C   UNK N   1      26.793  20.829   5.251  0.00  0.00     0.113 C 
HETATM   19  C   UNK N   1      27.311  20.424   6.633  0.00  0.00     0.016 C 
HETATM   20  C   UNK N   1      27.904  19.015   6.704  0.00  0.00     0.001 C 
HETATM   21  C   UNK N   1      28.651  18.619   5.439  0.00  0.00     0.001 C 
HETATM   22  C   UNK N   1      27.670  17.996   4.455  0.00  0.00     0.016 C 
HETATM   23  C   UNK N   1      26.799  19.035   3.752  0.00  0.00     0.113 C 
ENDBRANCH   2  17
TORSDOF 3
ENDMDL
MODEL 5
REMARK VINA RESULT:      -6.7     14.562     17.235
REMARK  3 active torsions:
REMARK  status: ('A' for Active; 'I' for Inactive)
REMARK    1  A    between atoms: S_1  and  N_7 
REMARK    2  A    between atoms: S_1  and  C_15 
REMARK    3  A    between atoms: N_5  and  N_6 
REMARK       I    between atoms: N_6  and  C_14 
REMARK       I    between atoms: N_7  and  C_14 
ROOT
HETATM    1  O   UNK N   1      36.121  14.416  12.673  0.00  0.00    -0.245 OA
HETATM    2  N   UNK N   1      34.641  12.727  12.637  0.00  0.00    -0.270 N 
HETATM    3  N   UNK N   1      34.547  14.464  11.085  0.00  0.00    -0.231 N 
HETATM    4  C   UNK N   1      35.130  13.908  12.171  0.00  0.00     0.344 C 
HETATM    5  H   UNK N   1      33.850  12.347  12.191  0.00  0.00     0.185 HD
HETATM    6  H   UNK N   1      33.673  14.111  10.802  0.00  0.00     0.183 HD
ENDROOT
BRANCH   3   7
HETATM    7  S   UNK N   1      35.247  15.776  10.145  0.00  0.00     0.266 S 
HETATM    8  O   UNK N   1      35.235  16.957  11.127  0.00  0.00    -0.200 OA
HETATM    9  O   UNK N   1      36.749  15.457  10.145  0.00  0.00    -0.200 OA
BRANCH   7  10
HETATM   10  C   UNK N   1      34.728  16.348   8.526  0.00  0.00     0.080 A 
HETATM   11  C   UNK N   1      34.891  15.551   7.388  0.00  0.00     0.026 A 
HETATM   12  C   UNK N   1      34.368  15.973   6.159  0.00  0.00     0.008 A 
HETATM   13  C   UNK N   1      33.670  17.182   6.070  0.00  0.00    -0.062 A 
HETATM   14  C   UNK N   1      33.505  17.977   7.207  0.00  0.00     0.008 A 
HETATM   15  C   UNK N   1      33.089  17.618   4.773  0.00  0.00     0.048 C 
HETATM   16  C   UNK N   1      34.029  17.557   8.432  0.00  0.00     0.026 A 
ENDBRANCH   7  10
ENDBRANCH   3   7
BRANCH   2  17
HETATM   17  N   UNK N   1      35.188  12.020  13.709  0.00  0.00    -0.227 NA
HETATM   18  C   UNK N   1      36.260  11.157  13.212  0.00  0.00     0.113 C 
HETATM   19  C   UNK N   1      37.353  10.968  14.267  0.00  0.00     0.016 C 
HETATM   20  C   UNK N   1      36.837  10.602  15.661  0.00  0.00     0.001 C 
HETATM   21  C   UNK N   1      35.616   9.695  15.623  0.00  0.00     0.001 C 
HETATM   22  C   UNK N   1      34.360  10.552  15.547  0.00  0.00     0.016 C 
HETATM   23  C   UNK N   1      34.120  11.122  14.150  0.00  0.00     0.113 C 
ENDBRANCH   2  17
TORSDOF 3
ENDMDL
MODEL 6
REMARK VINA RESULT:      -6.7     11.749     12.825
REMARK  3 active torsions:
REMARK  status: ('A' for Active; 'I' for Inactive)
REMARK    1  A    between atoms: S_1  and  N_7 
REMARK    2  A    between atoms: S_1  and  C_15 
REMARK    3  A    between atoms: N_5  and  N_6 
REMARK       I    between atoms: N_6  and  C_14 
REMARK       I    between atoms: N_7  and  C_14 
ROOT
HETATM    1  O   UNK N   1      29.345  23.397  -5.573  0.00  0.00    -0.245 OA
HETATM    2  N   UNK N   1      27.279  24.086  -5.024  0.00  0.00    -0.270 N 
HETATM    3  N   UNK N   1      28.781  23.330  -3.410  0.00  0.00    -0.231 N 
HETATM    4  C   UNK N   1      28.497  23.569  -4.709  0.00  0.00     0.344 C 
HETATM    5  H   UNK N   1      26.634  24.223  -4.294  0.00  0.00     0.185 HD
HETATM    6  H   UNK N   1      28.035  23.339  -2.768  0.00  0.00     0.183 HD
ENDROOT
BRANCH   3   7
HETATM    7  S   UNK N   1      30.395  23.003  -2.789  0.00  0.00     0.266 S 
HETATM    8  O   UNK N   1      31.119  24.344  -2.969  0.00  0.00    -0.200 OA
HETATM    9  O   UNK N   1      30.203  23.016  -1.266  0.00  0.00    -0.200 OA
BRANCH   7  10
HETATM   10  C   UNK N   1      31.492  21.668  -3.270  0.00  0.00     0.080 A 
HETATM   11  C   UNK N   1      31.128  20.748  -4.259  0.00  0.00     0.026 A 
HETATM   12  C   UNK N   1      32.051  19.791  -4.698  0.00  0.00     0.008 A 
HETATM   13  C   UNK N   1      33.343  19.762  -4.160  0.00  0.00    -0.062 A 
HETATM   14  C   UNK N   1      33.707  20.682  -3.173  0.00  0.00     0.008 A 
HETATM   15  C   UNK N   1      34.334  18.766  -4.644  0.00  0.00     0.048 C 
HETATM   16  C   UNK N   1      32.785  21.634  -2.734  0.00  0.00     0.026 A 
ENDBRANCH   7  10
ENDBRANCH   3   7
BRANCH   2  17
HETATM   17  N   UNK N   1      26.885  24.435  -6.316  0.00  0.00    -0.227 NA
HETATM   18  C   UNK N   1      25.813  25.428  -6.236  0.00  0.00     0.113 C 
HETATM   19  C   UNK N   1      25.852  26.384  -7.431  0.00  0.00     0.016 C 
HETATM   20  C   UNK N   1      25.981  25.697  -8.793  0.00  0.00     0.001 C 
HETATM   21  C   UNK N   1      25.227  24.377  -8.867  0.00  0.00     0.001 C 
HETATM   22  C   UNK N   1      26.136  23.256  -8.382  0.00  0.00     0.016 C 
HETATM   23  C   UNK N   1      26.272  23.223  -6.861  0.00  0.00     0.113 C 
ENDBRANCH   2  17
TORSDOF 3
ENDMDL
MODEL 7
REMARK VINA RESULT:      -6.7     14.755     17.544
REMARK  3 active torsions:
REMARK  status: ('A' for Active; 'I' for Inactive)
REMARK    1  A    between atoms: S_1  and  N_7 
REMARK    2  A    between atoms: S_1  and  C_15 
REMARK    3  A    between atoms: N_5  and  N_6 
REMARK       I    between atoms: N_6  and  C_14 
REMARK       I    between atoms: N_7  and  C_14 
ROOT
HETATM    1  O   UNK N   1      34.663  14.233  12.510  0.00  0.00    -0.245 OA
HETATM    2  N   UNK N   1      35.749  12.300  12.869  0.00  0.00    -0.270 N 
HETATM    3  N   UNK N   1      35.816  13.371  10.799  0.00  0.00    -0.231 N 
HETATM    4  C   UNK N   1      35.355  13.328  12.069  0.00  0.00     0.344 C 
HETATM    5  H   UNK N   1      36.320  11.602  12.474  0.00  0.00     0.185 HD
HETATM    6  H   UNK N   1      36.243  12.562  10.438  0.00  0.00     0.183 HD
ENDROOT
BRANCH   3   7
HETATM    7  S   UNK N   1      35.703  14.778   9.749  0.00  0.00     0.266 S 
HETATM    8  O   UNK N   1      36.755  15.735  10.328  0.00  0.00    -0.200 OA
HETATM    9  O   UNK N   1      36.434  14.335   8.474  0.00  0.00    -0.200 OA
BRANCH   7  10
HETATM   10  C   UNK N   1      34.225  15.706   9.332  0.00  0.00     0.080 A 
HETATM   11  C   UNK N   1      34.301  17.026   8.874  0.00  0.00     0.026 A 
HETATM   12  C   UNK N   1      33.142  17.683   8.442  0.00  0.00     0.008 A 
HETATM   13  C   UNK N   1      31.911  17.017   8.453  0.00  0.00    -0.062 A 
HETATM   14  C   UNK N   1      31.836  15.699   8.909  0.00  0.00     0.008 A 
HETATM   15  C   UNK N   1      30.685  17.703   7.969  0.00  0.00     0.048 C 
HETATM   16  C   UNK N   1      32.992  15.045   9.342  0.00  0.00     0.026 A 
ENDBRANCH   7  10
ENDBRANCH   3   7
BRANCH   2  17
HETATM   17  N   UNK N   1      35.395  12.172  14.212  0.00  0.00    -0.227 NA
HETATM   18  C   UNK N   1      36.483  12.689  15.043  0.00  0.00     0.113 C 
HETATM   19  C   UNK N   1      35.949  13.289  16.345  0.00  0.00     0.016 C 
HETATM   20  C   UNK N   1      34.946  12.406  17.090  0.00  0.00     0.001 C 
HETATM   21  C   UNK N   1      35.266  10.922  16.983  0.00  0.00     0.001 C 
HETATM   22  C   UNK N   1      34.607  10.358  15.732  0.00  0.00     0.016 C 
HETATM   23  C   UNK N   1      35.355  10.729  14.453  0.00  0.00     0.113 C 
ENDBRANCH   2  17
TORSDOF 3
ENDMDL
MODEL 8
REMARK VINA RESULT:      -6.6     12.308     15.211
REMARK  3 active torsions:
REMARK  status: ('A' for Active; 'I' for Inactive)
REMARK    1  A    between atoms: S_1  and  N_7 
REMARK    2  A    between atoms: S_1  and  C_15 
REMARK    3  A    between atoms: N_5  and  N_6 
REMARK       I    between atoms: N_6  and  C_14 
REMARK       I    between atoms: N_7  and  C_14 
ROOT
HETATM    1  O   UNK N   1      33.475  15.377   9.994  0.00  0.00    -0.245 OA
HETATM    2  N   UNK N   1      35.524  14.456  10.045  0.00  0.00    -0.270 N 
HETATM    3  N   UNK N   1      34.911  15.978   8.389  0.00  0.00    -0.231 N 
HETATM    4  C   UNK N   1      34.578  15.255   9.481  0.00  0.00     0.344 C 
HETATM    5  H   UNK N   1      36.402  14.402   9.605  0.00  0.00     0.185 HD
HETATM    6  H   UNK N   1      35.745  15.746   7.922  0.00  0.00     0.183 HD
ENDROOT
BRANCH   3   7
HETATM    7  S   UNK N   1      33.952  17.306   7.746  0.00  0.00     0.266 S 
HETATM    8  O   UNK N   1      34.467  18.522   8.528  0.00  0.00    -0.200 OA
HETATM    9  O   UNK N   1      34.596  17.586   6.380  0.00  0.00    -0.200 OA
BRANCH   7  10
HETATM   10  C   UNK N   1      32.164  17.393   7.623  0.00  0.00     0.080 A 
HETATM   11  C   UNK N   1      31.393  17.967   8.641  0.00  0.00     0.026 A 
HETATM   12  C   UNK N   1      30.013  18.130   8.464  0.00  0.00     0.008 A 
HETATM   13  C   UNK N   1      29.407  17.735   7.266  0.00  0.00    -0.062 A 
HETATM   14  C   UNK N   1      30.177  17.165   6.250  0.00  0.00     0.008 A 
HETATM   15  C   UNK N   1      27.947  17.934   7.066  0.00  0.00     0.048 C 
HETATM   16  C   UNK N   1      31.552  17.000   6.427  0.00  0.00     0.026 A 
ENDBRANCH   7  10
ENDBRANCH   3   7
BRANCH   2  17
HETATM   17  N   UNK N   1      35.328  13.708  11.206  0.00  0.00    -0.227 NA
HETATM   18  C   UNK N   1      36.393  14.020  12.159  0.00  0.00     0.113 C 
HETATM   19  C   UNK N   1      35.897  13.901  13.602  0.00  0.00     0.016 C 
HETATM   20  C   UNK N   1      35.127  12.614  13.909  0.00  0.00     0.001 C 
HETATM   21  C   UNK N   1      35.672  11.404  13.164  0.00  0.00     0.001 C 
HETATM   22  C   UNK N   1      34.994  11.309  11.804  0.00  0.00     0.016 C 
HETATM   23  C   UNK N   1      35.545  12.319  10.798  0.00  0.00     0.113 C 
ENDBRANCH   2  17
TORSDOF 3
ENDMDL
MODEL 9
REMARK VINA RESULT:      -6.4     13.307     16.144
REMARK  3 active torsions:
REMARK  status: ('A' for Active; 'I' for Inactive)
REMARK    1  A    between atoms: S_1  and  N_7 
REMARK    2  A    between atoms: S_1  and  C_15 
REMARK    3  A    between atoms: N_5  and  N_6 
REMARK       I    between atoms: N_6  and  C_14 
REMARK       I    between atoms: N_7  and  C_14 
ROOT
HETATM    1  O   UNK N   1      34.133  14.392   9.400  0.00  0.00    -0.245 OA
HETATM    2  N   UNK N   1      33.503  16.548   9.404  0.00  0.00    -0.270 N 
HETATM    3  N   UNK N   1      34.579  15.588  11.236  0.00  0.00    -0.231 N 
HETATM    4  C   UNK N   1      34.050  15.454   9.999  0.00  0.00     0.344 C 
HETATM    5  H   UNK N   1      33.472  17.386   9.920  0.00  0.00     0.185 HD
HETATM    6  H   UNK N   1      34.365  16.406  11.740  0.00  0.00     0.183 HD
ENDROOT
BRANCH   3   7
HETATM    7  S   UNK N   1      35.623  14.399  12.005  0.00  0.00     0.266 S 
HETATM    8  O   UNK N   1      36.248  15.181  13.169  0.00  0.00    -0.200 OA
HETATM    9  O   UNK N   1      34.643  13.512  12.787  0.00  0.00    -0.200 OA
BRANCH   7  10
HETATM   10  C   UNK N   1      36.885  13.395  11.220  0.00  0.00     0.080 A 
HETATM   11  C   UNK N   1      37.028  12.037  11.527  0.00  0.00     0.026 A 
HETATM   12  C   UNK N   1      37.941  11.251  10.812  0.00  0.00     0.008 A 
HETATM   13  C   UNK N   1      38.700  11.818   9.782  0.00  0.00    -0.062 A 
HETATM   14  C   UNK N   1      38.556  13.173   9.474  0.00  0.00     0.008 A 
HETATM   15  C   UNK N   1      39.649  10.980   9.003  0.00  0.00     0.048 C 
HETATM   16  C   UNK N   1      37.647  13.957  10.189  0.00  0.00     0.026 A 
ENDBRANCH   7  10
ENDBRANCH   3   7
BRANCH   2  17
HETATM   17  N   UNK N   1      32.981  16.559   8.111  0.00  0.00    -0.227 NA
HETATM   18  C   UNK N   1      33.463  17.750   7.411  0.00  0.00     0.113 C 
HETATM   19  C   UNK N   1      33.612  17.490   5.911  0.00  0.00     0.016 C 
HETATM   20  C   UNK N   1      32.403  16.817   5.257  0.00  0.00     0.001 C 
HETATM   21  C   UNK N   1      31.077  17.273   5.848  0.00  0.00     0.001 C 
HETATM   22  C   UNK N   1      30.733  16.394   7.042  0.00  0.00     0.016 C 
HETATM   23  C   UNK N   1      31.541  16.751   8.288  0.00  0.00     0.113 C 
ENDBRANCH   2  17
TORSDOF 3
ENDMDL
