REMARK  3 active torsions:
REMARK  status: ('A' for Active; 'I' for Inactive)
REMARK    1  A    between atoms: S_1  and  N_7 
REMARK    2  A    between atoms: S_1  and  C_15 
REMARK    3  A    between atoms: N_5  and  N_6 
REMARK       I    between atoms: N_6  and  C_14 
REMARK       I    between atoms: N_7  and  C_14 
ROOT
HETATM    1  O   UNK N   1       4.616   0.328   0.008  0.00  0.00    -0.245 OA
HETATM    2  N   UNK N   1       6.743   0.897   0.454  0.00  0.00    -0.270 N 
HETATM    3  N   UNK N   1       6.101  -1.331   0.213  0.00  0.00    -0.231 N 
HETATM    4  C   UNK N   1       5.763  -0.023   0.243  0.00  0.00     0.344 C 
HETATM    5  H   UNK N   1       7.655   0.568   0.623  0.00  0.00     0.185 HD
HETATM    6  H   UNK N   1       6.991  -1.583   0.549  0.00  0.00     0.183 HD
ENDROOT
BRANCH   3   7
HETATM    7  S   UNK N   1       5.056  -2.614  -0.385  0.00  0.00     0.266 S 
HETATM    8  O   UNK N   1       5.255  -2.549  -1.906  0.00  0.00    -0.200 OA
HETATM    9  O   UNK N   1       5.846  -3.894  -0.077  0.00  0.00    -0.200 OA
BRANCH   7  10
HETATM   10  C   UNK N   1       3.315  -2.852  -0.025  0.00  0.00     0.080 A 
HETATM   11  C   UNK N   1       2.444  -1.764   0.103  0.00  0.00     0.026 A 
HETATM   12  C   UNK N   1       1.070  -1.984   0.264  0.00  0.00     0.008 A 
HETATM   13  C   UNK N   1       0.565  -3.289   0.282  0.00  0.00    -0.062 A 
HETATM   14  C   UNK N   1       1.434  -4.375   0.152  0.00  0.00     0.008 A 
HETATM   15  C   UNK N   1      -0.896  -3.524   0.424  0.00  0.00     0.048 C 
HETATM   16  C   UNK N   1       2.804  -4.155  -0.006  0.00  0.00     0.026 A 
ENDBRANCH   7  10
ENDBRANCH   3   7
BRANCH   2  17
HETATM   17  N   UNK N   1       6.538   2.277   0.447  0.00  0.00    -0.227 NA
HETATM   18  C   UNK N   1       5.942   2.664  -0.832  0.00  0.00     0.113 C 
HETATM   19  C   UNK N   1       5.023   3.877  -0.671  0.00  0.00     0.016 C 
HETATM   20  C   UNK N   1       5.630   5.036   0.123  0.00  0.00     0.001 C 
HETATM   21  C   UNK N   1       7.122   5.208  -0.123  0.00  0.00     0.001 C 
HETATM   22  C   UNK N   1       7.893   4.331   0.854  0.00  0.00     0.016 C 
HETATM   23  C   UNK N   1       7.882   2.856   0.457  0.00  0.00     0.113 C 
ENDBRANCH   2  17
TORSDOF 3
