REMARK  10 active torsions:
REMARK  status: ('A' for Active; 'I' for Inactive)
REMARK    1  A    between atoms: O_1  and  C_19 
REMARK    2  A    between atoms: O_2  and  C_20 
REMARK    3  A    between atoms: O_3  and  C_22 
REMARK    4  A    between atoms: N_4  and  C_5 
REMARK    5  A    between atoms: N_4  and  C_8 
REMARK    6  A    between atoms: C_5  and  C_6 
REMARK    7  A    between atoms: C_6  and  C_7 
REMARK    8  A    between atoms: C_7  and  C_11 
REMARK    9  A    between atoms: C_8  and  C_10 
REMARK   10  A    between atoms: C_10  and  C_12 
ROOT
HETATM    1  N   UNK N   1       6.143  -0.011  -0.982  0.00  0.00    -0.417 N 
HETATM    2  H   UNK N   1       7.019  -0.476  -1.224  0.00  0.00     0.153 HD
ENDROOT
BRANCH   1   3
HETATM    3  C   UNK N   1       5.009  -0.622  -0.307  0.00  0.00     0.072 C 
HETATM    4  C   UNK N   1       4.153  -1.445  -1.258  0.00  0.00     0.031 C 
BRANCH   3   5
HETATM    5  C   UNK N   1       5.443  -1.355   0.961  0.00  0.00     0.029 C 
BRANCH   5   6
HETATM    6  C   UNK N   1       5.800  -2.828   0.763  0.00  0.00     0.040 C 
BRANCH   6   7
HETATM    7  C   UNK N   1       7.209  -3.138   0.351  0.00  0.00    -0.058 A 
HETATM    8  C   UNK N   1       8.147  -2.139   0.043  0.00  0.00     0.010 A 
HETATM    9  C   UNK N   1       9.451  -2.492  -0.326  0.00  0.00     0.037 A 
HETATM   10  C   UNK N   1       9.823  -3.839  -0.382  0.00  0.00     0.065 A 
HETATM   11  C   UNK N   1       8.893  -4.833  -0.073  0.00  0.00     0.037 A 
HETATM   12  C   UNK N   1       7.591  -4.482   0.289  0.00  0.00     0.010 A 
BRANCH  10  13
HETATM   13  O   UNK N   1      11.074  -4.180  -0.731  0.00  0.00    -0.361 OA
HETATM   14  H   UNK N   1      11.305  -5.055  -0.974  0.00  0.00     0.217 HD
ENDBRANCH  10  13
ENDBRANCH   6   7
ENDBRANCH   5   6
ENDBRANCH   3   5
ENDBRANCH   1   3
BRANCH   1  15
HETATM   15  C   UNK N   1       5.808   1.383  -1.253  0.00  0.00     0.118 C 
BRANCH  15  16
HETATM   16  C   UNK N   1       5.713   2.202   0.035  0.00  0.00     0.058 C 
BRANCH  16  17
HETATM   17  C   UNK N   1       4.313   2.688   0.216  0.00  0.00    -0.054 A 
HETATM   18  C   UNK N   1       4.020   4.037  -0.003  0.00  0.00     0.046 A 
HETATM   19  C   UNK N   1       2.707   4.494   0.108  0.00  0.00     0.099 A 
HETATM   20  C   UNK N   1       1.674   3.607   0.443  0.00  0.00     0.098 A 
HETATM   21  C   UNK N   1       1.971   2.258   0.677  0.00  0.00     0.040 A 
HETATM   22  C   UNK N   1       3.284   1.801   0.561  0.00  0.00     0.010 A 
BRANCH  19  23
HETATM   23  O   UNK N   1       2.433   5.794  -0.120  0.00  0.00    -0.358 OA
HETATM   24  H   UNK N   1       3.120   6.411  -0.278  0.00  0.00     0.217 HD
ENDBRANCH  19  23
BRANCH  20  25
HETATM   25  O   UNK N   1       0.408   4.036   0.540  0.00  0.00    -0.358 OA
HETATM   26  H   UNK N   1       0.226   4.953   0.607  0.00  0.00     0.217 HD
ENDBRANCH  20  25
ENDBRANCH  16  17
ENDBRANCH  15  16
ENDBRANCH   1  15
TORSDOF 10
