MODEL 1
REMARK VINA RESULT:      -7.1      0.000      0.000
REMARK  10 active torsions:
REMARK  status: ('A' for Active; 'I' for Inactive)
REMARK    1  A    between atoms: O_1  and  C_19 
REMARK    2  A    between atoms: O_2  and  C_20 
REMARK    3  A    between atoms: O_3  and  C_22 
REMARK    4  A    between atoms: N_4  and  C_5 
REMARK    5  A    between atoms: N_4  and  C_8 
REMARK    6  A    between atoms: C_5  and  C_6 
REMARK    7  A    between atoms: C_6  and  C_7 
REMARK    8  A    between atoms: C_7  and  C_11 
REMARK    9  A    between atoms: C_8  and  C_10 
REMARK   10  A    between atoms: C_10  and  C_12 
ROOT
HETATM    1  N   UNK N   1      26.885  23.252  -6.429  0.00  0.00    -0.417 N 
HETATM    2  H   UNK N   1      26.677  22.705  -7.265  0.00  0.00     0.153 HD
ENDROOT
BRANCH   1   3
HETATM    3  C   UNK N   1      25.944  24.085  -5.696  0.00  0.00     0.072 C 
HETATM    4  C   UNK N   1      26.348  24.258  -4.240  0.00  0.00     0.031 C 
BRANCH   3   5
HETATM    5  C   UNK N   1      25.655  25.387  -6.440  0.00  0.00     0.029 C 
BRANCH   5   6
HETATM    6  C   UNK N   1      25.048  26.497  -5.583  0.00  0.00     0.040 C 
BRANCH   6   7
HETATM    7  C   UNK N   1      25.916  27.685  -5.291  0.00  0.00    -0.058 A 
HETATM    8  C   UNK N   1      26.946  28.103  -6.150  0.00  0.00     0.010 A 
HETATM    9  C   UNK N   1      27.716  29.226  -5.826  0.00  0.00     0.037 A 
HETATM   10  C   UNK N   1      27.457  29.938  -4.651  0.00  0.00     0.065 A 
HETATM   11  C   UNK N   1      26.432  29.527  -3.797  0.00  0.00     0.037 A 
HETATM   12  C   UNK N   1      25.668  28.403  -4.116  0.00  0.00     0.010 A 
BRANCH  10  13
HETATM   13  O   UNK N   1      28.192  31.019  -4.340  0.00  0.00    -0.361 OA
HETATM   14  H   UNK N   1      29.120  31.046  -4.466  0.00  0.00     0.217 HD
ENDBRANCH  10  13
ENDBRANCH   6   7
ENDBRANCH   5   6
ENDBRANCH   3   5
ENDBRANCH   1   3
BRANCH   1  15
HETATM   15  C   UNK N   1      28.178  23.337  -5.758  0.00  0.00     0.118 C 
BRANCH  15  16
HETATM   16  C   UNK N   1      29.087  22.165  -6.132  0.00  0.00     0.058 C 
BRANCH  16  17
HETATM   17  C   UNK N   1      30.085  21.940  -5.045  0.00  0.00    -0.054 A 
HETATM   18  C   UNK N   1      29.933  22.603  -3.824  0.00  0.00     0.046 A 
HETATM   19  C   UNK N   1      30.826  22.360  -2.781  0.00  0.00     0.099 A 
HETATM   20  C   UNK N   1      31.883  21.454  -2.949  0.00  0.00     0.098 A 
HETATM   21  C   UNK N   1      32.043  20.801  -4.179  0.00  0.00     0.040 A 
HETATM   22  C   UNK N   1      31.147  21.042  -5.220  0.00  0.00     0.010 A 
BRANCH  19  23
HETATM   23  O   UNK N   1      30.661  22.993  -1.602  0.00  0.00    -0.358 OA
HETATM   24  H   UNK N   1      30.718  22.526  -0.792  0.00  0.00     0.217 HD
ENDBRANCH  19  23
BRANCH  20  25
HETATM   25  O   UNK N   1      32.738  21.206  -1.948  0.00  0.00    -0.358 OA
HETATM   26  H   UNK N   1      33.098  21.914  -1.451  0.00  0.00     0.217 HD
ENDBRANCH  20  25
ENDBRANCH  16  17
ENDBRANCH  15  16
ENDBRANCH   1  15
TORSDOF 10
ENDMDL
MODEL 2
REMARK VINA RESULT:      -6.9      1.655      2.722
REMARK  10 active torsions:
REMARK  status: ('A' for Active; 'I' for Inactive)
REMARK    1  A    between atoms: O_1  and  C_19 
REMARK    2  A    between atoms: O_2  and  C_20 
REMARK    3  A    between atoms: O_3  and  C_22 
REMARK    4  A    between atoms: N_4  and  C_5 
REMARK    5  A    between atoms: N_4  and  C_8 
REMARK    6  A    between atoms: C_5  and  C_6 
REMARK    7  A    between atoms: C_6  and  C_7 
REMARK    8  A    between atoms: C_7  and  C_11 
REMARK    9  A    between atoms: C_8  and  C_10 
REMARK   10  A    between atoms: C_10  and  C_12 
ROOT
HETATM    1  N   UNK N   1      28.064  22.415  -8.270  0.00  0.00    -0.417 N 
HETATM    2  H   UNK N   1      28.733  22.860  -8.900  0.00  0.00     0.153 HD
ENDROOT
BRANCH   1   3
HETATM    3  C   UNK N   1      26.626  22.633  -8.259  0.00  0.00     0.072 C 
HETATM    4  C   UNK N   1      25.871  21.438  -7.698  0.00  0.00     0.031 C 
BRANCH   3   5
HETATM    5  C   UNK N   1      26.269  23.974  -7.620  0.00  0.00     0.029 C 
BRANCH   5   6
HETATM    6  C   UNK N   1      25.942  23.908  -6.128  0.00  0.00     0.040 C 
BRANCH   6   7
HETATM    7  C   UNK N   1      25.826  25.214  -5.398  0.00  0.00    -0.058 A 
HETATM    8  C   UNK N   1      25.164  26.329  -5.938  0.00  0.00     0.010 A 
HETATM    9  C   UNK N   1      25.081  27.518  -5.203  0.00  0.00     0.037 A 
HETATM   10  C   UNK N   1      25.651  27.596  -3.928  0.00  0.00     0.065 A 
HETATM   11  C   UNK N   1      26.306  26.487  -3.389  0.00  0.00     0.037 A 
HETATM   12  C   UNK N   1      26.395  25.303  -4.124  0.00  0.00     0.010 A 
BRANCH  10  13
HETATM   13  O   UNK N   1      25.569  28.733  -3.220  0.00  0.00    -0.361 OA
HETATM   14  H   UNK N   1      26.062  28.871  -2.435  0.00  0.00     0.217 HD
ENDBRANCH  10  13
ENDBRANCH   6   7
ENDBRANCH   5   6
ENDBRANCH   3   5
ENDBRANCH   1   3
BRANCH   1  15
HETATM   15  C   UNK N   1      28.381  21.452  -7.222  0.00  0.00     0.118 C 
BRANCH  15  16
HETATM   16  C   UNK N   1      29.863  21.491  -6.848  0.00  0.00     0.058 C 
BRANCH  16  17
HETATM   17  C   UNK N   1      30.006  21.877  -5.412  0.00  0.00    -0.054 A 
HETATM   18  C   UNK N   1      30.933  21.206  -4.610  0.00  0.00     0.046 A 
HETATM   19  C   UNK N   1      31.117  21.592  -3.282  0.00  0.00     0.099 A 
HETATM   20  C   UNK N   1      30.373  22.652  -2.743  0.00  0.00     0.098 A 
HETATM   21  C   UNK N   1      29.434  23.314  -3.545  0.00  0.00     0.040 A 
HETATM   22  C   UNK N   1      29.254  22.929  -4.873  0.00  0.00     0.010 A 
BRANCH  19  23
HETATM   23  O   UNK N   1      32.024  20.948  -2.521  0.00  0.00    -0.358 OA
HETATM   24  H   UNK N   1      32.476  21.392  -1.830  0.00  0.00     0.217 HD
ENDBRANCH  19  23
BRANCH  20  25
HETATM   25  O   UNK N   1      30.553  23.037  -1.472  0.00  0.00    -0.358 OA
HETATM   26  H   UNK N   1      30.722  22.399  -0.807  0.00  0.00     0.217 HD
ENDBRANCH  20  25
ENDBRANCH  16  17
ENDBRANCH  15  16
ENDBRANCH   1  15
TORSDOF 10
ENDMDL
MODEL 3
REMARK VINA RESULT:      -6.8      1.598      2.195
REMARK  10 active torsions:
REMARK  status: ('A' for Active; 'I' for Inactive)
REMARK    1  A    between atoms: O_1  and  C_19 
REMARK    2  A    between atoms: O_2  and  C_20 
REMARK    3  A    between atoms: O_3  and  C_22 
REMARK    4  A    between atoms: N_4  and  C_5 
REMARK    5  A    between atoms: N_4  and  C_8 
REMARK    6  A    between atoms: C_5  and  C_6 
REMARK    7  A    between atoms: C_6  and  C_7 
REMARK    8  A    between atoms: C_7  and  C_11 
REMARK    9  A    between atoms: C_8  and  C_10 
REMARK   10  A    between atoms: C_10  and  C_12 
ROOT
HETATM    1  N   UNK N   1      27.710  23.706  -7.952  0.00  0.00    -0.417 N 
HETATM    2  H   UNK N   1      28.539  24.163  -8.334  0.00  0.00     0.153 HD
ENDROOT
BRANCH   1   3
HETATM    3  C   UNK N   1      26.394  23.666  -8.572  0.00  0.00     0.072 C 
HETATM    4  C   UNK N   1      25.457  22.700  -7.862  0.00  0.00     0.031 C 
BRANCH   3   5
HETATM    5  C   UNK N   1      25.831  25.070  -8.777  0.00  0.00     0.029 C 
BRANCH   5   6
HETATM    6  C   UNK N   1      26.759  26.206  -8.346  0.00  0.00     0.040 C 
BRANCH   6   7
HETATM    7  C   UNK N   1      26.457  26.873  -7.037  0.00  0.00    -0.058 A 
HETATM    8  C   UNK N   1      27.239  27.918  -6.519  0.00  0.00     0.010 A 
HETATM    9  C   UNK N   1      26.900  28.507  -5.294  0.00  0.00     0.037 A 
HETATM   10  C   UNK N   1      25.778  28.061  -4.589  0.00  0.00     0.065 A 
HETATM   11  C   UNK N   1      24.997  27.025  -5.104  0.00  0.00     0.037 A 
HETATM   12  C   UNK N   1      25.338  26.433  -6.322  0.00  0.00     0.010 A 
BRANCH  10  13
HETATM   13  O   UNK N   1      25.447  28.628  -3.418  0.00  0.00    -0.361 OA
HETATM   14  H   UNK N   1      25.028  29.464  -3.367  0.00  0.00     0.217 HD
ENDBRANCH  10  13
ENDBRANCH   6   7
ENDBRANCH   5   6
ENDBRANCH   3   5
ENDBRANCH   1   3
BRANCH   1  15
HETATM   15  C   UNK N   1      27.635  22.980  -6.689  0.00  0.00     0.118 C 
BRANCH  15  16
HETATM   16  C   UNK N   1      28.070  23.851  -5.510  0.00  0.00     0.058 C 
BRANCH  16  17
HETATM   17  C   UNK N   1      29.133  23.146  -4.734  0.00  0.00    -0.054 A 
HETATM   18  C   UNK N   1      29.316  23.454  -3.383  0.00  0.00     0.046 A 
HETATM   19  C   UNK N   1      30.267  22.764  -2.631  0.00  0.00     0.099 A 
HETATM   20  C   UNK N   1      31.048  21.762  -3.224  0.00  0.00     0.098 A 
HETATM   21  C   UNK N   1      30.874  21.464  -4.582  0.00  0.00     0.040 A 
HETATM   22  C   UNK N   1      29.919  22.151  -5.332  0.00  0.00     0.010 A 
BRANCH  19  23
HETATM   23  O   UNK N   1      30.426  23.059  -1.325  0.00  0.00    -0.358 OA
HETATM   24  H   UNK N   1      29.774  22.822  -0.695  0.00  0.00     0.217 HD
ENDBRANCH  19  23
BRANCH  20  25
HETATM   25  O   UNK N   1      31.956  21.087  -2.506  0.00  0.00    -0.358 OA
HETATM   26  H   UNK N   1      32.808  20.921  -2.861  0.00  0.00     0.217 HD
ENDBRANCH  20  25
ENDBRANCH  16  17
ENDBRANCH  15  16
ENDBRANCH   1  15
TORSDOF 10
ENDMDL
MODEL 4
REMARK VINA RESULT:      -6.7      1.163      2.018
REMARK  10 active torsions:
REMARK  status: ('A' for Active; 'I' for Inactive)
REMARK    1  A    between atoms: O_1  and  C_19 
REMARK    2  A    between atoms: O_2  and  C_20 
REMARK    3  A    between atoms: O_3  and  C_22 
REMARK    4  A    between atoms: N_4  and  C_5 
REMARK    5  A    between atoms: N_4  and  C_8 
REMARK    6  A    between atoms: C_5  and  C_6 
REMARK    7  A    between atoms: C_6  and  C_7 
REMARK    8  A    between atoms: C_7  and  C_11 
REMARK    9  A    between atoms: C_8  and  C_10 
REMARK   10  A    between atoms: C_10  and  C_12 
ROOT
HETATM    1  N   UNK N   1      25.279  24.473  -5.526  0.00  0.00    -0.417 N 
HETATM    2  H   UNK N   1      24.273  24.527  -5.364  0.00  0.00     0.153 HD
ENDROOT
BRANCH   1   3
HETATM    3  C   UNK N   1      25.965  24.808  -6.764  0.00  0.00     0.072 C 
HETATM    4  C   UNK N   1      25.786  23.735  -7.826  0.00  0.00     0.031 C 
BRANCH   3   5
HETATM    5  C   UNK N   1      25.628  26.226  -7.222  0.00  0.00     0.029 C 
BRANCH   5   6
HETATM    6  C   UNK N   1      25.015  27.122  -6.146  0.00  0.00     0.040 C 
BRANCH   6   7
HETATM    7  C   UNK N   1      25.963  27.928  -5.309  0.00  0.00    -0.058 A 
HETATM    8  C   UNK N   1      25.761  28.155  -3.937  0.00  0.00     0.010 A 
HETATM    9  C   UNK N   1      26.688  28.908  -3.207  0.00  0.00     0.037 A 
HETATM   10  C   UNK N   1      27.821  29.430  -3.840  0.00  0.00     0.065 A 
HETATM   11  C   UNK N   1      28.026  29.202  -5.202  0.00  0.00     0.037 A 
HETATM   12  C   UNK N   1      27.098  28.456  -5.932  0.00  0.00     0.010 A 
BRANCH  10  13
HETATM   13  O   UNK N   1      28.715  30.148  -3.142  0.00  0.00    -0.361 OA
HETATM   14  H   UNK N   1      28.686  30.210  -2.207  0.00  0.00     0.217 HD
ENDBRANCH  10  13
ENDBRANCH   6   7
ENDBRANCH   5   6
ENDBRANCH   3   5
ENDBRANCH   1   3
BRANCH   1  15
HETATM   15  C   UNK N   1      26.283  24.045  -4.557  0.00  0.00     0.118 C 
BRANCH  15  16
HETATM   16  C   UNK N   1      27.662  24.623  -4.879  0.00  0.00     0.058 C 
BRANCH  16  17
HETATM   17  C   UNK N   1      28.720  23.676  -4.417  0.00  0.00    -0.054 A 
HETATM   18  C   UNK N   1      29.182  23.751  -3.099  0.00  0.00     0.046 A 
HETATM   19  C   UNK N   1      30.129  22.838  -2.638  0.00  0.00     0.099 A 
HETATM   20  C   UNK N   1      30.628  21.843  -3.491  0.00  0.00     0.098 A 
HETATM   21  C   UNK N   1      30.176  21.778  -4.815  0.00  0.00     0.040 A 
HETATM   22  C   UNK N   1      29.224  22.689  -5.274  0.00  0.00     0.010 A 
BRANCH  19  23
HETATM   23  O   UNK N   1      30.557  22.910  -1.362  0.00  0.00    -0.358 OA
HETATM   24  H   UNK N   1      29.949  22.911  -0.649  0.00  0.00     0.217 HD
ENDBRANCH  19  23
BRANCH  20  25
HETATM   25  O   UNK N   1      31.530  20.954  -3.051  0.00  0.00    -0.358 OA
HETATM   26  H   UNK N   1      32.392  20.937  -3.421  0.00  0.00     0.217 HD
ENDBRANCH  20  25
ENDBRANCH  16  17
ENDBRANCH  15  16
ENDBRANCH   1  15
TORSDOF 10
ENDMDL
MODEL 5
REMARK VINA RESULT:      -6.5     10.552     12.709
REMARK  10 active torsions:
REMARK  status: ('A' for Active; 'I' for Inactive)
REMARK    1  A    between atoms: O_1  and  C_19 
REMARK    2  A    between atoms: O_2  and  C_20 
REMARK    3  A    between atoms: O_3  and  C_22 
REMARK    4  A    between atoms: N_4  and  C_5 
REMARK    5  A    between atoms: N_4  and  C_8 
REMARK    6  A    between atoms: C_5  and  C_6 
REMARK    7  A    between atoms: C_6  and  C_7 
REMARK    8  A    between atoms: C_7  and  C_11 
REMARK    9  A    between atoms: C_8  and  C_10 
REMARK   10  A    between atoms: C_10  and  C_12 
ROOT
HETATM    1  N   UNK N   1      27.284  18.738   7.145  0.00  0.00    -0.417 N 
HETATM    2  H   UNK N   1      26.499  18.197   7.510  0.00  0.00     0.153 HD
ENDROOT
BRANCH   1   3
HETATM    3  C   UNK N   1      27.243  19.642   6.006  0.00  0.00     0.072 C 
HETATM    4  C   UNK N   1      27.749  21.032   6.361  0.00  0.00     0.031 C 
BRANCH   3   5
HETATM    5  C   UNK N   1      27.897  19.017   4.775  0.00  0.00     0.029 C 
BRANCH   5   6
HETATM    6  C   UNK N   1      26.932  18.314   3.821  0.00  0.00     0.040 C 
BRANCH   6   7
HETATM    7  C   UNK N   1      25.603  18.970   3.590  0.00  0.00    -0.058 A 
HETATM    8  C   UNK N   1      25.470  20.207   2.939  0.00  0.00     0.010 A 
HETATM    9  C   UNK N   1      24.200  20.764   2.744  0.00  0.00     0.037 A 
HETATM   10  C   UNK N   1      23.062  20.087   3.192  0.00  0.00     0.065 A 
HETATM   11  C   UNK N   1      23.191  18.855   3.837  0.00  0.00     0.037 A 
HETATM   12  C   UNK N   1      24.458  18.302   4.036  0.00  0.00     0.010 A 
BRANCH  10  13
HETATM   13  O   UNK N   1      21.842  20.616   3.003  0.00  0.00    -0.361 OA
HETATM   14  H   UNK N   1      21.057  20.154   3.218  0.00  0.00     0.217 HD
ENDBRANCH  10  13
ENDBRANCH   6   7
ENDBRANCH   5   6
ENDBRANCH   3   5
ENDBRANCH   1   3
BRANCH   1  15
HETATM   15  C   UNK N   1      28.644  18.742   7.675  0.00  0.00     0.118 C 
BRANCH  15  16
HETATM   16  C   UNK N   1      29.242  17.335   7.705  0.00  0.00     0.058 C 
BRANCH  16  17
HETATM   17  C   UNK N   1      30.706  17.408   7.421  0.00  0.00    -0.054 A 
HETATM   18  C   UNK N   1      31.605  17.550   8.482  0.00  0.00     0.046 A 
HETATM   19  C   UNK N   1      32.978  17.564   8.237  0.00  0.00     0.099 A 
HETATM   20  C   UNK N   1      33.466  17.439   6.928  0.00  0.00     0.098 A 
HETATM   21  C   UNK N   1      32.563  17.312   5.865  0.00  0.00     0.040 A 
HETATM   22  C   UNK N   1      31.190  17.294   6.111  0.00  0.00     0.010 A 
BRANCH  19  23
HETATM   23  O   UNK N   1      33.837  17.687   9.269  0.00  0.00    -0.358 OA
HETATM   24  H   UNK N   1      34.369  18.452   9.365  0.00  0.00     0.217 HD
ENDBRANCH  19  23
BRANCH  20  25
HETATM   25  O   UNK N   1      34.784  17.440   6.686  0.00  0.00    -0.358 OA
HETATM   26  H   UNK N   1      35.232  18.247   6.524  0.00  0.00     0.217 HD
ENDBRANCH  20  25
ENDBRANCH  16  17
ENDBRANCH  15  16
ENDBRANCH   1  15
TORSDOF 10
ENDMDL
MODEL 6
REMARK VINA RESULT:      -6.4      2.642      3.646
REMARK  10 active torsions:
REMARK  status: ('A' for Active; 'I' for Inactive)
REMARK    1  A    between atoms: O_1  and  C_19 
REMARK    2  A    between atoms: O_2  and  C_20 
REMARK    3  A    between atoms: O_3  and  C_22 
REMARK    4  A    between atoms: N_4  and  C_5 
REMARK    5  A    between atoms: N_4  and  C_8 
REMARK    6  A    between atoms: C_5  and  C_6 
REMARK    7  A    between atoms: C_6  and  C_7 
REMARK    8  A    between atoms: C_7  and  C_11 
REMARK    9  A    between atoms: C_8  and  C_10 
REMARK   10  A    between atoms: C_10  and  C_12 
ROOT
HETATM    1  N   UNK N   1      25.173  24.341  -8.965  0.00  0.00    -0.417 N 
HETATM    2  H   UNK N   1      24.162  24.435  -8.861  0.00  0.00     0.153 HD
ENDROOT
BRANCH   1   3
HETATM    3  C   UNK N   1      26.072  25.347  -9.508  0.00  0.00     0.072 C 
HETATM    4  C   UNK N   1      25.491  26.031 -10.736  0.00  0.00     0.031 C 
BRANCH   3   5
HETATM    5  C   UNK N   1      26.568  26.298  -8.420  0.00  0.00     0.029 C 
BRANCH   5   6
HETATM    6  C   UNK N   1      25.529  26.661  -7.360  0.00  0.00     0.040 C 
BRANCH   6   7
HETATM    7  C   UNK N   1      26.043  27.209  -6.061  0.00  0.00    -0.058 A 
HETATM    8  C   UNK N   1      27.394  27.534  -5.857  0.00  0.00     0.010 A 
HETATM    9  C   UNK N   1      27.812  28.051  -4.624  0.00  0.00     0.037 A 
HETATM   10  C   UNK N   1      26.883  28.251  -3.597  0.00  0.00     0.065 A 
HETATM   11  C   UNK N   1      25.540  27.931  -3.800  0.00  0.00     0.037 A 
HETATM   12  C   UNK N   1      25.124  27.410  -5.027  0.00  0.00     0.010 A 
BRANCH  10  13
HETATM   13  O   UNK N   1      27.280  28.751  -2.416  0.00  0.00    -0.361 OA
HETATM   14  H   UNK N   1      28.145  28.617  -2.081  0.00  0.00     0.217 HD
ENDBRANCH  10  13
ENDBRANCH   6   7
ENDBRANCH   5   6
ENDBRANCH   3   5
ENDBRANCH   1   3
BRANCH   1  15
HETATM   15  C   UNK N   1      25.970  23.176  -8.598  0.00  0.00     0.118 C 
BRANCH  15  16
HETATM   16  C   UNK N   1      25.648  22.695  -7.182  0.00  0.00     0.058 C 
BRANCH  16  17
HETATM   17  C   UNK N   1      26.615  23.298  -6.218  0.00  0.00    -0.054 A 
HETATM   18  C   UNK N   1      26.151  23.784  -4.992  0.00  0.00     0.046 A 
HETATM   19  C   UNK N   1      27.050  24.299  -4.059  0.00  0.00     0.099 A 
HETATM   20  C   UNK N   1      28.423  24.336  -4.343  0.00  0.00     0.098 A 
HETATM   21  C   UNK N   1      28.885  23.862  -5.577  0.00  0.00     0.040 A 
HETATM   22  C   UNK N   1      27.985  23.343  -6.508  0.00  0.00     0.010 A 
BRANCH  19  23
HETATM   23  O   UNK N   1      26.594  24.751  -2.874  0.00  0.00    -0.358 OA
HETATM   24  H   UNK N   1      25.733  25.112  -2.795  0.00  0.00     0.217 HD
ENDBRANCH  19  23
BRANCH  20  25
HETATM   25  O   UNK N   1      29.295  24.818  -3.446  0.00  0.00    -0.358 OA
HETATM   26  H   UNK N   1      30.109  24.378  -3.298  0.00  0.00     0.217 HD
ENDBRANCH  20  25
ENDBRANCH  16  17
ENDBRANCH  15  16
ENDBRANCH   1  15
TORSDOF 10
ENDMDL
MODEL 7
REMARK VINA RESULT:      -6.3     22.309     26.401
REMARK  10 active torsions:
REMARK  status: ('A' for Active; 'I' for Inactive)
REMARK    1  A    between atoms: O_1  and  C_19 
REMARK    2  A    between atoms: O_2  and  C_20 
REMARK    3  A    between atoms: O_3  and  C_22 
REMARK    4  A    between atoms: N_4  and  C_5 
REMARK    5  A    between atoms: N_4  and  C_8 
REMARK    6  A    between atoms: C_5  and  C_6 
REMARK    7  A    between atoms: C_6  and  C_7 
REMARK    8  A    between atoms: C_7  and  C_11 
REMARK    9  A    between atoms: C_8  and  C_10 
REMARK   10  A    between atoms: C_10  and  C_12 
ROOT
HETATM    1  N   UNK N   1      36.809  14.450  14.002  0.00  0.00    -0.417 N 
HETATM    2  H   UNK N   1      37.154  15.410  13.983  0.00  0.00     0.153 HD
ENDROOT
BRANCH   1   3
HETATM    3  C   UNK N   1      36.253  13.719  12.874  0.00  0.00     0.072 C 
HETATM    4  C   UNK N   1      35.976  14.627  11.685  0.00  0.00     0.031 C 
BRANCH   3   5
HETATM    5  C   UNK N   1      37.081  12.476  12.552  0.00  0.00     0.029 C 
BRANCH   5   6
HETATM    6  C   UNK N   1      36.285  11.172  12.487  0.00  0.00     0.040 C 
BRANCH   6   7
HETATM    7  C   UNK N   1      36.523  10.174  13.581  0.00  0.00    -0.058 A 
HETATM    8  C   UNK N   1      35.532   9.281  14.022  0.00  0.00     0.010 A 
HETATM    9  C   UNK N   1      35.818   8.365  15.042  0.00  0.00     0.037 A 
HETATM   10  C   UNK N   1      37.092   8.334  15.619  0.00  0.00     0.065 A 
HETATM   11  C   UNK N   1      38.079   9.218  15.179  0.00  0.00     0.037 A 
HETATM   12  C   UNK N   1      37.792  10.136  14.167  0.00  0.00     0.010 A 
BRANCH  10  13
HETATM   13  O   UNK N   1      37.370   7.453  16.594  0.00  0.00    -0.361 OA
HETATM   14  H   UNK N   1      38.025   6.790  16.497  0.00  0.00     0.217 HD
ENDBRANCH  10  13
ENDBRANCH   6   7
ENDBRANCH   5   6
ENDBRANCH   3   5
ENDBRANCH   1   3
BRANCH   1  15
HETATM   15  C   UNK N   1      36.786  13.569  15.165  0.00  0.00     0.118 C 
BRANCH  15  16
HETATM   16  C   UNK N   1      35.365  13.365  15.691  0.00  0.00     0.058 C 
BRANCH  16  17
HETATM   17  C   UNK N   1      35.418  12.718  17.036  0.00  0.00    -0.054 A 
HETATM   18  C   UNK N   1      35.076  13.460  18.170  0.00  0.00     0.046 A 
HETATM   19  C   UNK N   1      35.068  12.853  19.425  0.00  0.00     0.099 A 
HETATM   20  C   UNK N   1      35.405  11.499  19.560  0.00  0.00     0.098 A 
HETATM   21  C   UNK N   1      35.762  10.760  18.425  0.00  0.00     0.040 A 
HETATM   22  C   UNK N   1      35.766  11.366  17.169  0.00  0.00     0.010 A 
BRANCH  19  23
HETATM   23  O   UNK N   1      34.722  13.574  20.511  0.00  0.00    -0.358 OA
HETATM   24  H   UNK N   1      34.262  13.179  21.225  0.00  0.00     0.217 HD
ENDBRANCH  19  23
BRANCH  20  25
HETATM   25  O   UNK N   1      35.388  10.906  20.762  0.00  0.00    -0.358 OA
HETATM   26  H   UNK N   1      34.572  10.664  21.156  0.00  0.00     0.217 HD
ENDBRANCH  20  25
ENDBRANCH  16  17
ENDBRANCH  15  16
ENDBRANCH   1  15
TORSDOF 10
ENDMDL
MODEL 8
REMARK VINA RESULT:      -6.2     15.572     17.046
REMARK  10 active torsions:
REMARK  status: ('A' for Active; 'I' for Inactive)
REMARK    1  A    between atoms: O_1  and  C_19 
REMARK    2  A    between atoms: O_2  and  C_20 
REMARK    3  A    between atoms: O_3  and  C_22 
REMARK    4  A    between atoms: N_4  and  C_5 
REMARK    5  A    between atoms: N_4  and  C_8 
REMARK    6  A    between atoms: C_5  and  C_6 
REMARK    7  A    between atoms: C_6  and  C_7 
REMARK    8  A    between atoms: C_7  and  C_11 
REMARK    9  A    between atoms: C_8  and  C_10 
REMARK   10  A    between atoms: C_10  and  C_12 
ROOT
HETATM    1  N   UNK N   1      20.641  15.655   8.644  0.00  0.00    -0.417 N 
HETATM    2  H   UNK N   1      20.527  15.666   9.658  0.00  0.00     0.153 HD
ENDROOT
BRANCH   1   3
HETATM    3  C   UNK N   1      20.331  16.750   7.738  0.00  0.00     0.072 C 
HETATM    4  C   UNK N   1      19.850  17.988   8.480  0.00  0.00     0.031 C 
BRANCH   3   5
HETATM    5  C   UNK N   1      21.470  16.997   6.751  0.00  0.00     0.029 C 
BRANCH   5   6
HETATM    6  C   UNK N   1      21.359  18.294   5.951  0.00  0.00     0.040 C 
BRANCH   6   7
HETATM    7  C   UNK N   1      21.005  18.171   4.498  0.00  0.00    -0.058 A 
HETATM    8  C   UNK N   1      20.684  16.943   3.897  0.00  0.00     0.010 A 
HETATM    9  C   UNK N   1      20.353  16.894   2.537  0.00  0.00     0.037 A 
HETATM   10  C   UNK N   1      20.335  18.068   1.778  0.00  0.00     0.065 A 
HETATM   11  C   UNK N   1      20.650  19.290   2.374  0.00  0.00     0.037 A 
HETATM   12  C   UNK N   1      20.987  19.339   3.729  0.00  0.00     0.010 A 
BRANCH  10  13
HETATM   13  O   UNK N   1      20.012  18.025   0.475  0.00  0.00    -0.361 OA
HETATM   14  H   UNK N   1      20.030  18.786  -0.071  0.00  0.00     0.217 HD
ENDBRANCH  10  13
ENDBRANCH   6   7
ENDBRANCH   5   6
ENDBRANCH   3   5
ENDBRANCH   1   3
BRANCH   1  15
HETATM   15  C   UNK N   1      21.143  14.540   7.848  0.00  0.00     0.118 C 
BRANCH  15  16
HETATM   16  C   UNK N   1      20.910  13.199   8.545  0.00  0.00     0.058 C 
BRANCH  16  17
HETATM   17  C   UNK N   1      22.079  12.877   9.415  0.00  0.00    -0.054 A 
HETATM   18  C   UNK N   1      21.862  12.389  10.706  0.00  0.00     0.046 A 
HETATM   19  C   UNK N   1      22.945  12.032  11.510  0.00  0.00     0.099 A 
HETATM   20  C   UNK N   1      24.256  12.162  11.031  0.00  0.00     0.098 A 
HETATM   21  C   UNK N   1      24.473  12.665   9.742  0.00  0.00     0.040 A 
HETATM   22  C   UNK N   1      23.390  13.018   8.937  0.00  0.00     0.010 A 
BRANCH  19  23
HETATM   23  O   UNK N   1      22.723  11.548  12.748  0.00  0.00    -0.358 OA
HETATM   24  H   UNK N   1      22.873  10.645  12.947  0.00  0.00     0.217 HD
ENDBRANCH  19  23
BRANCH  20  25
HETATM   25  O   UNK N   1      25.301  11.810  11.792  0.00  0.00    -0.358 OA
HETATM   26  H   UNK N   1      25.934  11.199  11.469  0.00  0.00     0.217 HD
ENDBRANCH  20  25
ENDBRANCH  16  17
ENDBRANCH  15  16
ENDBRANCH   1  15
TORSDOF 10
ENDMDL
MODEL 9
REMARK VINA RESULT:      -6.2     11.657     14.255
REMARK  10 active torsions:
REMARK  status: ('A' for Active; 'I' for Inactive)
REMARK    1  A    between atoms: O_1  and  C_19 
REMARK    2  A    between atoms: O_2  and  C_20 
REMARK    3  A    between atoms: O_3  and  C_22 
REMARK    4  A    between atoms: N_4  and  C_5 
REMARK    5  A    between atoms: N_4  and  C_8 
REMARK    6  A    between atoms: C_5  and  C_6 
REMARK    7  A    between atoms: C_6  and  C_7 
REMARK    8  A    between atoms: C_7  and  C_11 
REMARK    9  A    between atoms: C_8  and  C_10 
REMARK   10  A    between atoms: C_10  and  C_12 
ROOT
HETATM    1  N   UNK N   1      31.568  15.545   4.174  0.00  0.00    -0.417 N 
HETATM    2  H   UNK N   1      31.395  14.538   4.162  0.00  0.00     0.153 HD
ENDROOT
BRANCH   1   3
HETATM    3  C   UNK N   1      32.681  16.213   4.830  0.00  0.00     0.072 C 
HETATM    4  C   UNK N   1      32.833  17.655   4.371  0.00  0.00     0.031 C 
BRANCH   3   5
HETATM    5  C   UNK N   1      32.630  16.025   6.345  0.00  0.00     0.029 C 
BRANCH   5   6
HETATM    6  C   UNK N   1      32.406  17.307   7.146  0.00  0.00     0.040 C 
BRANCH   6   7
HETATM    7  C   UNK N   1      31.036  17.521   7.721  0.00  0.00    -0.058 A 
HETATM    8  C   UNK N   1      29.885  16.923   7.182  0.00  0.00     0.010 A 
HETATM    9  C   UNK N   1      28.635  17.153   7.769  0.00  0.00     0.037 A 
HETATM   10  C   UNK N   1      28.532  17.973   8.898  0.00  0.00     0.065 A 
HETATM   11  C   UNK N   1      29.675  18.565   9.437  0.00  0.00     0.037 A 
HETATM   12  C   UNK N   1      30.921  18.341   8.847  0.00  0.00     0.010 A 
BRANCH  10  13
HETATM   13  O   UNK N   1      27.335  18.192   9.466  0.00  0.00    -0.361 OA
HETATM   14  H   UNK N   1      26.711  17.505   9.600  0.00  0.00     0.217 HD
ENDBRANCH  10  13
ENDBRANCH   6   7
ENDBRANCH   5   6
ENDBRANCH   3   5
ENDBRANCH   1   3
BRANCH   1  15
HETATM   15  C   UNK N   1      30.742  16.565   3.538  0.00  0.00     0.118 C 
BRANCH  15  16
HETATM   16  C   UNK N   1      29.333  16.049   3.244  0.00  0.00     0.058 C 
BRANCH  16  17
HETATM   17  C   UNK N   1      28.331  16.909   3.941  0.00  0.00    -0.054 A 
HETATM   18  C   UNK N   1      28.602  18.267   4.129  0.00  0.00     0.046 A 
HETATM   19  C   UNK N   1      27.652  19.094   4.728  0.00  0.00     0.099 A 
HETATM   20  C   UNK N   1      26.422  18.570   5.149  0.00  0.00     0.098 A 
HETATM   21  C   UNK N   1      26.156  17.205   4.974  0.00  0.00     0.040 A 
HETATM   22  C   UNK N   1      27.105  16.380   4.370  0.00  0.00     0.010 A 
BRANCH  19  23
HETATM   23  O   UNK N   1      27.919  20.405   4.890  0.00  0.00    -0.358 OA
HETATM   24  H   UNK N   1      28.648  20.689   5.405  0.00  0.00     0.217 HD
ENDBRANCH  19  23
BRANCH  20  25
HETATM   25  O   UNK N   1      25.499  19.360   5.715  0.00  0.00    -0.358 OA
HETATM   26  H   UNK N   1      25.042  19.075   6.481  0.00  0.00     0.217 HD
ENDBRANCH  20  25
ENDBRANCH  16  17
ENDBRANCH  15  16
ENDBRANCH   1  15
TORSDOF 10
ENDMDL
