REMARK  2 active torsions:
REMARK  status: ('A' for Active; 'I' for Inactive)
REMARK    1  A    between atoms: O_2  and  C_11 
REMARK    2  A    between atoms: C_8  and  C_10 
ROOT
HETATM    1 Cl   UNK N   1       1.601  -4.194   0.673  0.00  0.00    -0.084 Cl
HETATM    2  O   UNK N   1       2.018   3.750  -0.846  0.00  0.00    -0.268 OA
HETATM    3  N   UNK N   1       1.427   1.628  -0.642  0.00  0.00    -0.323 N 
HETATM    4  N   UNK N   1       4.319   1.574   0.290  0.00  0.00    -0.355 N 
ATOM      5  HN  UNK N   1       5.262   1.942   0.173  1.00  0.00     0.162 HD
HETATM    6  C   UNK N   1       2.799  -0.365   0.091  0.00  0.00     0.020 A 
HETATM    7  C   UNK N   1       4.164   0.308   0.072  0.00  0.00     0.053 C 
HETATM    8  C   UNK N   1       1.553   0.279  -0.212  0.00  0.00     0.047 A 
HETATM    9  C   UNK N   1       3.309   2.517   0.680  0.00  0.00     0.312 C 
HETATM   10  C   UNK N   1       2.759  -1.746   0.364  0.00  0.00     0.040 A 
HETATM   11  C   UNK N   1       0.371  -0.476  -0.217  0.00  0.00     0.032 A 
HETATM   12  C   UNK N   1       2.236   2.658  -0.339  0.00  0.00     0.271 C 
HETATM   13  C   UNK N   1       1.573  -2.472   0.359  0.00  0.00     0.035 A 
HETATM   14  C   UNK N   1       0.375  -1.836   0.075  0.00  0.00     0.026 A 
HETATM   15  H   UNK N   1       0.661   1.831  -1.227  0.00  0.00     0.169 HD
ENDROOT
BRANCH   7  16
HETATM   16  C   UNK N   1       5.436  -0.485  -0.103  0.00  0.00    -0.009 A 
HETATM   17  C   UNK N   1       6.676   0.177  -0.009  0.00  0.00     0.014 A 
HETATM   18  C   UNK N   1       7.877  -0.526  -0.133  0.00  0.00     0.001 A 
HETATM   19  C   UNK N   1       7.861  -1.904  -0.352  0.00  0.00     0.000 A 
HETATM   20  C   UNK N   1       6.643  -2.577  -0.458  0.00  0.00     0.001 A 
HETATM   21  C   UNK N   1       5.442  -1.872  -0.337  0.00  0.00     0.014 A 
ENDBRANCH   7  16
BRANCH   9  22
HETATM   22  O   UNK N   1       3.921   3.750   0.917  0.00  0.00    -0.368 OA
HETATM   23  H   UNK N   1       4.875   3.810   1.082  0.00  0.00     0.212 HD
ENDBRANCH   9  22
TORSDOF 2
