MODEL 1
REMARK VINA RESULT:      -7.0      0.000      0.000
REMARK  2 active torsions:
REMARK  status: ('A' for Active; 'I' for Inactive)
REMARK    1  A    between atoms: O_2  and  C_11 
REMARK    2  A    between atoms: C_8  and  C_10 
ROOT
HETATM    1 Cl   UNK N   1      20.521  10.795   5.117  0.00  0.00    -0.084 Cl
HETATM    2  O   UNK N   1      21.222  18.654   6.940  0.00  0.00    -0.268 OA
HETATM    3  N   UNK N   1      21.143  16.674   5.958  0.00  0.00    -0.323 N 
HETATM    4  N   UNK N   1      20.776  15.946   8.886  0.00  0.00    -0.355 N 
ATOM      5  HN  UNK N   1      21.026  16.144   9.854  1.00  0.00     0.162 HD
HETATM    6  C   UNK N   1      20.898  14.375   6.981  0.00  0.00     0.020 A 
HETATM    7  C   UNK N   1      21.097  14.776   8.436  0.00  0.00     0.053 C 
HETATM    8  C   UNK N   1      20.892  15.277   5.866  0.00  0.00     0.047 A 
HETATM    9  C   UNK N   1      20.105  16.996   8.172  0.00  0.00     0.312 C 
HETATM   10  C   UNK N   1      20.773  13.001   6.697  0.00  0.00     0.040 A 
HETATM   11  C   UNK N   1      20.760  14.766   4.567  0.00  0.00     0.032 A 
HETATM   12  C   UNK N   1      20.886  17.480   7.003  0.00  0.00     0.271 C 
HETATM   13  C   UNK N   1      20.636  12.519   5.400  0.00  0.00     0.035 A 
HETATM   14  C   UNK N   1      20.622  13.402   4.332  0.00  0.00     0.026 A 
HETATM   15  H   UNK N   1      21.550  17.098   5.168  0.00  0.00     0.169 HD
ENDROOT
BRANCH   7  16
HETATM   16  C   UNK N   1      21.590  13.792   9.469  0.00  0.00    -0.009 A 
HETATM   17  C   UNK N   1      20.665  13.205  10.354  0.00  0.00     0.014 A 
HETATM   18  C   UNK N   1      21.076  12.265  11.303  0.00  0.00     0.001 A 
HETATM   19  C   UNK N   1      22.418  11.895  11.384  0.00  0.00     0.000 A 
HETATM   20  C   UNK N   1      23.352  12.472  10.523  0.00  0.00     0.001 A 
HETATM   21  C   UNK N   1      22.941  13.415   9.576  0.00  0.00     0.014 A 
ENDBRANCH   7  16
BRANCH   9  22
HETATM   22  O   UNK N   1      19.854  18.045   9.058  0.00  0.00    -0.368 OA
HETATM   23  H   UNK N   1      20.304  18.899   8.961  0.00  0.00     0.212 HD
ENDBRANCH   9  22
TORSDOF 2
ENDMDL
MODEL 2
REMARK VINA RESULT:      -6.9     17.906     18.891
REMARK  2 active torsions:
REMARK  status: ('A' for Active; 'I' for Inactive)
REMARK    1  A    between atoms: O_2  and  C_11 
REMARK    2  A    between atoms: C_8  and  C_10 
ROOT
HETATM    1 Cl   UNK N   1      30.686  23.324  -4.113  0.00  0.00    -0.084 Cl
HETATM    2  O   UNK N   1      25.423  21.149  -9.872  0.00  0.00    -0.268 OA
HETATM    3  N   UNK N   1      27.177  21.409  -8.549  0.00  0.00    -0.323 N 
HETATM    4  N   UNK N   1      25.240  23.476  -7.449  0.00  0.00    -0.355 N 
ATOM      5  HN  UNK N   1      24.516  24.163  -7.653  1.00  0.00     0.162 HD
HETATM    6  C   UNK N   1      27.543  23.048  -6.659  0.00  0.00     0.020 A 
HETATM    7  C   UNK N   1      26.328  23.929  -6.913  0.00  0.00     0.053 C 
HETATM    8  C   UNK N   1      27.889  21.876  -7.411  0.00  0.00     0.047 A 
HETATM    9  C   UNK N   1      24.941  22.113  -7.785  0.00  0.00     0.312 C 
HETATM   10  C   UNK N   1      28.436  23.450  -5.647  0.00  0.00     0.040 A 
HETATM   11  C   UNK N   1      29.074  21.189  -7.108  0.00  0.00     0.032 A 
HETATM   12  C   UNK N   1      25.867  21.561  -8.809  0.00  0.00     0.271 C 
HETATM   13  C   UNK N   1      29.602  22.748  -5.362  0.00  0.00     0.035 A 
HETATM   14  C   UNK N   1      29.920  21.611  -6.088  0.00  0.00     0.026 A 
HETATM   15  H   UNK N   1      27.702  20.920  -9.223  0.00  0.00     0.169 HD
ENDROOT
BRANCH   7  16
HETATM   16  C   UNK N   1      26.283  25.368  -6.461  0.00  0.00    -0.009 A 
HETATM   17  C   UNK N   1      25.479  25.716  -5.358  0.00  0.00     0.014 A 
HETATM   18  C   UNK N   1      25.435  27.030  -4.887  0.00  0.00     0.001 A 
HETATM   19  C   UNK N   1      26.195  28.022  -5.509  0.00  0.00     0.000 A 
HETATM   20  C   UNK N   1      26.991  27.699  -6.610  0.00  0.00     0.001 A 
HETATM   21  C   UNK N   1      27.031  26.384  -7.082  0.00  0.00     0.014 A 
ENDBRANCH   7  16
BRANCH   9  22
HETATM   22  O   UNK N   1      23.620  22.047  -8.236  0.00  0.00    -0.368 OA
HETATM   23  H   UNK N   1      23.276  21.244  -8.657  0.00  0.00     0.212 HD
ENDBRANCH   9  22
TORSDOF 2
ENDMDL
MODEL 3
REMARK VINA RESULT:      -6.8      9.417     10.182
REMARK  2 active torsions:
REMARK  status: ('A' for Active; 'I' for Inactive)
REMARK    1  A    between atoms: O_2  and  C_11 
REMARK    2  A    between atoms: C_8  and  C_10 
ROOT
HETATM    1 Cl   UNK N   1      31.977  14.567   3.341  0.00  0.00    -0.084 Cl
HETATM    2  O   UNK N   1      27.339  19.905   7.288  0.00  0.00    -0.268 OA
HETATM    3  N   UNK N   1      28.385  18.663   5.787  0.00  0.00    -0.323 N 
HETATM    4  N   UNK N   1      29.703  17.773   8.377  0.00  0.00    -0.355 N 
ATOM      5  HN  UNK N   1      30.043  18.041   9.299  1.00  0.00     0.162 HD
HETATM    6  C   UNK N   1      30.255  16.990   6.098  0.00  0.00     0.020 A 
HETATM    7  C   UNK N   1      30.586  17.320   7.546  0.00  0.00     0.053 C 
HETATM    8  C   UNK N   1      29.214  17.604   5.325  0.00  0.00     0.047 A 
HETATM    9  C   UNK N   1      28.296  17.937   8.142  0.00  0.00     0.312 C 
HETATM   10  C   UNK N   1      31.076  16.054   5.441  0.00  0.00     0.040 A 
HETATM   11  C   UNK N   1      29.056  17.250   3.977  0.00  0.00     0.032 A 
HETATM   12  C   UNK N   1      28.009  18.909   7.054  0.00  0.00     0.271 C 
HETATM   13  C   UNK N   1      30.896  15.714   4.104  0.00  0.00     0.035 A 
HETATM   14  C   UNK N   1      29.880  16.307   3.372  0.00  0.00     0.026 A 
HETATM   15  H   UNK N   1      28.049  19.286   5.102  0.00  0.00     0.169 HD
ENDROOT
BRANCH   7  16
HETATM   16  C   UNK N   1      31.949  17.041   8.131  0.00  0.00    -0.009 A 
HETATM   17  C   UNK N   1      32.967  18.003   7.988  0.00  0.00     0.014 A 
HETATM   18  C   UNK N   1      34.233  17.797   8.542  0.00  0.00     0.001 A 
HETATM   19  C   UNK N   1      34.504  16.626   9.251  0.00  0.00     0.000 A 
HETATM   20  C   UNK N   1      33.512  15.656   9.396  0.00  0.00     0.001 A 
HETATM   21  C   UNK N   1      32.247  15.862   8.838  0.00  0.00     0.014 A 
ENDBRANCH   7  16
BRANCH   9  22
HETATM   22  O   UNK N   1      27.692  18.347   9.333  0.00  0.00    -0.368 OA
HETATM   23  H   UNK N   1      27.453  17.704  10.018  0.00  0.00     0.212 HD
ENDBRANCH   9  22
TORSDOF 2
ENDMDL
MODEL 4
REMARK VINA RESULT:      -6.7      4.094      5.639
REMARK  2 active torsions:
REMARK  status: ('A' for Active; 'I' for Inactive)
REMARK    1  A    between atoms: O_2  and  C_11 
REMARK    2  A    between atoms: C_8  and  C_10 
ROOT
HETATM    1 Cl   UNK N   1      19.782  13.119   1.688  0.00  0.00    -0.084 Cl
HETATM    2  O   UNK N   1      20.778  21.145   1.258  0.00  0.00    -0.268 OA
HETATM    3  N   UNK N   1      20.424  18.998   0.860  0.00  0.00    -0.323 N 
HETATM    4  N   UNK N   1      21.199  18.980   3.798  0.00  0.00    -0.355 N 
ATOM      5  HN  UNK N   1      21.782  19.382   4.531  1.00  0.00     0.162 HD
HETATM    6  C   UNK N   1      20.672  17.010   2.401  0.00  0.00     0.020 A 
HETATM    7  C   UNK N   1      21.380  17.724   3.544  0.00  0.00     0.053 C 
HETATM    8  C   UNK N   1      20.216  17.631   1.191  0.00  0.00     0.047 A 
HETATM    9  C   UNK N   1      20.268  19.868   3.162  0.00  0.00     0.312 C 
HETATM   10  C   UNK N   1      20.509  15.615   2.508  0.00  0.00     0.040 A 
HETATM   11  C   UNK N   1      19.632  16.842   0.190  0.00  0.00     0.032 A 
HETATM   12  C   UNK N   1      20.539  20.033   1.709  0.00  0.00     0.271 C 
HETATM   13  C   UNK N   1      19.922  14.855   1.503  0.00  0.00     0.035 A 
HETATM   14  C   UNK N   1      19.475  15.469   0.344  0.00  0.00     0.026 A 
HETATM   15  H   UNK N   1      20.490  19.210  -0.100  0.00  0.00     0.169 HD
ENDROOT
BRANCH   7  16
HETATM   16  C   UNK N   1      22.262  16.981   4.518  0.00  0.00    -0.009 A 
HETATM   17  C   UNK N   1      21.727  16.575   5.756  0.00  0.00     0.014 A 
HETATM   18  C   UNK N   1      22.500  15.857   6.672  0.00  0.00     0.001 A 
HETATM   19  C   UNK N   1      23.822  15.531   6.367  0.00  0.00     0.000 A 
HETATM   20  C   UNK N   1      24.374  15.932   5.149  0.00  0.00     0.001 A 
HETATM   21  C   UNK N   1      23.600  16.653   4.235  0.00  0.00     0.014 A 
ENDBRANCH   7  16
BRANCH   9  22
HETATM   22  O   UNK N   1      20.320  21.104   3.811  0.00  0.00    -0.368 OA
HETATM   23  H   UNK N   1      20.259  21.933   3.311  0.00  0.00     0.212 HD
ENDBRANCH   9  22
TORSDOF 2
ENDMDL
MODEL 5
REMARK VINA RESULT:      -6.6      8.774     10.028
REMARK  2 active torsions:
REMARK  status: ('A' for Active; 'I' for Inactive)
REMARK    1  A    between atoms: O_2  and  C_11 
REMARK    2  A    between atoms: C_8  and  C_10 
ROOT
HETATM    1 Cl   UNK N   1      33.035  17.207   3.446  0.00  0.00    -0.084 Cl
HETATM    2  O   UNK N   1      29.304  17.107  10.633  0.00  0.00    -0.268 OA
HETATM    3  N   UNK N   1      30.752  17.062   8.962  0.00  0.00    -0.323 N 
HETATM    4  N   UNK N   1      28.095  17.216   7.495  0.00  0.00    -0.355 N 
ATOM      5  HN  UNK N   1      27.115  16.936   7.469  1.00  0.00     0.162 HD
HETATM    6  C   UNK N   1      30.337  17.053   6.468  0.00  0.00     0.020 A 
HETATM    7  C   UNK N   1      28.834  16.817   6.511  0.00  0.00     0.053 C 
HETATM    8  C   UNK N   1      31.187  17.193   7.615  0.00  0.00     0.047 A 
HETATM    9  C   UNK N   1      28.502  18.011   8.619  0.00  0.00     0.312 C 
HETATM   10  C   UNK N   1      30.956  17.071   5.203  0.00  0.00     0.040 A 
HETATM   11  C   UNK N   1      32.570  17.346   7.433  0.00  0.00     0.032 A 
HETATM   12  C   UNK N   1      29.531  17.336   9.453  0.00  0.00     0.271 C 
HETATM   13  C   UNK N   1      32.328  17.230   5.048  0.00  0.00     0.035 A 
HETATM   14  C   UNK N   1      33.137  17.375   6.163  0.00  0.00     0.026 A 
HETATM   15  H   UNK N   1      31.420  16.734   9.607  0.00  0.00     0.169 HD
ENDROOT
BRANCH   7  16
HETATM   16  C   UNK N   1      28.097  16.188   5.354  0.00  0.00    -0.009 A 
HETATM   17  C   UNK N   1      28.088  14.785   5.227  0.00  0.00     0.014 A 
HETATM   18  C   UNK N   1      27.391  14.162   4.189  0.00  0.00     0.001 A 
HETATM   19  C   UNK N   1      26.689  14.930   3.259  0.00  0.00     0.000 A 
HETATM   20  C   UNK N   1      26.694  16.322   3.361  0.00  0.00     0.001 A 
HETATM   21  C   UNK N   1      27.394  16.944   4.399  0.00  0.00     0.014 A 
ENDBRANCH   7  16
BRANCH   9  22
HETATM   22  O   UNK N   1      27.373  18.308   9.385  0.00  0.00    -0.368 OA
HETATM   23  H   UNK N   1      26.570  17.768   9.321  0.00  0.00     0.212 HD
ENDBRANCH   9  22
TORSDOF 2
ENDMDL
MODEL 6
REMARK VINA RESULT:      -6.5     15.385     17.208
REMARK  2 active torsions:
REMARK  status: ('A' for Active; 'I' for Inactive)
REMARK    1  A    between atoms: O_2  and  C_11 
REMARK    2  A    between atoms: C_8  and  C_10 
ROOT
HETATM    1 Cl   UNK N   1      37.642  16.014  15.814  0.00  0.00    -0.084 Cl
HETATM    2  O   UNK N   1      33.645   9.905  12.308  0.00  0.00    -0.268 OA
HETATM    3  N   UNK N   1      34.522  11.854  12.879  0.00  0.00    -0.323 N 
HETATM    4  N   UNK N   1      35.421  10.061  15.162  0.00  0.00    -0.355 N 
ATOM      5  HN  UNK N   1      35.191   9.284  15.780  1.00  0.00     0.162 HD
HETATM    6  C   UNK N   1      35.857  12.483  14.932  0.00  0.00     0.020 A 
HETATM    7  C   UNK N   1      35.622  11.207  15.728  0.00  0.00     0.053 C 
HETATM    8  C   UNK N   1      35.363  12.737  13.609  0.00  0.00     0.047 A 
HETATM    9  C   UNK N   1      35.487   9.762  13.759  0.00  0.00     0.312 C 
HETATM   10  C   UNK N   1      36.560  13.525  15.567  0.00  0.00     0.040 A 
HETATM   11  C   UNK N   1      35.602  13.984  13.013  0.00  0.00     0.032 A 
HETATM   12  C   UNK N   1      34.477  10.513  12.968  0.00  0.00     0.271 C 
HETATM   13  C   UNK N   1      36.790  14.751  14.952  0.00  0.00     0.035 A 
HETATM   14  C   UNK N   1      36.317  14.980  13.670  0.00  0.00     0.026 A 
HETATM   15  H   UNK N   1      33.903  12.271  12.236  0.00  0.00     0.169 HD
ENDROOT
BRANCH   7  16
HETATM   16  C   UNK N   1      35.711  11.185  17.234  0.00  0.00    -0.009 A 
HETATM   17  C   UNK N   1      36.390  10.124  17.866  0.00  0.00     0.014 A 
HETATM   18  C   UNK N   1      36.523  10.083  19.256  0.00  0.00     0.001 A 
HETATM   19  C   UNK N   1      35.981  11.102  20.041  0.00  0.00     0.000 A 
HETATM   20  C   UNK N   1      35.296  12.157  19.435  0.00  0.00     0.001 A 
HETATM   21  C   UNK N   1      35.161  12.195  18.044  0.00  0.00     0.014 A 
ENDBRANCH   7  16
BRANCH   9  22
HETATM   22  O   UNK N   1      35.314   8.387  13.589  0.00  0.00    -0.368 OA
HETATM   23  H   UNK N   1      35.967   7.858  13.104  0.00  0.00     0.212 HD
ENDBRANCH   9  22
TORSDOF 2
ENDMDL
MODEL 7
REMARK VINA RESULT:      -6.5     11.050     12.411
REMARK  2 active torsions:
REMARK  status: ('A' for Active; 'I' for Inactive)
REMARK    1  A    between atoms: O_2  and  C_11 
REMARK    2  A    between atoms: C_8  and  C_10 
ROOT
HETATM    1 Cl   UNK N   1      31.964  12.158   5.288  0.00  0.00    -0.084 Cl
HETATM    2  O   UNK N   1      35.481  17.562  10.188  0.00  0.00    -0.268 OA
HETATM    3  N   UNK N   1      34.787  15.742   9.141  0.00  0.00    -0.323 N 
HETATM    4  N   UNK N   1      33.152  17.916   7.785  0.00  0.00    -0.355 N 
ATOM      5  HN  UNK N   1      32.651  18.797   7.887  1.00  0.00     0.162 HD
HETATM    6  C   UNK N   1      33.031  15.488   7.340  0.00  0.00     0.020 A 
HETATM    7  C   UNK N   1      32.450  16.892   7.420  0.00  0.00     0.053 C 
HETATM    8  C   UNK N   1      34.128  14.998   8.123  0.00  0.00     0.047 A 
HETATM    9  C   UNK N   1      34.561  17.947   8.062  0.00  0.00     0.312 C 
HETATM   10  C   UNK N   1      32.400  14.573   6.474  0.00  0.00     0.040 A 
HETATM   11  C   UNK N   1      34.524  13.659   7.993  0.00  0.00     0.032 A 
HETATM   12  C   UNK N   1      34.938  17.076   9.205  0.00  0.00     0.271 C 
HETATM   13  C   UNK N   1      32.816  13.251   6.358  0.00  0.00     0.035 A 
HETATM   14  C   UNK N   1      33.884  12.793   7.113  0.00  0.00     0.026 A 
HETATM   15  H   UNK N   1      35.176  15.221   9.880  0.00  0.00     0.169 HD
ENDROOT
BRANCH   7  16
HETATM   16  C   UNK N   1      31.038  17.193   6.979  0.00  0.00    -0.009 A 
HETATM   17  C   UNK N   1      30.041  17.389   7.954  0.00  0.00     0.014 A 
HETATM   18  C   UNK N   1      28.730  17.701   7.588  0.00  0.00     0.001 A 
HETATM   19  C   UNK N   1      28.390  17.823   6.240  0.00  0.00     0.000 A 
HETATM   20  C   UNK N   1      29.361  17.623   5.258  0.00  0.00     0.001 A 
HETATM   21  C   UNK N   1      30.673  17.308   5.625  0.00  0.00     0.014 A 
ENDBRANCH   7  16
BRANCH   9  22
HETATM   22  O   UNK N   1      34.934  19.270   8.313  0.00  0.00    -0.368 OA
HETATM   23  H   UNK N   1      34.763  19.682   9.174  0.00  0.00     0.212 HD
ENDBRANCH   9  22
TORSDOF 2
ENDMDL
MODEL 8
REMARK VINA RESULT:      -6.4     14.510     15.978
REMARK  2 active torsions:
REMARK  status: ('A' for Active; 'I' for Inactive)
REMARK    1  A    between atoms: O_2  and  C_11 
REMARK    2  A    between atoms: C_8  and  C_10 
ROOT
HETATM    1 Cl   UNK N   1      38.763   9.062  10.797  0.00  0.00    -0.084 Cl
HETATM    2  O   UNK N   1      36.239  16.755  10.614  0.00  0.00    -0.268 OA
HETATM    3  N   UNK N   1      37.353  14.852  10.430  0.00  0.00    -0.323 N 
HETATM    4  N   UNK N   1      34.908  14.005  12.024  0.00  0.00    -0.355 N 
ATOM      5  HN  UNK N   1      34.226  14.252  12.740  1.00  0.00     0.162 HD
HETATM    6  C   UNK N   1      36.807  12.567  11.363  0.00  0.00     0.020 A 
HETATM    7  C   UNK N   1      35.665  12.987  12.278  0.00  0.00     0.053 C 
HETATM    8  C   UNK N   1      37.543  13.445  10.500  0.00  0.00     0.047 A 
HETATM    9  C   UNK N   1      34.922  14.824  10.845  0.00  0.00     0.312 C 
HETATM   10  C   UNK N   1      37.219  11.221  11.414  0.00  0.00     0.040 A 
HETATM   11  C   UNK N   1      38.616  12.937   9.753  0.00  0.00     0.032 A 
HETATM   12  C   UNK N   1      36.215  15.532  10.657  0.00  0.00     0.271 C 
HETATM   13  C   UNK N   1      38.282  10.739  10.658  0.00  0.00     0.035 A 
HETATM   14  C   UNK N   1      38.979  11.596   9.821  0.00  0.00     0.026 A 
HETATM   15  H   UNK N   1      38.142  15.389  10.187  0.00  0.00     0.169 HD
ENDROOT
BRANCH   7  16
HETATM   16  C   UNK N   1      35.282  12.174  13.491  0.00  0.00    -0.009 A 
HETATM   17  C   UNK N   1      35.977  12.375  14.699  0.00  0.00     0.014 A 
HETATM   18  C   UNK N   1      35.632  11.667  15.853  0.00  0.00     0.001 A 
HETATM   19  C   UNK N   1      34.585  10.745  15.821  0.00  0.00     0.000 A 
HETATM   20  C   UNK N   1      33.890  10.524  14.631  0.00  0.00     0.001 A 
HETATM   21  C   UNK N   1      34.238  11.231  13.476  0.00  0.00     0.014 A 
ENDBRANCH   7  16
BRANCH   9  22
HETATM   22  O   UNK N   1      33.872  15.741  10.928  0.00  0.00    -0.368 OA
HETATM   23  H   UNK N   1      33.178  15.768  10.251  0.00  0.00     0.212 HD
ENDBRANCH   9  22
TORSDOF 2
ENDMDL
MODEL 9
REMARK VINA RESULT:      -6.4     11.412     12.709
REMARK  2 active torsions:
REMARK  status: ('A' for Active; 'I' for Inactive)
REMARK    1  A    between atoms: O_2  and  C_11 
REMARK    2  A    between atoms: C_8  and  C_10 
ROOT
HETATM    1 Cl   UNK N   1      28.137  16.962   6.163  0.00  0.00    -0.084 Cl
HETATM    2  O   UNK N   1      35.334  17.605   9.821  0.00  0.00    -0.268 OA
HETATM    3  N   UNK N   1      33.259  17.860   9.098  0.00  0.00    -0.323 N 
HETATM    4  N   UNK N   1      34.234  15.526   7.415  0.00  0.00    -0.355 N 
ATOM      5  HN  UNK N   1      35.012  15.099   6.915  1.00  0.00     0.162 HD
HETATM    6  C   UNK N   1      32.017  16.610   7.286  0.00  0.00     0.020 A 
HETATM    7  C   UNK N   1      33.205  15.858   6.704  0.00  0.00     0.053 C 
HETATM    8  C   UNK N   1      32.068  17.501   8.410  0.00  0.00     0.047 A 
HETATM    9  C   UNK N   1      34.399  15.690   8.832  0.00  0.00     0.312 C 
HETATM   10  C   UNK N   1      30.777  16.473   6.631  0.00  0.00     0.040 A 
HETATM   11  C   UNK N   1      30.906  18.179   8.805  0.00  0.00     0.032 A 
HETATM   12  C   UNK N   1      34.369  17.117   9.248  0.00  0.00     0.271 C 
HETATM   13  C   UNK N   1      29.637  17.152   7.045  0.00  0.00     0.035 A 
HETATM   14  C   UNK N   1      29.698  18.001   8.139  0.00  0.00     0.026 A 
HETATM   15  H   UNK N   1      33.271  18.754   9.513  0.00  0.00     0.169 HD
ENDROOT
BRANCH   7  16
HETATM   16  C   UNK N   1      33.210  15.364   5.278  0.00  0.00    -0.009 A 
HETATM   17  C   UNK N   1      32.946  14.003   5.023  0.00  0.00     0.014 A 
HETATM   18  C   UNK N   1      32.909  13.512   3.715  0.00  0.00     0.001 A 
HETATM   19  C   UNK N   1      33.134  14.371   2.639  0.00  0.00     0.000 A 
HETATM   20  C   UNK N   1      33.406  15.720   2.871  0.00  0.00     0.001 A 
HETATM   21  C   UNK N   1      33.446  16.210   4.180  0.00  0.00     0.014 A 
ENDBRANCH   7  16
BRANCH   9  22
HETATM   22  O   UNK N   1      35.607  15.098   9.210  0.00  0.00    -0.368 OA
HETATM   23  H   UNK N   1      35.620  14.264   9.705  0.00  0.00     0.212 HD
ENDBRANCH   9  22
TORSDOF 2
ENDMDL
