REMARK  6 active torsions:
REMARK  status: ('A' for Active; 'I' for Inactive)
REMARK    1  A    between atoms: O_2  and  C_20 
REMARK    2  A    between atoms: O_3  and  C_21 
REMARK    3  A    between atoms: N_4  and  C_16 
REMARK    4  A    between atoms: C_5  and  C_6 
REMARK    5  A    between atoms: C_6  and  C_7 
REMARK    6  A    between atoms: C_16  and  C_19 
ROOT
HETATM    1  O   UNK N   1       4.824   3.779   0.179  0.00  0.00    -0.292 OA
HETATM    2  C   UNK N   1       5.464   1.460   0.421  0.00  0.00     0.065 A 
HETATM    3  C   UNK N   1       4.553   0.207   0.303  0.00  0.00     0.052 A 
HETATM    4  C   UNK N   1       4.509   2.599   0.189  0.00  0.00     0.164 A 
HETATM    5  C   UNK N   1       3.181   0.752   0.136  0.00  0.00    -0.041 A 
HETATM    6  C   UNK N   1       3.161   2.110   0.087  0.00  0.00     0.019 A 
HETATM    7  C   UNK N   1       2.016   0.003   0.058  0.00  0.00     0.047 A 
HETATM    8  C   UNK N   1       1.960   2.816  -0.003  0.00  0.00     0.055 A 
HETATM    9  C   UNK N   1       0.779   0.670  -0.045  0.00  0.00     0.102 A 
HETATM   10  C   UNK N   1       0.748   2.085  -0.057  0.00  0.00     0.102 A 
ENDROOT
BRANCH   2  11
HETATM   11  C   UNK N   1       6.597   1.328  -0.592  0.00  0.00     0.017 C 
BRANCH  11  12
HETATM   12  C   UNK N   1       7.831   0.591  -0.018  0.00  0.00    -0.011 C 
HETATM   13  C   UNK N   1       8.611  -0.133  -1.109  0.00  0.00     0.024 C 
HETATM   14  C   UNK N   1       7.854  -1.374  -1.602  0.00  0.00     0.117 C 
HETATM   15  N   UNK N   1       7.439  -2.268  -0.506  0.00  0.00    -0.408 N 
HETATM   16  C   UNK N   1       6.816  -1.631   0.655  0.00  0.00     0.117 C 
HETATM   17  C   UNK N   1       7.570  -0.390   1.130  0.00  0.00     0.024 C 
BRANCH  15  18
HETATM   18  C   UNK N   1       8.346  -3.366  -0.154  0.00  0.00     0.155 C 
BRANCH  18  19
HETATM   19  C   UNK N   1       9.777  -2.969   0.038  0.00  0.00    -0.041 A 
HETATM   20  C   UNK N   1      10.153  -2.066   1.040  0.00  0.00     0.009 A 
HETATM   21  C   UNK N   1      11.498  -1.728   1.209  0.00  0.00     0.001 A 
HETATM   22  C   UNK N   1      12.472  -2.303   0.387  0.00  0.00     0.000 A 
HETATM   23  C   UNK N   1      12.100  -3.218  -0.602  0.00  0.00     0.001 A 
HETATM   24  C   UNK N   1      10.754  -3.549  -0.776  0.00  0.00     0.009 A 
ENDBRANCH  18  19
ENDBRANCH  15  18
ENDBRANCH  11  12
ENDBRANCH   2  11
BRANCH   9  25
HETATM   25  O   UNK N   1      -0.382  -0.025  -0.116  0.00  0.00    -0.353 OA
HETATM   26  C   UNK N   1      -0.437  -1.401  -0.126  0.00  0.00     0.210 C 
ENDBRANCH   9  25
BRANCH  10  27
HETATM   27  O   UNK N   1      -0.453   2.714  -0.108  0.00  0.00    -0.353 OA
HETATM   28  C   UNK N   1      -0.593   4.080  -0.017  0.00  0.00     0.210 C 
ENDBRANCH  10  27
TORSDOF 6
