MODEL 1
REMARK VINA RESULT:      -7.2      0.000      0.000
REMARK  6 active torsions:
REMARK  status: ('A' for Active; 'I' for Inactive)
REMARK    1  A    between atoms: O_2  and  C_20 
REMARK    2  A    between atoms: O_3  and  C_21 
REMARK    3  A    between atoms: N_4  and  C_16 
REMARK    4  A    between atoms: C_5  and  C_6 
REMARK    5  A    between atoms: C_6  and  C_7 
REMARK    6  A    between atoms: C_16  and  C_19 
ROOT
HETATM    1  O   UNK N   1      34.914  16.482   6.006  0.00  0.00    -0.292 OA
HETATM    2  C   UNK N   1      34.077  17.679   7.933  0.00  0.00     0.065 A 
HETATM    3  C   UNK N   1      32.597  17.851   8.373  0.00  0.00     0.052 A 
HETATM    4  C   UNK N   1      33.965  16.861   6.675  0.00  0.00     0.164 A 
HETATM    5  C   UNK N   1      31.803  17.228   7.282  0.00  0.00    -0.041 A 
HETATM    6  C   UNK N   1      32.585  16.682   6.314  0.00  0.00     0.019 A 
HETATM    7  C   UNK N   1      30.419  17.202   7.201  0.00  0.00     0.047 A 
HETATM    8  C   UNK N   1      32.029  16.103   5.172  0.00  0.00     0.055 A 
HETATM    9  C   UNK N   1      29.810  16.619   6.072  0.00  0.00     0.102 A 
HETATM   10  C   UNK N   1      30.619  16.083   5.042  0.00  0.00     0.102 A 
ENDROOT
BRANCH   2  11
HETATM   11  C   UNK N   1      34.847  17.030   9.079  0.00  0.00     0.017 C 
BRANCH  11  12
HETATM   12  C   UNK N   1      34.648  15.497   9.142  0.00  0.00    -0.011 C 
HETATM   13  C   UNK N   1      33.937  15.075  10.422  0.00  0.00     0.024 C 
HETATM   14  C   UNK N   1      34.863  15.202  11.640  0.00  0.00     0.117 C 
HETATM   15  N   UNK N   1      36.157  14.521  11.453  0.00  0.00    -0.408 N 
HETATM   16  C   UNK N   1      36.838  14.753  10.178  0.00  0.00     0.117 C 
HETATM   17  C   UNK N   1      35.905  14.636   8.974  0.00  0.00     0.024 C 
BRANCH  15  18
HETATM   18  C   UNK N   1      36.263  13.138  11.929  0.00  0.00     0.155 C 
BRANCH  18  19
HETATM   19  C   UNK N   1      35.764  12.907  13.322  0.00  0.00    -0.041 A 
HETATM   20  C   UNK N   1      34.705  12.027  13.579  0.00  0.00     0.009 A 
HETATM   21  C   UNK N   1      34.272  11.817  14.890  0.00  0.00     0.001 A 
HETATM   22  C   UNK N   1      34.905  12.474  15.950  0.00  0.00     0.000 A 
HETATM   23  C   UNK N   1      35.974  13.339  15.696  0.00  0.00     0.001 A 
HETATM   24  C   UNK N   1      36.401  13.555  14.384  0.00  0.00     0.009 A 
ENDBRANCH  18  19
ENDBRANCH  15  18
ENDBRANCH  11  12
ENDBRANCH   2  11
BRANCH   9  25
HETATM   25  O   UNK N   1      28.461  16.580   5.952  0.00  0.00    -0.353 OA
HETATM   26  C   UNK N   1      27.674  17.710   5.922  0.00  0.00     0.210 C 
ENDBRANCH   9  25
BRANCH  10  27
HETATM   27  O   UNK N   1      30.020  15.568   3.939  0.00  0.00    -0.353 OA
HETATM   28  C   UNK N   1      29.886  16.265   2.760  0.00  0.00     0.210 C 
ENDBRANCH  10  27
TORSDOF 6
ENDMDL
MODEL 2
REMARK VINA RESULT:      -7.2      3.205      9.191
REMARK  6 active torsions:
REMARK  status: ('A' for Active; 'I' for Inactive)
REMARK    1  A    between atoms: O_2  and  C_20 
REMARK    2  A    between atoms: O_3  and  C_21 
REMARK    3  A    between atoms: N_4  and  C_16 
REMARK    4  A    between atoms: C_5  and  C_6 
REMARK    5  A    between atoms: C_6  and  C_7 
REMARK    6  A    between atoms: C_16  and  C_19 
ROOT
HETATM    1  O   UNK N   1      35.464  17.196  10.290  0.00  0.00    -0.292 OA
HETATM    2  C   UNK N   1      35.371  15.564   8.508  0.00  0.00     0.065 A 
HETATM    3  C   UNK N   1      35.140  14.033   8.635  0.00  0.00     0.052 A 
HETATM    4  C   UNK N   1      35.338  16.033   9.937  0.00  0.00     0.164 A 
HETATM    5  C   UNK N   1      35.117  13.774  10.098  0.00  0.00    -0.041 A 
HETATM    6  C   UNK N   1      35.244  14.911  10.831  0.00  0.00     0.019 A 
HETATM    7  C   UNK N   1      35.004  12.529  10.698  0.00  0.00     0.047 A 
HETATM    8  C   UNK N   1      35.309  14.873  12.225  0.00  0.00     0.055 A 
HETATM    9  C   UNK N   1      35.052  12.440  12.104  0.00  0.00     0.102 A 
HETATM   10  C   UNK N   1      35.225  13.616  12.872  0.00  0.00     0.102 A 
ENDROOT
BRANCH   2  11
HETATM   11  C   UNK N   1      34.291  16.139   7.596  0.00  0.00     0.017 C 
BRANCH  11  12
HETATM   12  C   UNK N   1      32.915  15.461   7.796  0.00  0.00    -0.011 C 
HETATM   13  C   UNK N   1      32.194  15.252   6.470  0.00  0.00     0.024 C 
HETATM   14  C   UNK N   1      31.676  16.581   5.904  0.00  0.00     0.117 C 
HETATM   15  N   UNK N   1      30.876  17.348   6.875  0.00  0.00    -0.408 N 
HETATM   16  C   UNK N   1      31.428  17.468   8.225  0.00  0.00     0.117 C 
HETATM   17  C   UNK N   1      31.951  16.142   8.775  0.00  0.00     0.024 C 
BRANCH  15  18
HETATM   18  C   UNK N   1      29.422  17.151   6.853  0.00  0.00     0.155 C 
BRANCH  18  19
HETATM   19  C   UNK N   1      28.631  18.327   6.371  0.00  0.00    -0.041 A 
HETATM   20  C   UNK N   1      28.038  19.223   7.270  0.00  0.00     0.009 A 
HETATM   21  C   UNK N   1      27.321  20.322   6.792  0.00  0.00     0.001 A 
HETATM   22  C   UNK N   1      27.207  20.538   5.415  0.00  0.00     0.000 A 
HETATM   23  C   UNK N   1      27.812  19.654   4.517  0.00  0.00     0.001 A 
HETATM   24  C   UNK N   1      28.522  18.550   4.996  0.00  0.00     0.009 A 
ENDBRANCH  18  19
ENDBRANCH  15  18
ENDBRANCH  11  12
ENDBRANCH   2  11
BRANCH   9  25
HETATM   25  O   UNK N   1      34.953  11.242  12.729  0.00  0.00    -0.353 OA
HETATM   26  C   UNK N   1      33.865  10.409  12.593  0.00  0.00     0.210 C 
ENDBRANCH   9  25
BRANCH  10  27
HETATM   27  O   UNK N   1      35.318  13.510  14.222  0.00  0.00    -0.353 OA
HETATM   28  C   UNK N   1      36.491  13.706  14.914  0.00  0.00     0.210 C 
ENDBRANCH  10  27
TORSDOF 6
ENDMDL
MODEL 3
REMARK VINA RESULT:      -6.8      6.122     10.720
REMARK  6 active torsions:
REMARK  status: ('A' for Active; 'I' for Inactive)
REMARK    1  A    between atoms: O_2  and  C_20 
REMARK    2  A    between atoms: O_3  and  C_21 
REMARK    3  A    between atoms: N_4  and  C_16 
REMARK    4  A    between atoms: C_5  and  C_6 
REMARK    5  A    between atoms: C_6  and  C_7 
REMARK    6  A    between atoms: C_16  and  C_19 
ROOT
HETATM    1  O   UNK N   1      24.491  14.916   6.163  0.00  0.00    -0.292 OA
HETATM    2  C   UNK N   1      23.642  16.849   4.985  0.00  0.00     0.065 A 
HETATM    3  C   UNK N   1      22.310  17.607   5.242  0.00  0.00     0.052 A 
HETATM    4  C   UNK N   1      23.609  15.747   6.008  0.00  0.00     0.164 A 
HETATM    5  C   UNK N   1      21.615  16.807   6.283  0.00  0.00    -0.041 A 
HETATM    6  C   UNK N   1      22.351  15.745   6.703  0.00  0.00     0.019 A 
HETATM    7  C   UNK N   1      20.347  17.060   6.786  0.00  0.00     0.047 A 
HETATM    8  C   UNK N   1      21.846  14.833   7.632  0.00  0.00     0.055 A 
HETATM    9  C   UNK N   1      19.799  16.175   7.735  0.00  0.00     0.102 A 
HETATM   10  C   UNK N   1      20.544  15.044   8.148  0.00  0.00     0.102 A 
ENDROOT
BRANCH   2  11
HETATM   11  C   UNK N   1      24.793  17.842   5.117  0.00  0.00     0.017 C 
BRANCH  11  12
HETATM   12  C   UNK N   1      25.712  17.862   3.872  0.00  0.00    -0.011 C 
HETATM   13  C   UNK N   1      26.286  16.481   3.574  0.00  0.00     0.024 C 
HETATM   14  C   UNK N   1      27.357  16.092   4.602  0.00  0.00     0.117 C 
HETATM   15  N   UNK N   1      28.399  17.122   4.765  0.00  0.00    -0.408 N 
HETATM   16  C   UNK N   1      27.936  18.503   4.904  0.00  0.00     0.117 C 
HETATM   17  C   UNK N   1      26.861  18.876   3.885  0.00  0.00     0.024 C 
BRANCH  15  18
HETATM   18  C   UNK N   1      29.608  16.990   3.944  0.00  0.00     0.155 C 
BRANCH  18  19
HETATM   19  C   UNK N   1      30.899  17.123   4.691  0.00  0.00    -0.041 A 
HETATM   20  C   UNK N   1      32.068  17.556   4.052  0.00  0.00     0.009 A 
HETATM   21  C   UNK N   1      33.254  17.689   4.778  0.00  0.00     0.001 A 
HETATM   22  C   UNK N   1      33.272  17.404   6.147  0.00  0.00     0.000 A 
HETATM   23  C   UNK N   1      32.102  16.988   6.789  0.00  0.00     0.001 A 
HETATM   24  C   UNK N   1      30.918  16.848   6.061  0.00  0.00     0.009 A 
ENDBRANCH  18  19
ENDBRANCH  15  18
ENDBRANCH  11  12
ENDBRANCH   2  11
BRANCH   9  25
HETATM   25  O   UNK N   1      18.561  16.382   8.246  0.00  0.00    -0.353 OA
HETATM   26  C   UNK N   1      18.292  17.331   9.207  0.00  0.00     0.210 C 
ENDBRANCH   9  25
BRANCH  10  27
HETATM   27  O   UNK N   1      19.984  14.175   9.026  0.00  0.00    -0.353 OA
HETATM   28  C   UNK N   1      20.698  13.538  10.015  0.00  0.00     0.210 C 
ENDBRANCH  10  27
TORSDOF 6
ENDMDL
MODEL 4
REMARK VINA RESULT:      -6.8     15.012     18.352
REMARK  6 active torsions:
REMARK  status: ('A' for Active; 'I' for Inactive)
REMARK    1  A    between atoms: O_2  and  C_20 
REMARK    2  A    between atoms: O_3  and  C_21 
REMARK    3  A    between atoms: N_4  and  C_16 
REMARK    4  A    between atoms: C_5  and  C_6 
REMARK    5  A    between atoms: C_6  and  C_7 
REMARK    6  A    between atoms: C_16  and  C_19 
ROOT
HETATM    1  O   UNK N   1      26.313  24.098  -3.008  0.00  0.00    -0.292 OA
HETATM    2  C   UNK N   1      25.733  24.363  -5.340  0.00  0.00     0.065 A 
HETATM    3  C   UNK N   1      25.834  25.651  -6.203  0.00  0.00     0.052 A 
HETATM    4  C   UNK N   1      26.216  24.818  -3.990  0.00  0.00     0.164 A 
HETATM    5  C   UNK N   1      26.244  26.713  -5.248  0.00  0.00    -0.041 A 
HETATM    6  C   UNK N   1      26.445  26.237  -3.991  0.00  0.00     0.019 A 
HETATM    7  C   UNK N   1      26.396  28.059  -5.550  0.00  0.00     0.047 A 
HETATM    8  C   UNK N   1      26.773  27.089  -2.936  0.00  0.00     0.055 A 
HETATM    9  C   UNK N   1      26.739  28.957  -4.520  0.00  0.00     0.102 A 
HETATM   10  C   UNK N   1      26.910  28.473  -3.201  0.00  0.00     0.102 A 
ENDROOT
BRANCH   2  11
HETATM   11  C   UNK N   1      26.563  23.270  -6.008  0.00  0.00     0.017 C 
BRANCH  11  12
HETATM   12  C   UNK N   1      27.868  23.811  -6.638  0.00  0.00    -0.011 C 
HETATM   13  C   UNK N   1      28.343  22.931  -7.789  0.00  0.00     0.024 C 
HETATM   14  C   UNK N   1      28.911  21.601  -7.272  0.00  0.00     0.117 C 
HETATM   15  N   UNK N   1      29.936  21.780  -6.228  0.00  0.00    -0.408 N 
HETATM   16  C   UNK N   1      29.620  22.730  -5.160  0.00  0.00     0.117 C 
HETATM   17  C   UNK N   1      29.044  24.045  -5.684  0.00  0.00     0.024 C 
BRANCH  15  18
HETATM   18  C   UNK N   1      31.336  21.832  -6.662  0.00  0.00     0.155 C 
BRANCH  18  19
HETATM   19  C   UNK N   1      32.321  21.254  -5.693  0.00  0.00    -0.041 A 
HETATM   20  C   UNK N   1      32.173  19.955  -5.193  0.00  0.00     0.009 A 
HETATM   21  C   UNK N   1      33.118  19.434  -4.306  0.00  0.00     0.001 A 
HETATM   22  C   UNK N   1      34.221  20.205  -3.927  0.00  0.00     0.000 A 
HETATM   23  C   UNK N   1      34.380  21.496  -4.440  0.00  0.00     0.001 A 
HETATM   24  C   UNK N   1      33.430  22.019  -5.320  0.00  0.00     0.009 A 
ENDBRANCH  18  19
ENDBRANCH  15  18
ENDBRANCH  11  12
ENDBRANCH   2  11
BRANCH   9  25
HETATM   25  O   UNK N   1      26.889  30.280  -4.772  0.00  0.00    -0.353 OA
HETATM   26  C   UNK N   1      28.053  30.824  -5.268  0.00  0.00     0.210 C 
ENDBRANCH   9  25
BRANCH  10  27
HETATM   27  O   UNK N   1      27.192  29.357  -2.210  0.00  0.00    -0.353 OA
HETATM   28  C   UNK N   1      28.465  29.576  -1.736  0.00  0.00     0.210 C 
ENDBRANCH  10  27
TORSDOF 6
ENDMDL
MODEL 5
REMARK VINA RESULT:      -6.8      4.567     11.445
REMARK  6 active torsions:
REMARK  status: ('A' for Active; 'I' for Inactive)
REMARK    1  A    between atoms: O_2  and  C_20 
REMARK    2  A    between atoms: O_3  and  C_21 
REMARK    3  A    between atoms: N_4  and  C_16 
REMARK    4  A    between atoms: C_5  and  C_6 
REMARK    5  A    between atoms: C_6  and  C_7 
REMARK    6  A    between atoms: C_16  and  C_19 
ROOT
HETATM    1  O   UNK N   1      30.100  17.104   4.201  0.00  0.00    -0.292 OA
HETATM    2  C   UNK N   1      29.052  17.371   6.363  0.00  0.00     0.065 A 
HETATM    3  C   UNK N   1      29.748  17.481   7.748  0.00  0.00     0.052 A 
HETATM    4  C   UNK N   1      30.207  17.210   5.413  0.00  0.00     0.164 A 
HETATM    5  C   UNK N   1      31.190  17.259   7.465  0.00  0.00    -0.041 A 
HETATM    6  C   UNK N   1      31.442  17.091   6.140  0.00  0.00     0.019 A 
HETATM    7  C   UNK N   1      32.201  17.198   8.412  0.00  0.00     0.047 A 
HETATM    8  C   UNK N   1      32.727  16.807   5.675  0.00  0.00     0.055 A 
HETATM    9  C   UNK N   1      33.518  16.925   7.991  0.00  0.00     0.102 A 
HETATM   10  C   UNK N   1      33.781  16.709   6.617  0.00  0.00     0.102 A 
ENDROOT
BRANCH   2  11
HETATM   11  C   UNK N   1      28.192  18.614   6.157  0.00  0.00     0.017 C 
BRANCH  11  12
HETATM   12  C   UNK N   1      27.912  18.907   4.663  0.00  0.00    -0.011 C 
HETATM   13  C   UNK N   1      27.525  20.364   4.440  0.00  0.00     0.024 C 
HETATM   14  C   UNK N   1      26.111  20.650   4.964  0.00  0.00     0.117 C 
HETATM   15  N   UNK N   1      25.105  19.705   4.447  0.00  0.00    -0.408 N 
HETATM   16  C   UNK N   1      25.462  18.287   4.484  0.00  0.00     0.117 C 
HETATM   17  C   UNK N   1      26.876  18.014   3.973  0.00  0.00     0.024 C 
BRANCH  15  18
HETATM   18  C   UNK N   1      24.378  20.094   3.233  0.00  0.00     0.155 C 
BRANCH  18  19
HETATM   19  C   UNK N   1      22.912  19.792   3.249  0.00  0.00    -0.041 A 
HETATM   20  C   UNK N   1      22.379  18.816   4.100  0.00  0.00     0.009 A 
HETATM   21  C   UNK N   1      21.004  18.569   4.107  0.00  0.00     0.001 A 
HETATM   22  C   UNK N   1      20.156  19.306   3.274  0.00  0.00     0.000 A 
HETATM   23  C   UNK N   1      20.685  20.292   2.437  0.00  0.00     0.001 A 
HETATM   24  C   UNK N   1      22.061  20.533   2.424  0.00  0.00     0.009 A 
ENDBRANCH  18  19
ENDBRANCH  15  18
ENDBRANCH  11  12
ENDBRANCH   2  11
BRANCH   9  25
HETATM   25  O   UNK N   1      34.533  16.849   8.886  0.00  0.00    -0.353 OA
HETATM   26  C   UNK N   1      34.767  15.739   9.667  0.00  0.00     0.210 C 
ENDBRANCH   9  25
BRANCH  10  27
HETATM   27  O   UNK N   1      35.044  16.400   6.232  0.00  0.00    -0.353 OA
HETATM   28  C   UNK N   1      35.438  15.125   5.893  0.00  0.00     0.210 C 
ENDBRANCH  10  27
TORSDOF 6
ENDMDL
MODEL 6
REMARK VINA RESULT:      -6.7      3.104      9.424
REMARK  6 active torsions:
REMARK  status: ('A' for Active; 'I' for Inactive)
REMARK    1  A    between atoms: O_2  and  C_20 
REMARK    2  A    between atoms: O_3  and  C_21 
REMARK    3  A    between atoms: N_4  and  C_16 
REMARK    4  A    between atoms: C_5  and  C_6 
REMARK    5  A    between atoms: C_6  and  C_7 
REMARK    6  A    between atoms: C_16  and  C_19 
ROOT
HETATM    1  O   UNK N   1      34.339  18.040   9.054  0.00  0.00    -0.292 OA
HETATM    2  C   UNK N   1      34.540  16.624   7.104  0.00  0.00     0.065 A 
HETATM    3  C   UNK N   1      34.579  15.072   7.059  0.00  0.00     0.052 A 
HETATM    4  C   UNK N   1      34.420  16.919   8.574  0.00  0.00     0.164 A 
HETATM    5  C   UNK N   1      34.595  14.653   8.484  0.00  0.00    -0.041 A 
HETATM    6  C   UNK N   1      34.520  15.706   9.339  0.00  0.00     0.019 A 
HETATM    7  C   UNK N   1      34.699  13.348   8.943  0.00  0.00     0.047 A 
HETATM    8  C   UNK N   1      34.584  15.526  10.722  0.00  0.00     0.055 A 
HETATM    9  C   UNK N   1      34.756  13.113  10.332  0.00  0.00     0.102 A 
HETATM   10  C   UNK N   1      34.718  14.209  11.227  0.00  0.00     0.102 A 
ENDROOT
BRANCH   2  11
HETATM   11  C   UNK N   1      33.381  17.101   6.235  0.00  0.00     0.017 C 
BRANCH  11  12
HETATM   12  C   UNK N   1      32.200  16.101   6.209  0.00  0.00    -0.011 C 
HETATM   13  C   UNK N   1      31.510  16.081   4.850  0.00  0.00     0.024 C 
HETATM   14  C   UNK N   1      30.689  17.359   4.626  0.00  0.00     0.117 C 
HETATM   15  N   UNK N   1      29.761  17.648   5.735  0.00  0.00    -0.408 N 
HETATM   16  C   UNK N   1      30.308  17.539   7.088  0.00  0.00     0.117 C 
HETATM   17  C   UNK N   1      31.134  16.271   7.297  0.00  0.00     0.024 C 
BRANCH  15  18
HETATM   18  C   UNK N   1      28.391  17.140   5.615  0.00  0.00     0.155 C 
BRANCH  18  19
HETATM   19  C   UNK N   1      27.462  18.003   4.819  0.00  0.00    -0.041 A 
HETATM   20  C   UNK N   1      26.411  17.449   4.078  0.00  0.00     0.009 A 
HETATM   21  C   UNK N   1      25.547  18.280   3.359  0.00  0.00     0.001 A 
HETATM   22  C   UNK N   1      25.723  19.667   3.393  0.00  0.00     0.000 A 
HETATM   23  C   UNK N   1      26.760  20.222   4.147  0.00  0.00     0.001 A 
HETATM   24  C   UNK N   1      27.629  19.390   4.858  0.00  0.00     0.009 A 
ENDBRANCH  18  19
ENDBRANCH  15  18
ENDBRANCH  11  12
ENDBRANCH   2  11
BRANCH   9  25
HETATM   25  O   UNK N   1      34.865  11.854  10.821  0.00  0.00    -0.353 OA
HETATM   26  C   UNK N   1      34.000  10.838  10.482  0.00  0.00     0.210 C 
ENDBRANCH   9  25
BRANCH  10  27
HETATM   27  O   UNK N   1      34.822  13.972  12.558  0.00  0.00    -0.353 OA
HETATM   28  C   UNK N   1      35.983  14.170  13.270  0.00  0.00     0.210 C 
ENDBRANCH  10  27
TORSDOF 6
ENDMDL
MODEL 7
REMARK VINA RESULT:      -6.7      3.627      9.032
REMARK  6 active torsions:
REMARK  status: ('A' for Active; 'I' for Inactive)
REMARK    1  A    between atoms: O_2  and  C_20 
REMARK    2  A    between atoms: O_3  and  C_21 
REMARK    3  A    between atoms: N_4  and  C_16 
REMARK    4  A    between atoms: C_5  and  C_6 
REMARK    5  A    between atoms: C_6  and  C_7 
REMARK    6  A    between atoms: C_16  and  C_19 
ROOT
HETATM    1  O   UNK N   1      35.000  11.518  10.464  0.00  0.00    -0.292 OA
HETATM    2  C   UNK N   1      34.885  13.920  10.214  0.00  0.00     0.065 A 
HETATM    3  C   UNK N   1      35.379  15.003  11.213  0.00  0.00     0.052 A 
HETATM    4  C   UNK N   1      35.212  12.632  10.918  0.00  0.00     0.164 A 
HETATM    5  C   UNK N   1      35.820  14.240  12.409  0.00  0.00    -0.041 A 
HETATM    6  C   UNK N   1      35.708  12.896  12.241  0.00  0.00     0.019 A 
HETATM    7  C   UNK N   1      36.278  14.790  13.597  0.00  0.00     0.047 A 
HETATM    8  C   UNK N   1      36.013  12.007  13.274  0.00  0.00     0.055 A 
HETATM    9  C   UNK N   1      36.609  13.934  14.666  0.00  0.00     0.102 A 
HETATM   10  C   UNK N   1      36.458  12.535  14.511  0.00  0.00     0.102 A 
ENDROOT
BRANCH   2  11
HETATM   11  C   UNK N   1      35.588  14.142   8.878  0.00  0.00     0.017 C 
BRANCH  11  12
HETATM   12  C   UNK N   1      34.604  14.205   7.686  0.00  0.00    -0.011 C 
HETATM   13  C   UNK N   1      34.844  15.438   6.823  0.00  0.00     0.024 C 
HETATM   14  C   UNK N   1      34.372  16.714   7.534  0.00  0.00     0.117 C 
HETATM   15  N   UNK N   1      32.986  16.620   8.024  0.00  0.00    -0.408 N 
HETATM   16  C   UNK N   1      32.626  15.393   8.735  0.00  0.00     0.117 C 
HETATM   17  C   UNK N   1      33.111  14.129   8.026  0.00  0.00     0.024 C 
BRANCH  15  18
HETATM   18  C   UNK N   1      31.925  17.115   7.139  0.00  0.00     0.155 C 
BRANCH  18  19
HETATM   19  C   UNK N   1      30.646  17.483   7.826  0.00  0.00    -0.041 A 
HETATM   20  C   UNK N   1      30.640  18.307   8.958  0.00  0.00     0.009 A 
HETATM   21  C   UNK N   1      29.431  18.649   9.568  0.00  0.00     0.001 A 
HETATM   22  C   UNK N   1      28.224  18.182   9.040  0.00  0.00     0.000 A 
HETATM   23  C   UNK N   1      28.228  17.374   7.899  0.00  0.00     0.001 A 
HETATM   24  C   UNK N   1      29.438  17.024   7.295  0.00  0.00     0.009 A 
ENDBRANCH  18  19
ENDBRANCH  15  18
ENDBRANCH  11  12
ENDBRANCH   2  11
BRANCH   9  25
HETATM   25  O   UNK N   1      37.053  14.432  15.845  0.00  0.00    -0.353 OA
HETATM   26  C   UNK N   1      37.454  15.739  16.007  0.00  0.00     0.210 C 
ENDBRANCH   9  25
BRANCH  10  27
HETATM   27  O   UNK N   1      36.734  11.725  15.564  0.00  0.00    -0.353 OA
HETATM   28  C   UNK N   1      37.159  10.424  15.424  0.00  0.00     0.210 C 
ENDBRANCH  10  27
TORSDOF 6
ENDMDL
MODEL 8
REMARK VINA RESULT:      -6.5      3.305      9.683
REMARK  6 active torsions:
REMARK  status: ('A' for Active; 'I' for Inactive)
REMARK    1  A    between atoms: O_2  and  C_20 
REMARK    2  A    between atoms: O_3  and  C_21 
REMARK    3  A    between atoms: N_4  and  C_16 
REMARK    4  A    between atoms: C_5  and  C_6 
REMARK    5  A    between atoms: C_6  and  C_7 
REMARK    6  A    between atoms: C_16  and  C_19 
ROOT
HETATM    1  O   UNK N   1      35.136  17.003  10.970  0.00  0.00    -0.292 OA
HETATM    2  C   UNK N   1      34.337  15.358   9.389  0.00  0.00     0.065 A 
HETATM    3  C   UNK N   1      34.255  13.818   9.581  0.00  0.00     0.052 A 
HETATM    4  C   UNK N   1      34.919  15.834  10.692  0.00  0.00     0.164 A 
HETATM    5  C   UNK N   1      34.894  13.568  10.899  0.00  0.00    -0.041 A 
HETATM    6  C   UNK N   1      35.282  14.714  11.517  0.00  0.00     0.019 A 
HETATM    7  C   UNK N   1      35.115  12.322  11.468  0.00  0.00     0.047 A 
HETATM    8  C   UNK N   1      35.958  14.688  12.738  0.00  0.00     0.055 A 
HETATM    9  C   UNK N   1      35.784  12.244  12.706  0.00  0.00     0.102 A 
HETATM   10  C   UNK N   1      36.226  13.432  13.336  0.00  0.00     0.102 A 
ENDROOT
BRANCH   2  11
HETATM   11  C   UNK N   1      32.941  15.876   9.058  0.00  0.00     0.017 C 
BRANCH  11  12
HETATM   12  C   UNK N   1      32.967  17.139   8.164  0.00  0.00    -0.011 C 
HETATM   13  C   UNK N   1      31.612  17.837   8.137  0.00  0.00     0.024 C 
HETATM   14  C   UNK N   1      30.592  17.036   7.315  0.00  0.00     0.117 C 
HETATM   15  N   UNK N   1      31.084  16.689   5.969  0.00  0.00    -0.408 N 
HETATM   16  C   UNK N   1      32.443  16.152   5.890  0.00  0.00     0.117 C 
HETATM   17  C   UNK N   1      33.448  16.948   6.722  0.00  0.00     0.024 C 
BRANCH  15  18
HETATM   18  C   UNK N   1      30.753  17.608   4.874  0.00  0.00     0.155 C 
BRANCH  18  19
HETATM   19  C   UNK N   1      29.314  17.608   4.461  0.00  0.00    -0.041 A 
HETATM   20  C   UNK N   1      28.745  16.510   3.805  0.00  0.00     0.009 A 
HETATM   21  C   UNK N   1      27.395  16.530   3.448  0.00  0.00     0.001 A 
HETATM   22  C   UNK N   1      26.606  17.642   3.758  0.00  0.00     0.000 A 
HETATM   23  C   UNK N   1      27.169  18.733   4.428  0.00  0.00     0.001 A 
HETATM   24  C   UNK N   1      28.521  18.715   4.777  0.00  0.00     0.009 A 
ENDBRANCH  18  19
ENDBRANCH  15  18
ENDBRANCH  11  12
ENDBRANCH   2  11
BRANCH   9  25
HETATM   25  O   UNK N   1      36.026  11.047  13.291  0.00  0.00    -0.353 OA
HETATM   26  C   UNK N   1      35.045  10.290  13.892  0.00  0.00     0.210 C 
ENDBRANCH   9  25
BRANCH  10  27
HETATM   27  O   UNK N   1      36.912  13.339  14.503  0.00  0.00    -0.353 OA
HETATM   28  C   UNK N   1      36.363  13.649  15.727  0.00  0.00     0.210 C 
ENDBRANCH  10  27
TORSDOF 6
ENDMDL
MODEL 9
REMARK VINA RESULT:      -6.4      6.682     12.413
REMARK  6 active torsions:
REMARK  status: ('A' for Active; 'I' for Inactive)
REMARK    1  A    between atoms: O_2  and  C_20 
REMARK    2  A    between atoms: O_3  and  C_21 
REMARK    3  A    between atoms: N_4  and  C_16 
REMARK    4  A    between atoms: C_5  and  C_6 
REMARK    5  A    between atoms: C_6  and  C_7 
REMARK    6  A    between atoms: C_16  and  C_19 
ROOT
HETATM    1  O   UNK N   1      35.711  12.416  19.674  0.00  0.00    -0.292 OA
HETATM    2  C   UNK N   1      35.714  10.846  17.836  0.00  0.00     0.065 A 
HETATM    3  C   UNK N   1      34.903   9.527  17.713  0.00  0.00     0.052 A 
HETATM    4  C   UNK N   1      35.310  11.371  19.186  0.00  0.00     0.164 A 
HETATM    5  C   UNK N   1      34.223   9.378  19.026  0.00  0.00    -0.041 A 
HETATM    6  C   UNK N   1      34.470  10.420  19.863  0.00  0.00     0.019 A 
HETATM    7  C   UNK N   1      33.434   8.305  19.413  0.00  0.00     0.047 A 
HETATM    8  C   UNK N   1      33.972  10.438  21.167  0.00  0.00     0.055 A 
HETATM    9  C   UNK N   1      32.900   8.282  20.716  0.00  0.00     0.102 A 
HETATM   10  C   UNK N   1      33.185   9.345  21.606  0.00  0.00     0.102 A 
ENDROOT
BRANCH   2  11
HETATM   11  C   UNK N   1      35.368  11.736  16.647  0.00  0.00     0.017 C 
BRANCH  11  12
HETATM   12  C   UNK N   1      36.302  11.508  15.435  0.00  0.00    -0.011 C 
HETATM   13  C   UNK N   1      37.009  12.792  15.020  0.00  0.00     0.024 C 
HETATM   14  C   UNK N   1      36.037  13.765  14.337  0.00  0.00     0.117 C 
HETATM   15  N   UNK N   1      35.283  13.145  13.233  0.00  0.00    -0.408 N 
HETATM   16  C   UNK N   1      34.697  11.831  13.501  0.00  0.00     0.117 C 
HETATM   17  C   UNK N   1      35.668  10.874  14.191  0.00  0.00     0.024 C 
BRANCH  15  18
HETATM   18  C   UNK N   1      35.842  13.271  11.882  0.00  0.00     0.155 C 
BRANCH  18  19
HETATM   19  C   UNK N   1      35.315  14.424  11.084  0.00  0.00    -0.041 A 
HETATM   20  C   UNK N   1      35.833  15.715  11.243  0.00  0.00     0.009 A 
HETATM   21  C   UNK N   1      35.336  16.769  10.472  0.00  0.00     0.001 A 
HETATM   22  C   UNK N   1      34.331  16.531   9.529  0.00  0.00     0.000 A 
HETATM   23  C   UNK N   1      33.826  15.240   9.357  0.00  0.00     0.001 A 
HETATM   24  C   UNK N   1      34.317  14.189  10.135  0.00  0.00     0.009 A 
ENDBRANCH  18  19
ENDBRANCH  15  18
ENDBRANCH  11  12
ENDBRANCH   2  11
BRANCH   9  25
HETATM   25  O   UNK N   1      32.131   7.248  21.135  0.00  0.00    -0.353 OA
HETATM   26  C   UNK N   1      30.862   7.011  20.656  0.00  0.00     0.210 C 
ENDBRANCH   9  25
BRANCH  10  27
HETATM   27  O   UNK N   1      32.704   9.287  22.873  0.00  0.00    -0.353 OA
HETATM   28  C   UNK N   1      32.988  10.233  23.832  0.00  0.00     0.210 C 
ENDBRANCH  10  27
TORSDOF 6
ENDMDL
