MODEL 1
REMARK VINA RESULT:      -7.9      0.000      0.000
REMARK  4 active torsions:
REMARK  status: ('A' for Active; 'I' for Inactive)
REMARK    1  A    between atoms: C_16  and  O_4 
REMARK    2  A    between atoms: O_6  and  C_28 
REMARK    3  A    between atoms: C_11  and  C_22 
REMARK    4  A    between atoms: C_22  and  C_28 
ROOT
HETATM    1  F   UNK N   1      28.842  16.803   2.946  0.00  0.00    -0.245 F 
HETATM    2  O   UNK N   1      34.387  13.782   8.611  0.00  0.00    -0.334 OA
HETATM    3  O   UNK N   1      34.335  13.448   6.421  0.00  0.00    -0.347 OA
HETATM    4  O   UNK N   1      25.503  19.803   4.959  0.00  0.00    -0.293 OA
HETATM    5  C   UNK N   1      32.600  16.056   7.691  0.00  0.00     0.004 C 
HETATM    6  C   UNK N   1      31.901  15.707   6.339  0.00  0.00     0.004 C 
HETATM    7  C   UNK N   1      30.374  16.007   6.296  0.00  0.00     0.001 C 
HETATM    8  C   UNK N   1      33.696  14.955   8.191  0.00  0.00     0.160 C 
HETATM    9  C   UNK N   1      30.159  17.435   6.860  0.00  0.00     0.031 C 
HETATM   10  C   UNK N   1      32.157  14.298   6.089  0.00  0.00     0.041 C 
HETATM   11  C   UNK N   1      33.204  13.913   7.076  0.00  0.00     0.168 C 
HETATM   12  C   UNK N   1      31.526  16.321   8.776  0.00  0.00     0.045 C 
HETATM   13  C   UNK N   1      30.496  17.408   8.376  0.00  0.00     0.124 C 
HETATM   14  C   UNK N   1      28.734  17.969   6.565  0.00  0.00    -0.011 C 
HETATM   15  C   UNK N   1      29.774  15.776   4.887  0.00  0.00     0.047 C 
HETATM   16  C   UNK N   1      33.309  17.397   7.371  0.00  0.00     0.019 C 
HETATM   17  C   UNK N   1      28.452  17.859   5.069  0.00  0.00    -0.034 C 
HETATM   18  C   UNK N   1      29.399  17.075   4.184  0.00  0.00     0.200 C 
HETATM   19  C   UNK N   1      35.173  13.372   7.514  0.00  0.00     0.159 C 
HETATM   20  C   UNK N   1      28.559  19.438   6.972  0.00  0.00     0.022 C 
HETATM   21  C   UNK N   1      27.705  17.122   7.325  0.00  0.00     0.021 C 
HETATM   22  C   UNK N   1      27.124  19.930   6.680  0.00  0.00     0.084 C 
HETATM   23  C   UNK N   1      27.381  18.476   4.542  0.00  0.00     0.056 C 
HETATM   24  C   UNK N   1      36.403  14.256   7.315  0.00  0.00     0.078 C 
HETATM   25  C   UNK N   1      35.618  11.936   7.710  0.00  0.00     0.078 C 
HETATM   26  C   UNK N   1      26.581  19.407   5.368  0.00  0.00     0.149 C 
ENDROOT
BRANCH   8  27
HETATM   27  C   UNK N   1      34.394  15.752   9.418  0.00  0.00     0.188 C 
HETATM   28  O   UNK N   1      34.832  16.889   9.285  0.00  0.00    -0.292 OA
BRANCH  27  29
HETATM   29  C   UNK N   1      34.498  15.216  10.839  0.00  0.00     0.245 C 
BRANCH  29  30
HETATM   30  O   UNK N   1      33.244  14.792  11.282  0.00  0.00    -0.393 OA
HETATM   31  H   UNK N   1      32.324  14.983  11.039  0.00  0.00     0.209 HD
ENDBRANCH  29  30
ENDBRANCH  27  29
ENDBRANCH   8  27
BRANCH  13  32
HETATM   32  O   UNK N   1      30.895  18.672   8.820  0.00  0.00    -0.395 OA
HETATM   33  H   UNK N   1      31.011  19.564   8.457  0.00  0.00     0.210 HD
ENDBRANCH  13  32
TORSDOF 4
ENDMDL
MODEL 2
REMARK VINA RESULT:      -7.7      2.138      3.106
REMARK  4 active torsions:
REMARK  status: ('A' for Active; 'I' for Inactive)
REMARK    1  A    between atoms: C_16  and  O_4 
REMARK    2  A    between atoms: O_6  and  C_28 
REMARK    3  A    between atoms: C_11  and  C_22 
REMARK    4  A    between atoms: C_22  and  C_28 
ROOT
HETATM    1  F   UNK N   1      33.130  17.600   3.419  0.00  0.00    -0.245 F 
HETATM    2  O   UNK N   1      36.764  12.831   9.421  0.00  0.00    -0.334 OA
HETATM    3  O   UNK N   1      37.716  13.812   7.677  0.00  0.00    -0.347 OA
HETATM    4  O   UNK N   1      28.323  18.304   4.194  0.00  0.00    -0.293 OA
HETATM    5  C   UNK N   1      34.669  14.891   8.663  0.00  0.00     0.004 C 
HETATM    6  C   UNK N   1      34.779  15.273   7.152  0.00  0.00     0.004 C 
HETATM    7  C   UNK N   1      33.427  15.288   6.381  0.00  0.00     0.001 C 
HETATM    8  C   UNK N   1      35.849  13.900   9.199  0.00  0.00     0.160 C 
HETATM    9  C   UNK N   1      32.404  16.075   7.240  0.00  0.00     0.031 C 
HETATM   10  C   UNK N   1      35.706  14.328   6.551  0.00  0.00     0.041 C 
HETATM   11  C   UNK N   1      36.342  13.624   7.698  0.00  0.00     0.168 C 
HETATM   12  C   UNK N   1      33.262  14.305   8.947  0.00  0.00     0.045 C 
HETATM   13  C   UNK N   1      32.103  15.238   8.514  0.00  0.00     0.124 C 
HETATM   14  C   UNK N   1      31.129  16.440   6.438  0.00  0.00    -0.011 C 
HETATM   15  C   UNK N   1      33.588  15.814   4.933  0.00  0.00     0.047 C 
HETATM   16  C   UNK N   1      34.774  16.266   9.370  0.00  0.00     0.019 C 
HETATM   17  C   UNK N   1      31.528  17.164   5.156  0.00  0.00    -0.034 C 
HETATM   18  C   UNK N   1      32.983  17.199   4.736  0.00  0.00     0.200 C 
HETATM   19  C   UNK N   1      38.006  13.260   8.907  0.00  0.00     0.159 C 
HETATM   20  C   UNK N   1      30.180  17.356   7.224  0.00  0.00     0.022 C 
HETATM   21  C   UNK N   1      30.376  15.155   6.067  0.00  0.00     0.021 C 
HETATM   22  C   UNK N   1      28.915  17.683   6.401  0.00  0.00     0.084 C 
HETATM   23  C   UNK N   1      30.592  17.787   4.419  0.00  0.00     0.056 C 
HETATM   24  C   UNK N   1      38.687  14.285   9.812  0.00  0.00     0.078 C 
HETATM   25  C   UNK N   1      38.925  12.069   8.723  0.00  0.00     0.078 C 
HETATM   26  C   UNK N   1      29.214  17.928   4.938  0.00  0.00     0.149 C 
ENDROOT
BRANCH   8  27
HETATM   27  C   UNK N   1      35.588  13.949  10.798  0.00  0.00     0.188 C 
HETATM   28  O   UNK N   1      35.818  14.955  11.461  0.00  0.00    -0.292 OA
BRANCH  27  29
HETATM   29  C   UNK N   1      34.970  12.812  11.601  0.00  0.00     0.245 C 
BRANCH  29  30
HETATM   30  O   UNK N   1      34.562  13.279  12.852  0.00  0.00    -0.393 OA
HETATM   31  H   UNK N   1      34.119  12.892  13.623  0.00  0.00     0.209 HD
ENDBRANCH  29  30
ENDBRANCH  27  29
ENDBRANCH   8  27
BRANCH  13  32
HETATM   32  O   UNK N   1      31.696  16.062   9.567  0.00  0.00    -0.395 OA
HETATM   33  H   UNK N   1      31.685  16.046  10.536  0.00  0.00     0.210 HD
ENDBRANCH  13  32
TORSDOF 4
ENDMDL
MODEL 3
REMARK VINA RESULT:      -7.5      3.699      8.358
REMARK  4 active torsions:
REMARK  status: ('A' for Active; 'I' for Inactive)
REMARK    1  A    between atoms: C_16  and  O_4 
REMARK    2  A    between atoms: O_6  and  C_28 
REMARK    3  A    between atoms: C_11  and  C_22 
REMARK    4  A    between atoms: C_22  and  C_28 
ROOT
HETATM    1  F   UNK N   1      34.520   9.657  11.546  0.00  0.00    -0.245 F 
HETATM    2  O   UNK N   1      32.623  15.474   5.671  0.00  0.00    -0.334 OA
HETATM    3  O   UNK N   1      31.878  13.394   5.841  0.00  0.00    -0.347 OA
HETATM    4  O   UNK N   1      37.532  11.381  15.033  0.00  0.00    -0.293 OA
HETATM    5  C   UNK N   1      33.274  14.829   8.563  0.00  0.00     0.004 C 
HETATM    6  C   UNK N   1      33.440  13.290   8.771  0.00  0.00     0.004 C 
HETATM    7  C   UNK N   1      34.697  12.871   9.586  0.00  0.00     0.001 C 
HETATM    8  C   UNK N   1      32.777  15.262   7.072  0.00  0.00     0.160 C 
HETATM    9  C   UNK N   1      34.760  13.769  10.849  0.00  0.00     0.031 C 
HETATM   10  C   UNK N   1      33.460  12.691   7.446  0.00  0.00     0.041 C 
HETATM   11  C   UNK N   1      33.024  13.775   6.523  0.00  0.00     0.168 C 
HETATM   12  C   UNK N   1      34.590  15.548   8.954  0.00  0.00     0.045 C 
HETATM   13  C   UNK N   1      35.072  15.220  10.390  0.00  0.00     0.124 C 
HETATM   14  C   UNK N   1      35.769  13.232  11.896  0.00  0.00    -0.011 C 
HETATM   15  C   UNK N   1      34.724  11.350   9.879  0.00  0.00     0.047 C 
HETATM   16  C   UNK N   1      32.190  15.197   9.608  0.00  0.00     0.019 C 
HETATM   17  C   UNK N   1      35.450  11.772  12.205  0.00  0.00    -0.034 C 
HETATM   18  C   UNK N   1      34.454  11.025  11.343  0.00  0.00     0.200 C 
HETATM   19  C   UNK N   1      31.592  14.607   5.250  0.00  0.00     0.159 C 
HETATM   20  C   UNK N   1      35.724  14.016  13.214  0.00  0.00     0.022 C 
HETATM   21  C   UNK N   1      37.190  13.317  11.322  0.00  0.00     0.021 C 
HETATM   22  C   UNK N   1      36.754  13.466  14.225  0.00  0.00     0.084 C 
HETATM   23  C   UNK N   1      36.034  11.166  13.252  0.00  0.00     0.056 C 
HETATM   24  C   UNK N   1      30.209  15.100   5.671  0.00  0.00     0.078 C 
HETATM   25  C   UNK N   1      31.631  14.458   3.742  0.00  0.00     0.078 C 
HETATM   26  C   UNK N   1      36.840  11.955  14.209  0.00  0.00     0.149 C 
ENDROOT
BRANCH   8  27
HETATM   27  C   UNK N   1      32.452  16.833   7.300  0.00  0.00     0.188 C 
HETATM   28  O   UNK N   1      31.324  17.227   7.576  0.00  0.00    -0.292 OA
BRANCH  27  29
HETATM   29  C   UNK N   1      33.500  17.937   7.278  0.00  0.00     0.245 C 
BRANCH  29  30
HETATM   30  O   UNK N   1      34.187  17.919   6.063  0.00  0.00    -0.393 OA
HETATM   31  H   UNK N   1      34.219  18.488   5.278  0.00  0.00     0.209 HD
ENDBRANCH  29  30
ENDBRANCH  27  29
ENDBRANCH   8  27
BRANCH  13  32
HETATM   32  O   UNK N   1      34.585  16.149  11.314  0.00  0.00    -0.395 OA
HETATM   33  H   UNK N   1      33.796  16.280  11.862  0.00  0.00     0.210 HD
ENDBRANCH  13  32
TORSDOF 4
ENDMDL
MODEL 4
REMARK VINA RESULT:      -7.5     15.905     17.429
REMARK  4 active torsions:
REMARK  status: ('A' for Active; 'I' for Inactive)
REMARK    1  A    between atoms: C_16  and  O_4 
REMARK    2  A    between atoms: O_6  and  C_28 
REMARK    3  A    between atoms: C_11  and  C_22 
REMARK    4  A    between atoms: C_22  and  C_28 
ROOT
HETATM    1  F   UNK N   1      30.656  27.049  -3.049  0.00  0.00    -0.245 F 
HETATM    2  O   UNK N   1      27.710  22.350  -9.469  0.00  0.00    -0.334 OA
HETATM    3  O   UNK N   1      29.437  21.941  -8.141  0.00  0.00    -0.347 OA
HETATM    4  O   UNK N   1      27.935  31.062  -2.218  0.00  0.00    -0.293 OA
HETATM    5  C   UNK N   1      27.134  24.201  -7.134  0.00  0.00     0.004 C 
HETATM    6  C   UNK N   1      28.450  24.580  -6.381  0.00  0.00     0.004 C 
HETATM    7  C   UNK N   1      28.609  26.096  -6.067  0.00  0.00     0.001 C 
HETATM    8  C   UNK N   1      27.325  23.091  -8.314  0.00  0.00     0.160 C 
HETATM    9  C   UNK N   1      27.273  26.593  -5.457  0.00  0.00     0.031 C 
HETATM   10  C   UNK N   1      29.550  24.105  -7.203  0.00  0.00     0.041 C 
HETATM   11  C   UNK N   1      28.921  23.225  -8.227  0.00  0.00     0.168 C 
HETATM   12  C   UNK N   1      26.455  25.487  -7.669  0.00  0.00     0.045 C 
HETATM   13  C   UNK N   1      26.192  26.551  -6.572  0.00  0.00     0.124 C 
HETATM   14  C   UNK N   1      27.416  27.992  -4.803  0.00  0.00    -0.011 C 
HETATM   15  C   UNK N   1      29.858  26.383  -5.196  0.00  0.00     0.047 C 
HETATM   16  C   UNK N   1      26.251  23.619  -6.001  0.00  0.00     0.019 C 
HETATM   17  C   UNK N   1      28.568  27.966  -3.802  0.00  0.00    -0.034 C 
HETATM   18  C   UNK N   1      29.504  26.777  -3.767  0.00  0.00     0.200 C 
HETATM   19  C   UNK N   1      28.565  21.324  -9.013  0.00  0.00     0.159 C 
HETATM   20  C   UNK N   1      26.148  28.425  -4.056  0.00  0.00     0.022 C 
HETATM   21  C   UNK N   1      27.727  29.031  -5.888  0.00  0.00     0.021 C 
HETATM   22  C   UNK N   1      26.321  29.828  -3.433  0.00  0.00     0.084 C 
HETATM   23  C   UNK N   1      28.730  28.987  -2.942  0.00  0.00     0.056 C 
HETATM   24  C   UNK N   1      27.803  20.201  -8.312  0.00  0.00     0.078 C 
HETATM   25  C   UNK N   1      29.341  20.747 -10.181  0.00  0.00     0.078 C 
HETATM   26  C   UNK N   1      27.697  30.040  -2.839  0.00  0.00     0.149 C 
ENDROOT
BRANCH   8  27
HETATM   27  C   UNK N   1      25.780  22.746  -8.664  0.00  0.00     0.188 C 
HETATM   28  O   UNK N   1      25.234  23.176  -9.674  0.00  0.00    -0.292 OA
BRANCH  27  29
HETATM   29  C   UNK N   1      24.903  21.812  -7.842  0.00  0.00     0.245 C 
BRANCH  29  30
HETATM   30  O   UNK N   1      23.556  22.081  -8.091  0.00  0.00    -0.393 OA
HETATM   31  H   UNK N   1      22.818  21.598  -8.495  0.00  0.00     0.209 HD
ENDBRANCH  29  30
ENDBRANCH  27  29
ENDBRANCH   8  27
BRANCH  13  32
HETATM   32  O   UNK N   1      24.915  26.407  -6.022  0.00  0.00    -0.395 OA
HETATM   33  H   UNK N   1      24.016  26.729  -6.187  0.00  0.00     0.210 HD
ENDBRANCH  13  32
TORSDOF 4
ENDMDL
MODEL 5
REMARK VINA RESULT:      -7.2      2.143      3.929
REMARK  4 active torsions:
REMARK  status: ('A' for Active; 'I' for Inactive)
REMARK    1  A    between atoms: C_16  and  O_4 
REMARK    2  A    between atoms: O_6  and  C_28 
REMARK    3  A    between atoms: C_11  and  C_22 
REMARK    4  A    between atoms: C_22  and  C_28 
ROOT
HETATM    1  F   UNK N   1      30.100  19.056   9.425  0.00  0.00    -0.245 F 
HETATM    2  O   UNK N   1      36.619  13.750   8.283  0.00  0.00    -0.334 OA
HETATM    3  O   UNK N   1      36.207  15.074  10.012  0.00  0.00    -0.347 OA
HETATM    4  O   UNK N   1      26.837  18.886   5.747  0.00  0.00    -0.293 OA
HETATM    5  C   UNK N   1      33.670  14.353   7.898  0.00  0.00     0.004 C 
HETATM    6  C   UNK N   1      33.283  15.710   8.568  0.00  0.00     0.004 C 
HETATM    7  C   UNK N   1      32.424  16.655   7.681  0.00  0.00     0.001 C 
HETATM    8  C   UNK N   1      35.203  13.871   8.179  0.00  0.00     0.160 C 
HETATM    9  C   UNK N   1      31.275  15.812   7.069  0.00  0.00     0.031 C 
HETATM   10  C   UNK N   1      34.529  16.353   8.953  0.00  0.00     0.041 C 
HETATM   11  C   UNK N   1      35.573  15.303   8.800  0.00  0.00     0.168 C 
HETATM   12  C   UNK N   1      33.366  14.420   6.380  0.00  0.00     0.045 C 
HETATM   13  C   UNK N   1      31.901  14.812   6.059  0.00  0.00     0.124 C 
HETATM   14  C   UNK N   1      30.172  16.700   6.440  0.00  0.00    -0.011 C 
HETATM   15  C   UNK N   1      31.954  17.914   8.453  0.00  0.00     0.047 C 
HETATM   16  C   UNK N   1      32.677  13.357   8.550  0.00  0.00     0.019 C 
HETATM   17  C   UNK N   1      29.693  17.719   7.470  0.00  0.00    -0.034 C 
HETATM   18  C   UNK N   1      30.463  17.895   8.763  0.00  0.00     0.200 C 
HETATM   19  C   UNK N   1      36.936  13.963   9.641  0.00  0.00     0.159 C 
HETATM   20  C   UNK N   1      28.954  15.889   5.977  0.00  0.00     0.022 C 
HETATM   21  C   UNK N   1      30.750  17.451   5.233  0.00  0.00     0.021 C 
HETATM   22  C   UNK N   1      27.885  16.803   5.339  0.00  0.00     0.084 C 
HETATM   23  C   UNK N   1      28.581  18.437   7.236  0.00  0.00     0.056 C 
HETATM   24  C   UNK N   1      36.578  12.765  10.518  0.00  0.00     0.078 C 
HETATM   25  C   UNK N   1      38.416  14.259   9.783  0.00  0.00     0.078 C 
HETATM   26  C   UNK N   1      27.723  18.116   6.075  0.00  0.00     0.149 C 
ENDROOT
BRANCH   8  27
HETATM   27  C   UNK N   1      35.162  12.358   7.599  0.00  0.00     0.188 C 
HETATM   28  O   UNK N   1      34.693  11.429   8.248  0.00  0.00    -0.292 OA
BRANCH  27  29
HETATM   29  C   UNK N   1      35.610  11.965   6.198  0.00  0.00     0.245 C 
BRANCH  29  30
HETATM   30  O   UNK N   1      36.526  12.898   5.711  0.00  0.00    -0.393 OA
HETATM   31  H   UNK N   1      36.468  13.730   5.214  0.00  0.00     0.209 HD
ENDBRANCH  29  30
ENDBRANCH  27  29
ENDBRANCH   8  27
BRANCH  13  32
HETATM   32  O   UNK N   1      31.093  13.679   5.915  0.00  0.00    -0.395 OA
HETATM   33  H   UNK N   1      30.654  13.027   6.482  0.00  0.00     0.210 HD
ENDBRANCH  13  32
TORSDOF 4
ENDMDL
MODEL 6
REMARK VINA RESULT:      -7.2     12.167     15.682
REMARK  4 active torsions:
REMARK  status: ('A' for Active; 'I' for Inactive)
REMARK    1  A    between atoms: C_16  and  O_4 
REMARK    2  A    between atoms: O_6  and  C_28 
REMARK    3  A    between atoms: C_11  and  C_22 
REMARK    4  A    between atoms: C_22  and  C_28 
ROOT
HETATM    1  F   UNK N   1      35.342  23.584  -6.297  0.00  0.00    -0.245 F 
HETATM    2  O   UNK N   1      27.755  26.314  -3.662  0.00  0.00    -0.334 OA
HETATM    3  O   UNK N   1      29.201  27.336  -4.995  0.00  0.00    -0.347 OA
HETATM    4  O   UNK N   1      36.401  19.054  -4.696  0.00  0.00    -0.293 OA
HETATM    5  C   UNK N   1      29.519  24.003  -4.534  0.00  0.00     0.004 C 
HETATM    6  C   UNK N   1      30.940  24.506  -4.944  0.00  0.00     0.004 C 
HETATM    7  C   UNK N   1      32.121  23.690  -4.344  0.00  0.00     0.001 C 
HETATM    8  C   UNK N   1      28.453  25.190  -4.192  0.00  0.00     0.160 C 
HETATM    9  C   UNK N   1      31.810  22.186  -4.559  0.00  0.00     0.031 C 
HETATM   10  C   UNK N   1      31.019  25.901  -4.541  0.00  0.00     0.041 C 
HETATM   11  C   UNK N   1      29.623  26.286  -4.194  0.00  0.00     0.168 C 
HETATM   12  C   UNK N   1      29.645  22.997  -3.362  0.00  0.00     0.045 C 
HETATM   13  C   UNK N   1      30.599  21.813  -3.661  0.00  0.00     0.124 C 
HETATM   14  C   UNK N   1      33.051  21.293  -4.306  0.00  0.00    -0.011 C 
HETATM   15  C   UNK N   1      33.491  24.148  -4.904  0.00  0.00     0.047 C 
HETATM   16  C   UNK N   1      29.057  23.227  -5.794  0.00  0.00     0.019 C 
HETATM   17  C   UNK N   1      34.219  21.797  -5.150  0.00  0.00    -0.034 C 
HETATM   18  C   UNK N   1      34.110  23.132  -5.856  0.00  0.00     0.200 C 
HETATM   19  C   UNK N   1      27.872  27.341  -4.623  0.00  0.00     0.159 C 
HETATM   20  C   UNK N   1      32.804  19.823  -4.671  0.00  0.00     0.022 C 
HETATM   21  C   UNK N   1      33.441  21.372  -2.824  0.00  0.00     0.021 C 
HETATM   22  C   UNK N   1      34.055  18.961  -4.389  0.00  0.00     0.084 C 
HETATM   23  C   UNK N   1      35.325  21.045  -5.280  0.00  0.00     0.056 C 
HETATM   24  C   UNK N   1      26.971  27.111  -5.834  0.00  0.00     0.078 C 
HETATM   25  C   UNK N   1      27.529  28.675  -3.991  0.00  0.00     0.078 C 
HETATM   26  C   UNK N   1      35.344  19.660  -4.763  0.00  0.00     0.149 C 
ENDROOT
BRANCH   8  27
HETATM   27  C   UNK N   1      27.073  24.344  -4.094  0.00  0.00     0.188 C 
HETATM   28  O   UNK N   1      26.537  24.104  -3.018  0.00  0.00    -0.292 OA
BRANCH  27  29
HETATM   29  C   UNK N   1      26.283  23.850  -5.298  0.00  0.00     0.245 C 
BRANCH  29  30
HETATM   30  O   UNK N   1      25.004  24.411  -5.291  0.00  0.00    -0.393 OA
HETATM   31  H   UNK N   1      24.201  24.294  -4.761  0.00  0.00     0.209 HD
ENDBRANCH  29  30
ENDBRANCH  27  29
ENDBRANCH   8  27
BRANCH  13  32
HETATM   32  O   UNK N   1      29.903  20.723  -4.191  0.00  0.00    -0.395 OA
HETATM   33  H   UNK N   1      29.115  20.197  -3.984  0.00  0.00     0.210 HD
ENDBRANCH  13  32
TORSDOF 4
ENDMDL
MODEL 7
REMARK VINA RESULT:      -7.2     12.577     14.933
REMARK  4 active torsions:
REMARK  status: ('A' for Active; 'I' for Inactive)
REMARK    1  A    between atoms: C_16  and  O_4 
REMARK    2  A    between atoms: O_6  and  C_28 
REMARK    3  A    between atoms: C_11  and  C_22 
REMARK    4  A    between atoms: C_22  and  C_28 
ROOT
HETATM    1  F   UNK N   1      30.904  29.510  -2.729  0.00  0.00    -0.245 F 
HETATM    2  O   UNK N   1      32.663  21.784  -5.759  0.00  0.00    -0.334 OA
HETATM    3  O   UNK N   1      34.006  23.180  -4.682  0.00  0.00    -0.347 OA
HETATM    4  O   UNK N   1      26.200  30.791  -3.388  0.00  0.00    -0.293 OA
HETATM    5  C   UNK N   1      30.668  23.666  -4.460  0.00  0.00     0.004 C 
HETATM    6  C   UNK N   1      31.314  25.061  -4.180  0.00  0.00     0.004 C 
HETATM    7  C   UNK N   1      30.451  26.280  -4.618  0.00  0.00     0.001 C 
HETATM    8  C   UNK N   1      31.706  22.540  -5.021  0.00  0.00     0.160 C 
HETATM    9  C   UNK N   1      29.009  26.047  -4.097  0.00  0.00     0.031 C 
HETATM   10  C   UNK N   1      32.599  25.068  -4.860  0.00  0.00     0.041 C 
HETATM   11  C   UNK N   1      32.836  23.653  -5.258  0.00  0.00     0.168 C 
HETATM   12  C   UNK N   1      29.452  23.838  -5.404  0.00  0.00     0.045 C 
HETATM   13  C   UNK N   1      28.402  24.853  -4.883  0.00  0.00     0.124 C 
HETATM   14  C   UNK N   1      28.145  27.331  -4.180  0.00  0.00    -0.011 C 
HETATM   15  C   UNK N   1      31.080  27.626  -4.182  0.00  0.00     0.047 C 
HETATM   16  C   UNK N   1      30.144  23.249  -3.062  0.00  0.00     0.019 C 
HETATM   17  C   UNK N   1      28.868  28.474  -3.473  0.00  0.00    -0.034 C 
HETATM   18  C   UNK N   1      30.312  28.300  -3.052  0.00  0.00     0.200 C 
HETATM   19  C   UNK N   1      33.869  21.852  -5.029  0.00  0.00     0.159 C 
HETATM   20  C   UNK N   1      26.770  27.160  -3.520  0.00  0.00     0.022 C 
HETATM   21  C   UNK N   1      27.939  27.711  -5.652  0.00  0.00     0.021 C 
HETATM   22  C   UNK N   1      25.932  28.452  -3.638  0.00  0.00     0.084 C 
HETATM   23  C   UNK N   1      28.213  29.618  -3.208  0.00  0.00     0.056 C 
HETATM   24  C   UNK N   1      33.847  20.968  -3.784  0.00  0.00     0.078 C 
HETATM   25  C   UNK N   1      35.028  21.439  -5.914  0.00  0.00     0.078 C 
HETATM   26  C   UNK N   1      26.754  29.706  -3.432  0.00  0.00     0.149 C 
ENDROOT
BRANCH   8  27
HETATM   27  C   UNK N   1      30.792  21.205  -4.926  0.00  0.00     0.188 C 
HETATM   28  O   UNK N   1      30.521  20.682  -3.850  0.00  0.00    -0.292 OA
BRANCH  27  29
HETATM   29  C   UNK N   1      30.128  20.533  -6.120  0.00  0.00     0.245 C 
BRANCH  29  30
HETATM   30  O   UNK N   1      31.068  19.784  -6.830  0.00  0.00    -0.393 OA
HETATM   31  H   UNK N   1      31.891  19.979  -7.305  0.00  0.00     0.209 HD
ENDBRANCH  29  30
ENDBRANCH  27  29
ENDBRANCH   8  27
BRANCH  13  32
HETATM   32  O   UNK N   1      27.410  24.215  -4.133  0.00  0.00    -0.395 OA
HETATM   33  H   UNK N   1      27.304  23.403  -3.614  0.00  0.00     0.210 HD
ENDBRANCH  13  32
TORSDOF 4
ENDMDL
MODEL 8
REMARK VINA RESULT:      -7.1     12.704     15.307
REMARK  4 active torsions:
REMARK  status: ('A' for Active; 'I' for Inactive)
REMARK    1  A    between atoms: C_16  and  O_4 
REMARK    2  A    between atoms: O_6  and  C_28 
REMARK    3  A    between atoms: C_11  and  C_22 
REMARK    4  A    between atoms: C_22  and  C_28 
ROOT
HETATM    1  F   UNK N   1      25.925  27.145  -7.616  0.00  0.00    -0.245 F 
HETATM    2  O   UNK N   1      30.185  19.910  -6.403  0.00  0.00    -0.334 OA
HETATM    3  O   UNK N   1      29.158  20.614  -8.237  0.00  0.00    -0.347 OA
HETATM    4  O   UNK N   1      26.019  30.096  -3.681  0.00  0.00    -0.293 OA
HETATM    5  C   UNK N   1      29.909  22.880  -5.844  0.00  0.00     0.004 C 
HETATM    6  C   UNK N   1      28.709  23.490  -6.637  0.00  0.00     0.004 C 
HETATM    7  C   UNK N   1      27.770  24.406  -5.800  0.00  0.00     0.001 C 
HETATM    8  C   UNK N   1      30.229  21.319  -6.195  0.00  0.00     0.160 C 
HETATM    9  C   UNK N   1      28.663  25.387  -4.996  0.00  0.00     0.031 C 
HETATM   10  C   UNK N   1      27.971  22.372  -7.201  0.00  0.00     0.041 C 
HETATM   11  C   UNK N   1      28.854  21.188  -7.012  0.00  0.00     0.168 C 
HETATM   12  C   UNK N   1      29.683  23.086  -4.325  0.00  0.00     0.045 C 
HETATM   13  C   UNK N   1      29.439  24.565  -3.931  0.00  0.00     0.124 C 
HETATM   14  C   UNK N   1      27.845  26.553  -4.387  0.00  0.00    -0.011 C 
HETATM   15  C   UNK N   1      26.692  25.092  -6.675  0.00  0.00     0.047 C 
HETATM   16  C   UNK N   1      31.097  23.773  -6.286  0.00  0.00     0.019 C 
HETATM   17  C   UNK N   1      27.036  27.234  -5.488  0.00  0.00    -0.034 C 
HETATM   18  C   UNK N   1      26.936  26.585  -6.853  0.00  0.00     0.200 C 
HETATM   19  C   UNK N   1      30.112  19.718  -7.799  0.00  0.00     0.159 C 
HETATM   20  C   UNK N   1      28.735  27.616  -3.728  0.00  0.00     0.022 C 
HETATM   21  C   UNK N   1      26.878  26.000  -3.332  0.00  0.00     0.021 C 
HETATM   22  C   UNK N   1      27.885  28.752  -3.117  0.00  0.00     0.084 C 
HETATM   23  C   UNK N   1      26.438  28.413  -5.248  0.00  0.00     0.056 C 
HETATM   24  C   UNK N   1      31.450  19.972  -8.492  0.00  0.00     0.078 C 
HETATM   25  C   UNK N   1      29.655  18.305  -8.100  0.00  0.00     0.078 C 
HETATM   26  C   UNK N   1      26.710  29.139  -3.989  0.00  0.00     0.149 C 
ENDROOT
BRANCH   8  27
HETATM   27  C   UNK N   1      31.646  21.118  -5.436  0.00  0.00     0.188 C 
HETATM   28  O   UNK N   1      32.700  21.522  -5.916  0.00  0.00    -0.292 OA
BRANCH  27  29
HETATM   29  C   UNK N   1      31.798  20.500  -4.052  0.00  0.00     0.245 C 
BRANCH  29  30
HETATM   30  O   UNK N   1      32.197  19.167  -4.167  0.00  0.00    -0.393 OA
HETATM   31  H   UNK N   1      32.002  18.437  -4.775  0.00  0.00     0.209 HD
ENDBRANCH  29  30
ENDBRANCH  27  29
ENDBRANCH   8  27
BRANCH  13  32
HETATM   32  O   UNK N   1      30.634  25.202  -3.584  0.00  0.00    -0.395 OA
HETATM   33  H   UNK N   1      31.555  25.227  -3.886  0.00  0.00     0.210 HD
ENDBRANCH  13  32
TORSDOF 4
ENDMDL
MODEL 9
REMARK VINA RESULT:      -7.1      3.346      8.279
REMARK  4 active torsions:
REMARK  status: ('A' for Active; 'I' for Inactive)
REMARK    1  A    between atoms: C_16  and  O_4 
REMARK    2  A    between atoms: O_6  and  C_28 
REMARK    3  A    between atoms: C_11  and  C_22 
REMARK    4  A    between atoms: C_22  and  C_28 
ROOT
HETATM    1  F   UNK N   1      35.984   9.815   8.684  0.00  0.00    -0.245 F 
HETATM    2  O   UNK N   1      33.111  17.352   6.055  0.00  0.00    -0.334 OA
HETATM    3  O   UNK N   1      33.004  15.397   5.015  0.00  0.00    -0.347 OA
HETATM    4  O   UNK N   1      37.941   9.987  13.194  0.00  0.00    -0.293 OA
HETATM    5  C   UNK N   1      33.599  15.418   8.342  0.00  0.00     0.004 C 
HETATM    6  C   UNK N   1      34.189  14.069   7.820  0.00  0.00     0.004 C 
HETATM    7  C   UNK N   1      35.416  13.540   8.618  0.00  0.00     0.001 C 
HETATM    8  C   UNK N   1      33.164  16.466   7.171  0.00  0.00     0.160 C 
HETATM    9  C   UNK N   1      35.068  13.627  10.127  0.00  0.00     0.031 C 
HETATM   10  C   UNK N   1      34.534  14.280   6.424  0.00  0.00     0.041 C 
HETATM   11  C   UNK N   1      33.901  15.577   6.058  0.00  0.00     0.168 C 
HETATM   12  C   UNK N   1      34.590  16.064   9.343  0.00  0.00     0.045 C 
HETATM   13  C   UNK N   1      34.985  15.128  10.515  0.00  0.00     0.124 C 
HETATM   14  C   UNK N   1      36.068  12.829  11.002  0.00  0.00    -0.011 C 
HETATM   15  C   UNK N   1      35.859  12.135   8.142  0.00  0.00     0.047 C 
HETATM   16  C   UNK N   1      32.344  14.957   9.128  0.00  0.00     0.019 C 
HETATM   17  C   UNK N   1      36.164  11.396  10.483  0.00  0.00    -0.034 C 
HETATM   18  C   UNK N   1      35.537  11.039   9.151  0.00  0.00     0.200 C 
HETATM   19  C   UNK N   1      32.438  16.656   5.029  0.00  0.00     0.159 C 
HETATM   20  C   UNK N   1      35.646  12.770  12.476  0.00  0.00     0.022 C 
HETATM   21  C   UNK N   1      37.454  13.480  10.913  0.00  0.00     0.021 C 
HETATM   22  C   UNK N   1      36.674  11.984  13.319  0.00  0.00     0.084 C 
HETATM   23  C   UNK N   1      36.781  10.457  11.219  0.00  0.00     0.056 C 
HETATM   24  C   UNK N   1      30.933  16.568   5.275  0.00  0.00     0.078 C 
HETATM   25  C   UNK N   1      32.687  17.337   3.698  0.00  0.00     0.078 C 
HETATM   26  C   UNK N   1      37.205  10.761  12.603  0.00  0.00     0.149 C 
ENDROOT
BRANCH   8  27
HETATM   27  C   UNK N   1      32.365  17.580   8.035  0.00  0.00     0.188 C 
HETATM   28  O   UNK N   1      32.864  18.665   8.313  0.00  0.00    -0.292 OA
BRANCH  27  29
HETATM   29  C   UNK N   1      30.924  17.429   8.504  0.00  0.00     0.245 C 
BRANCH  29  30
HETATM   30  O   UNK N   1      30.620  18.423   9.437  0.00  0.00    -0.393 OA
HETATM   31  H   UNK N   1      30.242  19.315   9.398  0.00  0.00     0.209 HD
ENDBRANCH  29  30
ENDBRANCH  27  29
ENDBRANCH   8  27
BRANCH  13  32
HETATM   32  O   UNK N   1      34.144  15.313  11.616  0.00  0.00    -0.395 OA
HETATM   33  H   UNK N   1      33.247  15.633  11.796  0.00  0.00     0.210 HD
ENDBRANCH  13  32
TORSDOF 4
ENDMDL
