MODEL 1
REMARK VINA RESULT:      -2.2      0.000      0.000
REMARK  3 active torsions:
REMARK  status: ('A' for Active; 'I' for Inactive)
REMARK    1  A    between atoms: S_1  and  C_4 
REMARK    2  A    between atoms: N_2  and  C_3 
REMARK    3  A    between atoms: C_3  and  C_4 
ROOT
HETATM    1  C   UNK N   1      20.990  20.251   1.267  0.00  0.00     0.121 C 
ENDROOT
BRANCH   1   2
HETATM    2  N   UNK N   1      20.324  21.210   0.407  0.00  0.00    -0.429 N 
HETATM    3  H   UNK N   1      19.466  21.665   0.720  0.00  0.00     0.149 HD
HETATM    4  H   UNK N   1      20.713  21.430  -0.510  0.00  0.00     0.149 HD
ENDBRANCH   1   2
BRANCH   1   5
HETATM    5  C   UNK N   1      20.915  20.732   2.700  0.00  0.00     0.089 C 
BRANCH   5   6
HETATM    6  S   UNK N   1      21.100  19.323   3.825  0.00  0.00    -0.181 SA
HETATM    7  H   UNK N   1      22.329  18.783   4.043  0.00  0.00     0.101 HD
ENDBRANCH   5   6
ENDBRANCH   1   5
TORSDOF 3
ENDMDL
MODEL 2
REMARK VINA RESULT:      -2.1     23.376     23.398
REMARK  3 active torsions:
REMARK  status: ('A' for Active; 'I' for Inactive)
REMARK    1  A    between atoms: S_1  and  C_4 
REMARK    2  A    between atoms: N_2  and  C_3 
REMARK    3  A    between atoms: C_3  and  C_4 
ROOT
HETATM    1  C   UNK N   1      44.276  21.932   4.195  0.00  0.00     0.121 C 
ENDROOT
BRANCH   1   2
HETATM    2  N   UNK N   1      45.695  22.231   4.174  0.00  0.00    -0.429 N 
HETATM    3  H   UNK N   1      46.076  22.936   4.805  0.00  0.00     0.149 HD
HETATM    4  H   UNK N   1      46.311  21.737   3.529  0.00  0.00     0.149 HD
ENDBRANCH   1   2
BRANCH   1   5
HETATM    5  C   UNK N   1      43.523  23.047   3.502  0.00  0.00     0.089 C 
BRANCH   5   6
HETATM    6  S   UNK N   1      42.290  22.341   2.376  0.00  0.00    -0.181 SA
HETATM    7  H   UNK N   1      42.043  21.004   2.390  0.00  0.00     0.101 HD
ENDBRANCH   5   6
ENDBRANCH   1   5
TORSDOF 3
ENDMDL
MODEL 3
REMARK VINA RESULT:      -2.1     12.039     12.197
REMARK  3 active torsions:
REMARK  status: ('A' for Active; 'I' for Inactive)
REMARK    1  A    between atoms: S_1  and  C_4 
REMARK    2  A    between atoms: N_2  and  C_3 
REMARK    3  A    between atoms: C_3  and  C_4 
ROOT
HETATM    1  C   UNK N   1      24.213  12.539  10.170  0.00  0.00     0.121 C 
ENDROOT
BRANCH   1   2
HETATM    2  N   UNK N   1      25.415  13.038  10.808  0.00  0.00    -0.429 N 
HETATM    3  H   UNK N   1      25.365  13.447  11.741  0.00  0.00     0.149 HD
HETATM    4  H   UNK N   1      26.311  12.980  10.323  0.00  0.00     0.149 HD
ENDBRANCH   1   2
BRANCH   1   5
HETATM    5  C   UNK N   1      23.203  12.168  11.235  0.00  0.00     0.089 C 
BRANCH   5   6
HETATM    6  S   UNK N   1      21.525  12.425  10.599  0.00  0.00    -0.181 SA
HETATM    7  H   UNK N   1      20.756  13.431  11.095  0.00  0.00     0.101 HD
ENDBRANCH   5   6
ENDBRANCH   1   5
TORSDOF 3
ENDMDL
MODEL 4
REMARK VINA RESULT:      -2.0      2.614      2.669
REMARK  3 active torsions:
REMARK  status: ('A' for Active; 'I' for Inactive)
REMARK    1  A    between atoms: S_1  and  C_4 
REMARK    2  A    between atoms: N_2  and  C_3 
REMARK    3  A    between atoms: C_3  and  C_4 
ROOT
HETATM    1  C   UNK N   1      19.834  18.432   3.018  0.00  0.00     0.121 C 
ENDROOT
BRANCH   1   2
HETATM    2  N   UNK N   1      18.611  18.622   2.263  0.00  0.00    -0.429 N 
HETATM    3  H   UNK N   1      17.919  19.304   2.576  0.00  0.00     0.149 HD
HETATM    4  H   UNK N   1      18.442  18.074   1.420  0.00  0.00     0.149 HD
ENDBRANCH   1   2
BRANCH   1   5
HETATM    5  C   UNK N   1      20.490  19.777   3.248  0.00  0.00     0.089 C 
BRANCH   5   6
HETATM    6  S   UNK N   1      20.847  20.561   1.653  0.00  0.00    -0.181 SA
HETATM    7  H   UNK N   1      20.103  21.620   1.234  0.00  0.00     0.101 HD
ENDBRANCH   5   6
ENDBRANCH   1   5
TORSDOF 3
ENDMDL
MODEL 5
REMARK VINA RESULT:      -2.0     12.169     12.344
REMARK  3 active torsions:
REMARK  status: ('A' for Active; 'I' for Inactive)
REMARK    1  A    between atoms: S_1  and  C_4 
REMARK    2  A    between atoms: N_2  and  C_3 
REMARK    3  A    between atoms: C_3  and  C_4 
ROOT
HETATM    1  C   UNK N   1      22.630  12.053  11.170  0.00  0.00     0.121 C 
ENDROOT
BRANCH   1   2
HETATM    2  N   UNK N   1      22.611  11.637  12.559  0.00  0.00    -0.429 N 
HETATM    3  H   UNK N   1      23.478  11.617  13.096  0.00  0.00     0.149 HD
HETATM    4  H   UNK N   1      21.732  11.365  12.998  0.00  0.00     0.149 HD
ENDBRANCH   1   2
BRANCH   1   5
HETATM    5  C   UNK N   1      21.232  12.454  10.752  0.00  0.00     0.089 C 
BRANCH   5   6
HETATM    6  S   UNK N   1      21.314  13.898   9.659  0.00  0.00    -0.181 SA
HETATM    7  H   UNK N   1      20.177  14.392   9.099  0.00  0.00     0.101 HD
ENDBRANCH   5   6
ENDBRANCH   1   5
TORSDOF 3
ENDMDL
MODEL 6
REMARK VINA RESULT:      -2.0      9.265      9.503
REMARK  3 active torsions:
REMARK  status: ('A' for Active; 'I' for Inactive)
REMARK    1  A    between atoms: S_1  and  C_4 
REMARK    2  A    between atoms: N_2  and  C_3 
REMARK    3  A    between atoms: C_3  and  C_4 
ROOT
HETATM    1  C   UNK N   1      17.109  27.062   7.506  0.00  0.00     0.121 C 
ENDROOT
BRANCH   1   2
HETATM    2  N   UNK N   1      17.988  25.977   7.114  0.00  0.00    -0.429 N 
HETATM    3  H   UNK N   1      18.811  25.759   7.676  0.00  0.00     0.149 HD
HETATM    4  H   UNK N   1      17.784  25.433   6.275  0.00  0.00     0.149 HD
ENDBRANCH   1   2
BRANCH   1   5
HETATM    5  C   UNK N   1      16.977  27.074   9.013  0.00  0.00     0.089 C 
BRANCH   5   6
HETATM    6  S   UNK N   1      18.482  26.396   9.762  0.00  0.00    -0.181 SA
HETATM    7  H   UNK N   1      19.223  27.160  10.610  0.00  0.00     0.101 HD
ENDBRANCH   5   6
ENDBRANCH   1   5
TORSDOF 3
ENDMDL
MODEL 7
REMARK VINA RESULT:      -2.0     31.980     32.087
REMARK  3 active torsions:
REMARK  status: ('A' for Active; 'I' for Inactive)
REMARK    1  A    between atoms: S_1  and  C_4 
REMARK    2  A    between atoms: N_2  and  C_3 
REMARK    3  A    between atoms: C_3  and  C_4 
ROOT
HETATM    1  C   UNK N   1      47.645  29.310  17.640  0.00  0.00     0.121 C 
ENDROOT
BRANCH   1   2
HETATM    2  N   UNK N   1      47.179  28.850  16.347  0.00  0.00    -0.429 N 
HETATM    3  H   UNK N   1      46.208  28.563  16.227  0.00  0.00     0.149 HD
HETATM    4  H   UNK N   1      47.823  28.814  15.556  0.00  0.00     0.149 HD
ENDBRANCH   1   2
BRANCH   1   5
HETATM    5  C   UNK N   1      46.453  29.548  18.542  0.00  0.00     0.089 C 
BRANCH   5   6
HETATM    6  S   UNK N   1      46.758  30.998  19.586  0.00  0.00    -0.181 SA
HETATM    7  H   UNK N   1      46.884  30.853  20.932  0.00  0.00     0.101 HD
ENDBRANCH   5   6
ENDBRANCH   1   5
TORSDOF 3
ENDMDL
MODEL 8
REMARK VINA RESULT:      -1.9     15.650     15.769
REMARK  3 active torsions:
REMARK  status: ('A' for Active; 'I' for Inactive)
REMARK    1  A    between atoms: S_1  and  C_4 
REMARK    2  A    between atoms: N_2  and  C_3 
REMARK    3  A    between atoms: C_3  and  C_4 
ROOT
HETATM    1  C   UNK N   1      34.661  16.611   9.215  0.00  0.00     0.121 C 
ENDROOT
BRANCH   1   2
HETATM    2  N   UNK N   1      34.974  17.021  10.570  0.00  0.00    -0.429 N 
HETATM    3  H   UNK N   1      35.312  17.967  10.751  0.00  0.00     0.149 HD
HETATM    4  H   UNK N   1      34.857  16.365  11.342  0.00  0.00     0.149 HD
ENDBRANCH   1   2
BRANCH   1   5
HETATM    5  C   UNK N   1      34.388  17.839   8.374  0.00  0.00     0.089 C 
BRANCH   5   6
HETATM    6  S   UNK N   1      33.804  17.337   6.734  0.00  0.00    -0.181 SA
HETATM    7  H   UNK N   1      32.944  18.134   6.044  0.00  0.00     0.101 HD
ENDBRANCH   5   6
ENDBRANCH   1   5
TORSDOF 3
ENDMDL
MODEL 9
REMARK VINA RESULT:      -1.9     11.207     11.370
REMARK  3 active torsions:
REMARK  status: ('A' for Active; 'I' for Inactive)
REMARK    1  A    between atoms: S_1  and  C_4 
REMARK    2  A    between atoms: N_2  and  C_3 
REMARK    3  A    between atoms: C_3  and  C_4 
ROOT
HETATM    1  C   UNK N   1      28.854  18.084   8.356  0.00  0.00     0.121 C 
ENDROOT
BRANCH   1   2
HETATM    2  N   UNK N   1      27.666  18.468   9.094  0.00  0.00    -0.429 N 
HETATM    3  H   UNK N   1      27.551  19.432   9.407  0.00  0.00     0.149 HD
HETATM    4  H   UNK N   1      26.947  17.775   9.299  0.00  0.00     0.149 HD
ENDBRANCH   1   2
BRANCH   1   5
HETATM    5  C   UNK N   1      30.081  18.502   9.136  0.00  0.00     0.089 C 
BRANCH   5   6
HETATM    6  S   UNK N   1      31.549  17.704   8.435  0.00  0.00    -0.181 SA
HETATM    7  H   UNK N   1      31.440  16.493   7.826  0.00  0.00     0.101 HD
ENDBRANCH   5   6
ENDBRANCH   1   5
TORSDOF 3
ENDMDL
