MODEL 1
REMARK VINA RESULT:      -6.2      0.000      0.000
REMARK  2 active torsions:
REMARK  status: ('A' for Active; 'I' for Inactive)
REMARK    1  A    between atoms: C_6  and  C_7 
REMARK    2  A    between atoms: C_6  and  C_8 
ROOT
HETATM    1  O   UNK N   1      32.338  14.593   9.131  0.00  0.00    -0.271 OA
HETATM    2  O   UNK N   1      33.896  18.286   6.673  0.00  0.00    -0.271 OA
HETATM    3  O   UNK N   1      35.781  17.108  10.515  0.00  0.00    -0.246 OA
HETATM    4  N   UNK N   1      34.061  15.830   9.854  0.00  0.00    -0.273 N 
HETATM    5  N   UNK N   1      34.823  17.692   8.601  0.00  0.00    -0.277 N 
HETATM    6  C   UNK N   1      32.918  16.365   7.662  0.00  0.00     0.149 A 
HETATM    7  C   UNK N   1      33.089  15.543   8.938  0.00  0.00     0.250 A 
HETATM    8  C   UNK N   1      33.910  17.510   7.618  0.00  0.00     0.248 A 
HETATM    9  C   UNK N   1      34.915  16.882   9.683  0.00  0.00     0.331 A 
HETATM   10  C   UNK N   1      34.195  14.993  11.028  0.00  0.00     0.164 C 
HETATM   11  H   UNK N   1      35.449  18.448   8.526  0.00  0.00     0.173 HD
ENDROOT
BRANCH   6  12
HETATM   12  C   UNK N   1      33.254  15.476   6.439  0.00  0.00     0.030 C 
HETATM   13  C   UNK N   1      34.644  14.852   6.432  0.00  0.00     0.007 C 
ENDBRANCH   6  12
BRANCH   6  14
HETATM   14  C   UNK N   1      31.502  16.948   7.611  0.00  0.00    -0.031 A 
HETATM   15  C   UNK N   1      31.022  17.798   8.626  0.00  0.00     0.009 A 
HETATM   16  C   UNK N   1      29.726  18.314   8.571  0.00  0.00     0.001 A 
HETATM   17  C   UNK N   1      28.882  17.974   7.513  0.00  0.00     0.000 A 
HETATM   18  C   UNK N   1      29.340  17.126   6.502  0.00  0.00     0.001 A 
HETATM   19  C   UNK N   1      30.644  16.623   6.544  0.00  0.00     0.009 A 
ENDBRANCH   6  14
TORSDOF 2
ENDMDL
MODEL 2
REMARK VINA RESULT:      -6.1      7.138      9.801
REMARK  2 active torsions:
REMARK  status: ('A' for Active; 'I' for Inactive)
REMARK    1  A    between atoms: C_6  and  C_7 
REMARK    2  A    between atoms: C_6  and  C_8 
ROOT
HETATM    1  O   UNK N   1      37.742  11.273  14.629  0.00  0.00    -0.271 OA
HETATM    2  O   UNK N   1      33.071  10.744  14.679  0.00  0.00    -0.271 OA
HETATM    3  O   UNK N   1      35.158  12.498  11.177  0.00  0.00    -0.246 OA
HETATM    4  N   UNK N   1      36.481  11.899  12.885  0.00  0.00    -0.273 N 
HETATM    5  N   UNK N   1      34.127  11.629  12.938  0.00  0.00    -0.277 N 
HETATM    6  C   UNK N   1      35.427  10.850  14.932  0.00  0.00     0.149 A 
HETATM    7  C   UNK N   1      36.623  11.362  14.134  0.00  0.00     0.250 A 
HETATM    8  C   UNK N   1      34.133  11.074  14.174  0.00  0.00     0.248 A 
HETATM    9  C   UNK N   1      35.254  12.023  12.299  0.00  0.00     0.331 A 
HETATM   10  C   UNK N   1      37.658  12.336  12.165  0.00  0.00     0.164 C 
HETATM   11  H   UNK N   1      33.262  11.751  12.483  0.00  0.00     0.173 HD
ENDROOT
BRANCH   6  12
HETATM   12  C   UNK N   1      35.549   9.314  15.099  0.00  0.00     0.030 C 
HETATM   13  C   UNK N   1      35.677   8.514  13.808  0.00  0.00     0.007 C 
ENDBRANCH   6  12
BRANCH   6  14
HETATM   14  C   UNK N   1      35.340  11.594  16.268  0.00  0.00    -0.031 A 
HETATM   15  C   UNK N   1      35.190  12.994  16.319  0.00  0.00     0.009 A 
HETATM   16  C   UNK N   1      35.123  13.661  17.544  0.00  0.00     0.001 A 
HETATM   17  C   UNK N   1      35.226  12.943  18.737  0.00  0.00     0.000 A 
HETATM   18  C   UNK N   1      35.383  11.555  18.704  0.00  0.00     0.001 A 
HETATM   19  C   UNK N   1      35.431  10.883  17.478  0.00  0.00     0.009 A 
ENDBRANCH   6  14
TORSDOF 2
ENDMDL
MODEL 3
REMARK VINA RESULT:      -5.6      1.498      1.970
REMARK  2 active torsions:
REMARK  status: ('A' for Active; 'I' for Inactive)
REMARK    1  A    between atoms: C_6  and  C_7 
REMARK    2  A    between atoms: C_6  and  C_8 
ROOT
HETATM    1  O   UNK N   1      31.547  14.456   7.124  0.00  0.00    -0.271 OA
HETATM    2  O   UNK N   1      33.057  18.721   8.401  0.00  0.00    -0.271 OA
HETATM    3  O   UNK N   1      34.774  15.035  10.181  0.00  0.00    -0.246 OA
HETATM    4  N   UNK N   1      33.162  14.708   8.657  0.00  0.00    -0.273 N 
HETATM    5  N   UNK N   1      33.900  16.869   9.291  0.00  0.00    -0.277 N 
HETATM    6  C   UNK N   1      32.121  16.721   7.534  0.00  0.00     0.149 A 
HETATM    7  C   UNK N   1      32.259  15.219   7.767  0.00  0.00     0.250 A 
HETATM    8  C   UNK N   1      33.055  17.499   8.440  0.00  0.00     0.248 A 
HETATM    9  C   UNK N   1      33.970  15.521   9.399  0.00  0.00     0.331 A 
HETATM   10  C   UNK N   1      33.270  13.272   8.810  0.00  0.00     0.164 C 
HETATM   11  H   UNK N   1      34.491  17.417   9.857  0.00  0.00     0.173 HD
ENDROOT
BRANCH   6  12
HETATM   12  C   UNK N   1      32.571  17.053   6.090  0.00  0.00     0.030 C 
HETATM   13  C   UNK N   1      33.980  16.611   5.714  0.00  0.00     0.007 C 
ENDBRANCH   6  12
BRANCH   6  14
HETATM   14  C   UNK N   1      30.683  17.159   7.832  0.00  0.00    -0.031 A 
HETATM   15  C   UNK N   1      29.809  17.554   6.801  0.00  0.00     0.009 A 
HETATM   16  C   UNK N   1      28.504  17.962   7.087  0.00  0.00     0.001 A 
HETATM   17  C   UNK N   1      28.059  18.001   8.409  0.00  0.00     0.000 A 
HETATM   18  C   UNK N   1      28.916  17.621   9.445  0.00  0.00     0.001 A 
HETATM   19  C   UNK N   1      30.217  17.193   9.159  0.00  0.00     0.009 A 
ENDBRANCH   6  14
TORSDOF 2
ENDMDL
MODEL 4
REMARK VINA RESULT:      -5.5     14.468     16.385
REMARK  2 active torsions:
REMARK  status: ('A' for Active; 'I' for Inactive)
REMARK    1  A    between atoms: C_6  and  C_7 
REMARK    2  A    between atoms: C_6  and  C_8 
ROOT
HETATM    1  O   UNK N   1      26.861  24.283  -2.568  0.00  0.00    -0.271 OA
HETATM    2  O   UNK N   1      28.063  25.704  -6.886  0.00  0.00    -0.271 OA
HETATM    3  O   UNK N   1      30.655  22.958  -4.553  0.00  0.00    -0.246 OA
HETATM    4  N   UNK N   1      28.767  23.602  -3.529  0.00  0.00    -0.273 N 
HETATM    5  N   UNK N   1      29.355  24.338  -5.703  0.00  0.00    -0.277 N 
HETATM    6  C   UNK N   1      27.177  25.137  -4.759  0.00  0.00     0.149 A 
HETATM    7  C   UNK N   1      27.600  24.313  -3.546  0.00  0.00     0.250 A 
HETATM    8  C   UNK N   1      28.230  25.078  -5.849  0.00  0.00     0.248 A 
HETATM    9  C   UNK N   1      29.623  23.612  -4.593  0.00  0.00     0.331 A 
HETATM   10  C   UNK N   1      29.097  22.812  -2.361  0.00  0.00     0.164 C 
HETATM   11  H   UNK N   1      30.008  24.329  -6.440  0.00  0.00     0.173 HD
ENDROOT
BRANCH   6  12
HETATM   12  C   UNK N   1      25.903  24.509  -5.378  0.00  0.00     0.030 C 
HETATM   13  C   UNK N   1      26.081  23.135  -6.013  0.00  0.00     0.007 C 
ENDBRANCH   6  12
BRANCH   6  14
HETATM   14  C   UNK N   1      26.987  26.601  -4.349  0.00  0.00    -0.031 A 
HETATM   15  C   UNK N   1      25.737  27.239  -4.468  0.00  0.00     0.009 A 
HETATM   16  C   UNK N   1      25.580  28.577  -4.100  0.00  0.00     0.001 A 
HETATM   17  C   UNK N   1      26.673  29.304  -3.627  0.00  0.00     0.000 A 
HETATM   18  C   UNK N   1      27.922  28.688  -3.511  0.00  0.00     0.001 A 
HETATM   19  C   UNK N   1      28.077  27.343  -3.860  0.00  0.00     0.009 A 
ENDBRANCH   6  14
TORSDOF 2
ENDMDL
MODEL 5
REMARK VINA RESULT:      -5.5     14.176     16.382
REMARK  2 active torsions:
REMARK  status: ('A' for Active; 'I' for Inactive)
REMARK    1  A    between atoms: C_6  and  C_7 
REMARK    2  A    between atoms: C_6  and  C_8 
ROOT
HETATM    1  O   UNK N   1      29.653  26.420  -5.499  0.00  0.00    -0.271 OA
HETATM    2  O   UNK N   1      26.020  24.075  -3.655  0.00  0.00    -0.271 OA
HETATM    3  O   UNK N   1      26.716  28.359  -2.722  0.00  0.00    -0.246 OA
HETATM    4  N   UNK N   1      28.205  27.421  -4.112  0.00  0.00    -0.273 N 
HETATM    5  N   UNK N   1      26.386  26.215  -3.189  0.00  0.00    -0.277 N 
HETATM    6  C   UNK N   1      27.907  24.994  -4.759  0.00  0.00     0.149 A 
HETATM    7  C   UNK N   1      28.646  26.329  -4.806  0.00  0.00     0.250 A 
HETATM    8  C   UNK N   1      26.712  25.067  -3.829  0.00  0.00     0.248 A 
HETATM    9  C   UNK N   1      27.091  27.363  -3.324  0.00  0.00     0.331 A 
HETATM   10  C   UNK N   1      28.930  28.670  -4.224  0.00  0.00     0.164 C 
HETATM   11  H   UNK N   1      25.598  26.215  -2.598  0.00  0.00     0.173 HD
ENDROOT
BRANCH   6  12
HETATM   12  C   UNK N   1      27.324  24.688  -6.162  0.00  0.00     0.030 C 
HETATM   13  C   UNK N   1      26.367  25.732  -6.725  0.00  0.00     0.007 C 
ENDBRANCH   6  12
BRANCH   6  14
HETATM   14  C   UNK N   1      28.851  23.900  -4.249  0.00  0.00    -0.031 A 
HETATM   15  C   UNK N   1      29.278  22.851  -5.087  0.00  0.00     0.009 A 
HETATM   16  C   UNK N   1      30.130  21.855  -4.606  0.00  0.00     0.001 A 
HETATM   17  C   UNK N   1      30.551  21.878  -3.276  0.00  0.00     0.000 A 
HETATM   18  C   UNK N   1      30.129  22.906  -2.429  0.00  0.00     0.001 A 
HETATM   19  C   UNK N   1      29.292  23.916  -2.914  0.00  0.00     0.009 A 
ENDBRANCH   6  14
TORSDOF 2
ENDMDL
MODEL 6
REMARK VINA RESULT:      -5.5      2.600      4.273
REMARK  2 active torsions:
REMARK  status: ('A' for Active; 'I' for Inactive)
REMARK    1  A    between atoms: C_6  and  C_7 
REMARK    2  A    between atoms: C_6  and  C_8 
ROOT
HETATM    1  O   UNK N   1      31.098  17.590   4.875  0.00  0.00    -0.271 OA
HETATM    2  O   UNK N   1      32.193  15.041   8.670  0.00  0.00    -0.271 OA
HETATM    3  O   UNK N   1      31.444  13.123   4.738  0.00  0.00    -0.246 OA
HETATM    4  N   UNK N   1      31.261  15.358   4.770  0.00  0.00    -0.273 N 
HETATM    5  N   UNK N   1      31.806  14.094   6.700  0.00  0.00    -0.277 N 
HETATM    6  C   UNK N   1      31.699  16.584   6.938  0.00  0.00     0.149 A 
HETATM    7  C   UNK N   1      31.328  16.536   5.458  0.00  0.00     0.250 A 
HETATM    8  C   UNK N   1      31.912  15.188   7.490  0.00  0.00     0.248 A 
HETATM    9  C   UNK N   1      31.502  14.161   5.382  0.00  0.00     0.331 A 
HETATM   10  C   UNK N   1      30.936  15.380   3.359  0.00  0.00     0.164 C 
HETATM   11  H   UNK N   1      31.957  13.208   7.102  0.00  0.00     0.173 HD
ENDROOT
BRANCH   6  12
HETATM   12  C   UNK N   1      33.061  17.306   7.095  0.00  0.00     0.030 C 
HETATM   13  C   UNK N   1      34.210  16.744   6.267  0.00  0.00     0.007 C 
ENDBRANCH   6  12
BRANCH   6  14
HETATM   14  C   UNK N   1      30.571  17.251   7.732  0.00  0.00    -0.031 A 
HETATM   15  C   UNK N   1      30.845  18.143   8.787  0.00  0.00     0.009 A 
HETATM   16  C   UNK N   1      29.807  18.736   9.509  0.00  0.00     0.001 A 
HETATM   17  C   UNK N   1      28.479  18.431   9.203  0.00  0.00     0.000 A 
HETATM   18  C   UNK N   1      28.191  17.541   8.165  0.00  0.00     0.001 A 
HETATM   19  C   UNK N   1      29.228  16.962   7.427  0.00  0.00     0.009 A 
ENDBRANCH   6  14
TORSDOF 2
ENDMDL
MODEL 7
REMARK VINA RESULT:      -5.3      2.451      3.581
REMARK  2 active torsions:
REMARK  status: ('A' for Active; 'I' for Inactive)
REMARK    1  A    between atoms: C_6  and  C_7 
REMARK    2  A    between atoms: C_6  and  C_8 
ROOT
HETATM    1  O   UNK N   1      35.537  15.712   6.094  0.00  0.00    -0.271 OA
HETATM    2  O   UNK N   1      31.399  16.854   8.012  0.00  0.00    -0.271 OA
HETATM    3  O   UNK N   1      33.929  13.635   9.727  0.00  0.00    -0.246 OA
HETATM    4  N   UNK N   1      34.764  14.651   7.910  0.00  0.00    -0.273 N 
HETATM    5  N   UNK N   1      32.670  15.239   8.853  0.00  0.00    -0.277 N 
HETATM    6  C   UNK N   1      33.443  16.530   6.852  0.00  0.00     0.149 A 
HETATM    7  C   UNK N   1      34.647  15.596   6.930  0.00  0.00     0.250 A 
HETATM    8  C   UNK N   1      32.438  16.214   7.943  0.00  0.00     0.248 A 
HETATM    9  C   UNK N   1      33.793  14.483   8.856  0.00  0.00     0.331 A 
HETATM   10  C   UNK N   1      35.946  13.816   7.951  0.00  0.00     0.164 C 
HETATM   11  H   UNK N   1      31.990  15.073   9.546  0.00  0.00     0.173 HD
ENDROOT
BRANCH   6  12
HETATM   12  C   UNK N   1      33.910  17.982   7.125  0.00  0.00     0.030 C 
HETATM   13  C   UNK N   1      34.656  18.205   8.434  0.00  0.00     0.007 C 
ENDBRANCH   6  12
BRANCH   6  14
HETATM   14  C   UNK N   1      32.750  16.367   5.495  0.00  0.00    -0.031 A 
HETATM   15  C   UNK N   1      32.743  17.408   4.545  0.00  0.00     0.009 A 
HETATM   16  C   UNK N   1      32.099  17.249   3.316  0.00  0.00     0.001 A 
HETATM   17  C   UNK N   1      31.433  16.057   3.025  0.00  0.00     0.000 A 
HETATM   18  C   UNK N   1      31.423  15.019   3.959  0.00  0.00     0.001 A 
HETATM   19  C   UNK N   1      32.085  15.168   5.182  0.00  0.00     0.009 A 
ENDBRANCH   6  14
TORSDOF 2
ENDMDL
MODEL 8
REMARK VINA RESULT:      -5.2      2.320      5.116
REMARK  2 active torsions:
REMARK  status: ('A' for Active; 'I' for Inactive)
REMARK    1  A    between atoms: C_6  and  C_7 
REMARK    2  A    between atoms: C_6  and  C_8 
ROOT
HETATM    1  O   UNK N   1      31.951  14.337   7.242  0.00  0.00    -0.271 OA
HETATM    2  O   UNK N   1      34.585  18.229   7.097  0.00  0.00    -0.271 OA
HETATM    3  O   UNK N   1      32.268  16.875   3.561  0.00  0.00    -0.246 OA
HETATM    4  N   UNK N   1      32.087  15.581   5.384  0.00  0.00    -0.273 N 
HETATM    5  N   UNK N   1      33.429  17.535   5.333  0.00  0.00    -0.277 N 
HETATM    6  C   UNK N   1      33.326  16.256   7.484  0.00  0.00     0.149 A 
HETATM    7  C   UNK N   1      32.412  15.328   6.687  0.00  0.00     0.250 A 
HETATM    8  C   UNK N   1      33.821  17.401   6.622  0.00  0.00     0.248 A 
HETATM    9  C   UNK N   1      32.584  16.669   4.724  0.00  0.00     0.331 A 
HETATM   10  C   UNK N   1      31.189  14.682   4.691  0.00  0.00     0.164 C 
HETATM   11  H   UNK N   1      33.774  18.297   4.814  0.00  0.00     0.173 HD
ENDROOT
BRANCH   6  12
HETATM   12  C   UNK N   1      32.508  16.916   8.622  0.00  0.00     0.030 C 
HETATM   13  C   UNK N   1      31.237  17.641   8.193  0.00  0.00     0.007 C 
ENDBRANCH   6  12
BRANCH   6  14
HETATM   14  C   UNK N   1      34.540  15.473   7.993  0.00  0.00    -0.031 A 
HETATM   15  C   UNK N   1      34.903  15.487   9.354  0.00  0.00     0.009 A 
HETATM   16  C   UNK N   1      36.019  14.777   9.802  0.00  0.00     0.001 A 
HETATM   17  C   UNK N   1      36.802  14.060   8.896  0.00  0.00     0.000 A 
HETATM   18  C   UNK N   1      36.460  14.043   7.541  0.00  0.00     0.001 A 
HETATM   19  C   UNK N   1      35.332  14.736   7.093  0.00  0.00     0.009 A 
ENDBRANCH   6  14
TORSDOF 2
ENDMDL
MODEL 9
REMARK VINA RESULT:      -5.2     15.705     17.933
REMARK  2 active torsions:
REMARK  status: ('A' for Active; 'I' for Inactive)
REMARK    1  A    between atoms: C_6  and  C_7 
REMARK    2  A    between atoms: C_6  and  C_8 
ROOT
HETATM    1  O   UNK N   1      28.670  26.114  -7.214  0.00  0.00    -0.271 OA
HETATM    2  O   UNK N   1      25.314  23.028  -6.068  0.00  0.00    -0.271 OA
HETATM    3  O   UNK N   1      24.820  27.371  -5.293  0.00  0.00    -0.246 OA
HETATM    4  N   UNK N   1      26.758  26.778  -6.253  0.00  0.00    -0.273 N 
HETATM    5  N   UNK N   1      25.084  25.202  -5.677  0.00  0.00    -0.277 N 
HETATM    6  C   UNK N   1      27.157  24.338  -6.786  0.00  0.00     0.149 A 
HETATM    7  C   UNK N   1      27.575  25.805  -6.757  0.00  0.00     0.250 A 
HETATM    8  C   UNK N   1      25.793  24.150  -6.151  0.00  0.00     0.248 A 
HETATM    9  C   UNK N   1      25.533  26.479  -5.729  0.00  0.00     0.331 A 
HETATM   10  C   UNK N   1      27.197  28.158  -6.284  0.00  0.00     0.164 C 
HETATM   11  H   UNK N   1      24.201  25.031  -5.276  0.00  0.00     0.173 HD
ENDROOT
BRANCH   6  12
HETATM   12  C   UNK N   1      26.995  23.886  -8.259  0.00  0.00     0.030 C 
HETATM   13  C   UNK N   1      25.992  24.677  -9.090  0.00  0.00     0.007 C 
ENDBRANCH   6  12
BRANCH   6  14
HETATM   14  C   UNK N   1      28.173  23.496  -6.008  0.00  0.00    -0.031 A 
HETATM   15  C   UNK N   1      28.538  23.823  -4.687  0.00  0.00     0.009 A 
HETATM   16  C   UNK N   1      29.474  23.053  -3.993  0.00  0.00     0.001 A 
HETATM   17  C   UNK N   1      30.075  21.957  -4.614  0.00  0.00     0.000 A 
HETATM   18  C   UNK N   1      29.730  21.624  -5.926  0.00  0.00     0.001 A 
HETATM   19  C   UNK N   1      28.779  22.382  -6.616  0.00  0.00     0.009 A 
ENDBRANCH   6  14
TORSDOF 2
ENDMDL
