MODEL 1
REMARK VINA RESULT:      -6.5      0.000      0.000
REMARK  7 active torsions:
REMARK  status: ('A' for Active; 'I' for Inactive)
REMARK    1  A    between atoms: O_3  and  C_15 
REMARK    2  A    between atoms: N_4  and  C_11 
REMARK    3  A    between atoms: N_5  and  C_13 
REMARK    4  A    between atoms: N_6  and  C_14 
REMARK    5  A    between atoms: C_11  and  C_12 
REMARK    6  A    between atoms: C_12  and  C_14 
REMARK    7  A    between atoms: C_13  and  C_15 
ROOT
HETATM    1 Cl   UNK N   1      28.961  13.538   1.384  0.00  0.00    -0.084 Cl
HETATM    2  S   UNK N   1      27.229  17.968   5.573  0.00  0.00    -0.086 SA
HETATM    3  N   UNK N   1      29.953  16.288   5.645  0.00  0.00    -0.345 N 
HETATM    4  C   UNK N   1      29.034  16.030   4.578  0.00  0.00     0.053 A 
HETATM    5  C   UNK N   1      29.661  17.140   6.761  0.00  0.00     0.052 A 
HETATM    6  C   UNK N   1      27.794  16.696   4.457  0.00  0.00     0.032 A 
HETATM    7  C   UNK N   1      28.479  17.910   6.848  0.00  0.00     0.032 A 
HETATM    8  C   UNK N   1      29.371  15.063   3.608  0.00  0.00     0.054 A 
HETATM    9  C   UNK N   1      30.585  17.217   7.825  0.00  0.00     0.031 A 
HETATM   10  C   UNK N   1      26.943  16.386   3.387  0.00  0.00     0.023 A 
HETATM   11  C   UNK N   1      28.257  18.719   7.969  0.00  0.00     0.021 A 
HETATM   12  C   UNK N   1      28.511  14.759   2.555  0.00  0.00     0.036 A 
HETATM   13  C   UNK N   1      30.349  18.022   8.938  0.00  0.00     0.002 A 
HETATM   14  C   UNK N   1      27.296  15.422   2.443  0.00  0.00     0.025 A 
HETATM   15  C   UNK N   1      29.182  18.773   9.010  0.00  0.00     0.002 A 
ENDROOT
BRANCH   3  16
HETATM   16  C   UNK N   1      31.258  15.654   5.586  0.00  0.00     0.131 C 
BRANCH  16  17
HETATM   17  C   UNK N   1      32.229  16.473   4.762  0.00  0.00     0.050 C 
BRANCH  17  18
HETATM   18  C   UNK N   1      33.614  16.242   5.336  0.00  0.00     0.274 C 
BRANCH  18  19
HETATM   19  N   UNK N   1      33.590  16.243   6.792  0.00  0.00     0.091 N 
HETATM   20  C   UNK N   1      34.174  17.490   7.296  0.00  0.00     0.302 C 
HETATM   21  C   UNK N   1      34.203  17.455   8.824  0.00  0.00     0.302 C 
HETATM   22  N   UNK N   1      35.017  16.329   9.280  0.00  0.00     0.093 N 
HETATM   23  C   UNK N   1      34.463  15.082   8.742  0.00  0.00     0.302 C 
HETATM   24  C   UNK N   1      34.436  15.135   7.220  0.00  0.00     0.302 C 
BRANCH  22  25
HETATM   25  C   UNK N   1      34.899  16.275  10.730  0.00  0.00     0.298 C 
BRANCH  25  26
HETATM   26  C   UNK N   1      36.085  15.544  11.337  0.00  0.00     0.194 C 
BRANCH  26  27
HETATM   27  O   UNK N   1      37.255  15.943  10.696  0.00  0.00    -0.399 OA
HETATM   28  H   UNK N   1      37.422  16.814  10.302  0.00  0.00     0.209 HD
ENDBRANCH  26  27
ENDBRANCH  25  26
ENDBRANCH  22  25
ENDBRANCH  18  19
ENDBRANCH  17  18
ENDBRANCH  16  17
ENDBRANCH   3  16
TORSDOF 7
ENDMDL
MODEL 2
REMARK VINA RESULT:      -6.5      2.196      3.356
REMARK  7 active torsions:
REMARK  status: ('A' for Active; 'I' for Inactive)
REMARK    1  A    between atoms: O_3  and  C_15 
REMARK    2  A    between atoms: N_4  and  C_11 
REMARK    3  A    between atoms: N_5  and  C_13 
REMARK    4  A    between atoms: N_6  and  C_14 
REMARK    5  A    between atoms: C_11  and  C_12 
REMARK    6  A    between atoms: C_12  and  C_14 
REMARK    7  A    between atoms: C_13  and  C_15 
ROOT
HETATM    1 Cl   UNK N   1      34.159  14.587   2.839  0.00  0.00    -0.084 Cl
HETATM    2  S   UNK N   1      28.762  16.370   5.643  0.00  0.00    -0.086 SA
HETATM    3  N   UNK N   1      31.717  17.095   6.640  0.00  0.00    -0.345 N 
HETATM    4  C   UNK N   1      31.585  16.300   5.457  0.00  0.00     0.053 A 
HETATM    5  C   UNK N   1      30.616  17.456   7.486  0.00  0.00     0.052 A 
HETATM    6  C   UNK N   1      30.333  15.902   4.937  0.00  0.00     0.032 A 
HETATM    7  C   UNK N   1      29.272  17.167   7.158  0.00  0.00     0.032 A 
HETATM    8  C   UNK N   1      32.751  15.883   4.782  0.00  0.00     0.054 A 
HETATM    9  C   UNK N   1      30.877  18.127   8.700  0.00  0.00     0.031 A 
HETATM   10  C   UNK N   1      30.282  15.119   3.775  0.00  0.00     0.023 A 
HETATM   11  C   UNK N   1      28.247  17.547   8.033  0.00  0.00     0.021 A 
HETATM   12  C   UNK N   1      32.686  15.097   3.634  0.00  0.00     0.036 A 
HETATM   13  C   UNK N   1      29.847  18.495   9.564  0.00  0.00     0.002 A 
HETATM   14  C   UNK N   1      31.449  14.715   3.129  0.00  0.00     0.025 A 
HETATM   15  C   UNK N   1      28.530  18.203   9.230  0.00  0.00     0.002 A 
ENDROOT
BRANCH   3  16
HETATM   16  C   UNK N   1      33.044  17.567   6.996  0.00  0.00     0.131 C 
BRANCH  16  17
HETATM   17  C   UNK N   1      33.865  16.466   7.633  0.00  0.00     0.050 C 
BRANCH  17  18
HETATM   18  C   UNK N   1      34.316  16.970   8.992  0.00  0.00     0.274 C 
BRANCH  18  19
HETATM   19  N   UNK N   1      34.976  15.919   9.753  0.00  0.00     0.091 N 
HETATM   20  C   UNK N   1      34.049  14.804   9.967  0.00  0.00     0.302 C 
HETATM   21  C   UNK N   1      34.731  13.734  10.820  0.00  0.00     0.302 C 
HETATM   22  N   UNK N   1      35.105  14.298  12.117  0.00  0.00     0.093 N 
HETATM   23  C   UNK N   1      35.997  15.443  11.908  0.00  0.00     0.302 C 
HETATM   24  C   UNK N   1      35.306  16.496  11.051  0.00  0.00     0.302 C 
BRANCH  22  25
HETATM   25  C   UNK N   1      35.859  13.275  12.827  0.00  0.00     0.298 C 
BRANCH  25  26
HETATM   26  C   UNK N   1      35.825  13.527  14.325  0.00  0.00     0.194 C 
BRANCH  26  27
HETATM   27  O   UNK N   1      34.572  13.185  14.827  0.00  0.00    -0.399 OA
HETATM   28  H   UNK N   1      34.224  13.416  15.702  0.00  0.00     0.209 HD
ENDBRANCH  26  27
ENDBRANCH  25  26
ENDBRANCH  22  25
ENDBRANCH  18  19
ENDBRANCH  17  18
ENDBRANCH  16  17
ENDBRANCH   3  16
TORSDOF 7
ENDMDL
MODEL 3
REMARK VINA RESULT:      -6.4      6.634     11.180
REMARK  7 active torsions:
REMARK  status: ('A' for Active; 'I' for Inactive)
REMARK    1  A    between atoms: O_3  and  C_15 
REMARK    2  A    between atoms: N_4  and  C_11 
REMARK    3  A    between atoms: N_5  and  C_13 
REMARK    4  A    between atoms: N_6  and  C_14 
REMARK    5  A    between atoms: C_11  and  C_12 
REMARK    6  A    between atoms: C_12  and  C_14 
REMARK    7  A    between atoms: C_13  and  C_15 
ROOT
HETATM    1 Cl   UNK N   1      38.385   9.042  11.077  0.00  0.00    -0.084 Cl
HETATM    2  S   UNK N   1      35.759   9.454  16.831  0.00  0.00    -0.086 SA
HETATM    3  N   UNK N   1      36.423  11.917  14.897  0.00  0.00    -0.345 N 
HETATM    4  C   UNK N   1      36.739  10.599  14.435  0.00  0.00     0.053 A 
HETATM    5  C   UNK N   1      35.970  12.211  16.225  0.00  0.00     0.052 A 
HETATM    6  C   UNK N   1      36.510   9.441  15.212  0.00  0.00     0.032 A 
HETATM    7  C   UNK N   1      35.669  11.205  17.171  0.00  0.00     0.032 A 
HETATM    8  C   UNK N   1      37.314  10.443  13.157  0.00  0.00     0.054 A 
HETATM    9  C   UNK N   1      35.818  13.559  16.615  0.00  0.00     0.031 A 
HETATM   10  C   UNK N   1      36.850   8.182  14.696  0.00  0.00     0.023 A 
HETATM   11  C   UNK N   1      35.234  11.565  18.453  0.00  0.00     0.021 A 
HETATM   12  C   UNK N   1      37.656   9.187  12.662  0.00  0.00     0.036 A 
HETATM   13  C   UNK N   1      35.389  13.903  17.895  0.00  0.00     0.002 A 
HETATM   14  C   UNK N   1      37.423   8.054  13.431  0.00  0.00     0.025 A 
HETATM   15  C   UNK N   1      35.098  12.903  18.816  0.00  0.00     0.002 A 
ENDROOT
BRANCH   3  16
HETATM   16  C   UNK N   1      36.564  13.016  13.957  0.00  0.00     0.131 C 
BRANCH  16  17
HETATM   17  C   UNK N   1      35.255  13.309  13.256  0.00  0.00     0.050 C 
BRANCH  17  18
HETATM   18  C   UNK N   1      35.564  13.481  11.780  0.00  0.00     0.274 C 
BRANCH  18  19
HETATM   19  N   UNK N   1      34.841  14.611  11.216  0.00  0.00     0.091 N 
HETATM   20  C   UNK N   1      34.147  14.196   9.993  0.00  0.00     0.302 C 
HETATM   21  C   UNK N   1      33.443  15.404   9.374  0.00  0.00     0.302 C 
HETATM   22  N   UNK N   1      34.427  16.433   9.038  0.00  0.00     0.093 N 
HETATM   23  C   UNK N   1      35.155  16.820  10.250  0.00  0.00     0.302 C 
HETATM   24  C   UNK N   1      35.845  15.606  10.857  0.00  0.00     0.302 C 
BRANCH  22  25
HETATM   25  C   UNK N   1      33.686  17.598   8.576  0.00  0.00     0.298 C 
BRANCH  25  26
HETATM   26  C   UNK N   1      33.325  17.455   7.107  0.00  0.00     0.194 C 
BRANCH  26  27
HETATM   27  O   UNK N   1      34.348  17.984   6.323  0.00  0.00    -0.399 OA
HETATM   28  H   UNK N   1      34.414  17.928   5.357  0.00  0.00     0.209 HD
ENDBRANCH  26  27
ENDBRANCH  25  26
ENDBRANCH  22  25
ENDBRANCH  18  19
ENDBRANCH  17  18
ENDBRANCH  16  17
ENDBRANCH   3  16
TORSDOF 7
ENDMDL
MODEL 4
REMARK VINA RESULT:      -6.4     13.929     16.001
REMARK  7 active torsions:
REMARK  status: ('A' for Active; 'I' for Inactive)
REMARK    1  A    between atoms: O_3  and  C_15 
REMARK    2  A    between atoms: N_4  and  C_11 
REMARK    3  A    between atoms: N_5  and  C_13 
REMARK    4  A    between atoms: N_6  and  C_14 
REMARK    5  A    between atoms: C_11  and  C_12 
REMARK    6  A    between atoms: C_12  and  C_14 
REMARK    7  A    between atoms: C_13  and  C_15 
ROOT
HETATM    1 Cl   UNK N   1      25.604  23.438  -9.890  0.00  0.00    -0.084 Cl
HETATM    2  S   UNK N   1      28.536  28.522  -7.498  0.00  0.00    -0.086 SA
HETATM    3  N   UNK N   1      26.118  26.938  -6.124  0.00  0.00    -0.345 N 
HETATM    4  C   UNK N   1      26.592  26.468  -7.390  0.00  0.00     0.053 A 
HETATM    5  C   UNK N   1      26.555  28.158  -5.509  0.00  0.00     0.052 A 
HETATM    6  C   UNK N   1      27.639  27.101  -8.098  0.00  0.00     0.032 A 
HETATM    7  C   UNK N   1      27.598  28.950  -6.040  0.00  0.00     0.032 A 
HETATM    8  C   UNK N   1      25.987  25.333  -7.967  0.00  0.00     0.054 A 
HETATM    9  C   UNK N   1      25.923  28.594  -4.325  0.00  0.00     0.031 A 
HETATM   10  C   UNK N   1      28.048  26.587  -9.336  0.00  0.00     0.023 A 
HETATM   11  C   UNK N   1      27.973  30.132  -5.388  0.00  0.00     0.021 A 
HETATM   12  C   UNK N   1      26.396  24.839  -9.203  0.00  0.00     0.036 A 
HETATM   13  C   UNK N   1      26.302  29.775  -3.690  0.00  0.00     0.002 A 
HETATM   14  C   UNK N   1      27.430  25.465  -9.889  0.00  0.00     0.025 A 
HETATM   15  C   UNK N   1      27.328  30.546  -4.224  0.00  0.00     0.002 A 
ENDROOT
BRANCH   3  16
HETATM   16  C   UNK N   1      25.141  26.124  -5.421  0.00  0.00     0.131 C 
BRANCH  16  17
HETATM   17  C   UNK N   1      25.693  24.750  -5.111  0.00  0.00     0.050 C 
BRANCH  17  18
HETATM   18  C   UNK N   1      26.556  24.880  -3.870  0.00  0.00     0.274 C 
BRANCH  18  19
HETATM   19  N   UNK N   1      27.780  24.102  -3.992  0.00  0.00     0.091 N 
HETATM   20  C   UNK N   1      28.214  23.649  -2.667  0.00  0.00     0.302 C 
HETATM   21  C   UNK N   1      29.533  22.887  -2.798  0.00  0.00     0.302 C 
HETATM   22  N   UNK N   1      30.559  23.764  -3.362  0.00  0.00     0.093 N 
HETATM   23  C   UNK N   1      30.111  24.256  -4.668  0.00  0.00     0.302 C 
HETATM   24  C   UNK N   1      28.794  25.007  -4.521  0.00  0.00     0.302 C 
BRANCH  22  25
HETATM   25  C   UNK N   1      31.745  22.949  -3.580  0.00  0.00     0.298 C 
BRANCH  25  26
HETATM   26  C   UNK N   1      31.555  21.559  -2.996  0.00  0.00     0.194 C 
BRANCH  26  27
HETATM   27  O   UNK N   1      32.569  21.296  -2.079  0.00  0.00    -0.399 OA
HETATM   28  H   UNK N   1      32.463  21.212  -1.119  0.00  0.00     0.209 HD
ENDBRANCH  26  27
ENDBRANCH  25  26
ENDBRANCH  22  25
ENDBRANCH  18  19
ENDBRANCH  17  18
ENDBRANCH  16  17
ENDBRANCH   3  16
TORSDOF 7
ENDMDL
MODEL 5
REMARK VINA RESULT:      -6.2      6.783      8.737
REMARK  7 active torsions:
REMARK  status: ('A' for Active; 'I' for Inactive)
REMARK    1  A    between atoms: O_3  and  C_15 
REMARK    2  A    between atoms: N_4  and  C_11 
REMARK    3  A    between atoms: N_5  and  C_13 
REMARK    4  A    between atoms: N_6  and  C_14 
REMARK    5  A    between atoms: C_11  and  C_12 
REMARK    6  A    between atoms: C_12  and  C_14 
REMARK    7  A    between atoms: C_13  and  C_15 
ROOT
HETATM    1 Cl   UNK N   1      19.184  16.796   3.912  0.00  0.00    -0.084 Cl
HETATM    2  S   UNK N   1      24.263  20.517   3.184  0.00  0.00    -0.086 SA
HETATM    3  N   UNK N   1      24.306  17.451   4.104  0.00  0.00    -0.345 N 
HETATM    4  C   UNK N   1      23.035  18.049   3.826  0.00  0.00     0.053 A 
HETATM    5  C   UNK N   1      25.541  18.179   4.141  0.00  0.00     0.052 A 
HETATM    6  C   UNK N   1      22.894  19.399   3.434  0.00  0.00     0.032 A 
HETATM    7  C   UNK N   1      25.636  19.542   3.779  0.00  0.00     0.032 A 
HETATM    8  C   UNK N   1      21.869  17.267   3.959  0.00  0.00     0.054 A 
HETATM    9  C   UNK N   1      26.715  17.517   4.558  0.00  0.00     0.031 A 
HETATM   10  C   UNK N   1      21.616  19.918   3.184  0.00  0.00     0.023 A 
HETATM   11  C   UNK N   1      26.875  20.192   3.842  0.00  0.00     0.021 A 
HETATM   12  C   UNK N   1      20.605  17.798   3.717  0.00  0.00     0.036 A 
HETATM   13  C   UNK N   1      27.940  18.177   4.621  0.00  0.00     0.002 A 
HETATM   14  C   UNK N   1      20.477  19.126   3.327  0.00  0.00     0.025 A 
HETATM   15  C   UNK N   1      28.020  19.519   4.264  0.00  0.00     0.002 A 
ENDROOT
BRANCH   3  16
HETATM   16  C   UNK N   1      24.342  16.020   4.354  0.00  0.00     0.131 C 
BRANCH  16  17
HETATM   17  C   UNK N   1      24.120  15.713   5.819  0.00  0.00     0.050 C 
BRANCH  17  18
HETATM   18  C   UNK N   1      24.997  14.526   6.168  0.00  0.00     0.274 C 
BRANCH  18  19
HETATM   19  N   UNK N   1      24.375  13.688   7.183  0.00  0.00     0.091 N 
HETATM   20  C   UNK N   1      23.067  14.240   7.548  0.00  0.00     0.302 C 
HETATM   21  C   UNK N   1      22.448  13.390   8.658  0.00  0.00     0.302 C 
HETATM   22  N   UNK N   1      23.317  13.404   9.835  0.00  0.00     0.093 N 
HETATM   23  C   UNK N   1      24.641  12.894   9.466  0.00  0.00     0.302 C 
HETATM   24  C   UNK N   1      25.240  13.747   8.355  0.00  0.00     0.302 C 
BRANCH  22  25
HETATM   25  C   UNK N   1      22.742  12.480  10.802  0.00  0.00     0.298 C 
BRANCH  25  26
HETATM   26  C   UNK N   1      23.826  11.886  11.686  0.00  0.00     0.194 C 
BRANCH  26  27
HETATM   27  O   UNK N   1      23.608  12.266  13.008  0.00  0.00    -0.399 OA
HETATM   28  H   UNK N   1      22.982  11.856  13.625  0.00  0.00     0.209 HD
ENDBRANCH  26  27
ENDBRANCH  25  26
ENDBRANCH  22  25
ENDBRANCH  18  19
ENDBRANCH  17  18
ENDBRANCH  16  17
ENDBRANCH   3  16
TORSDOF 7
ENDMDL
MODEL 6
REMARK VINA RESULT:      -6.1     12.176     14.164
REMARK  7 active torsions:
REMARK  status: ('A' for Active; 'I' for Inactive)
REMARK    1  A    between atoms: O_3  and  C_15 
REMARK    2  A    between atoms: N_4  and  C_11 
REMARK    3  A    between atoms: N_5  and  C_13 
REMARK    4  A    between atoms: N_6  and  C_14 
REMARK    5  A    between atoms: C_11  and  C_12 
REMARK    6  A    between atoms: C_12  and  C_14 
REMARK    7  A    between atoms: C_13  and  C_15 
ROOT
HETATM    1 Cl   UNK N   1      29.411  20.265  -7.273  0.00  0.00    -0.084 Cl
HETATM    2  S   UNK N   1      26.901  26.079  -7.532  0.00  0.00    -0.086 SA
HETATM    3  N   UNK N   1      27.653  24.483  -4.861  0.00  0.00    -0.345 N 
HETATM    4  C   UNK N   1      27.902  23.842  -6.117  0.00  0.00     0.053 A 
HETATM    5  C   UNK N   1      26.953  25.727  -4.724  0.00  0.00     0.052 A 
HETATM    6  C   UNK N   1      27.591  24.442  -7.357  0.00  0.00     0.032 A 
HETATM    7  C   UNK N   1      26.551  26.505  -5.833  0.00  0.00     0.032 A 
HETATM    8  C   UNK N   1      28.470  22.552  -6.123  0.00  0.00     0.054 A 
HETATM    9  C   UNK N   1      26.645  26.202  -3.431  0.00  0.00     0.031 A 
HETATM   10  C   UNK N   1      27.857  23.752  -8.547  0.00  0.00     0.023 A 
HETATM   11  C   UNK N   1      25.867  27.710  -5.625  0.00  0.00     0.021 A 
HETATM   12  C   UNK N   1      28.721  21.873  -7.313  0.00  0.00     0.036 A 
HETATM   13  C   UNK N   1      25.959  27.399  -3.238  0.00  0.00     0.002 A 
HETATM   14  C   UNK N   1      28.415  22.474  -8.528  0.00  0.00     0.025 A 
HETATM   15  C   UNK N   1      25.569  28.154  -4.339  0.00  0.00     0.002 A 
ENDROOT
BRANCH   3  16
HETATM   16  C   UNK N   1      28.149  23.836  -3.659  0.00  0.00     0.131 C 
BRANCH  16  17
HETATM   17  C   UNK N   1      29.610  24.158  -3.424  0.00  0.00     0.050 C 
BRANCH  17  18
HETATM   18  C   UNK N   1      30.143  23.137  -2.437  0.00  0.00     0.274 C 
BRANCH  18  19
HETATM   19  N   UNK N   1      31.233  22.363  -3.013  0.00  0.00     0.091 N 
HETATM   20  C   UNK N   1      31.880  23.135  -4.078  0.00  0.00     0.302 C 
HETATM   21  C   UNK N   1      32.982  22.291  -4.720  0.00  0.00     0.302 C 
HETATM   22  N   UNK N   1      32.405  21.076  -5.295  0.00  0.00     0.093 N 
HETATM   23  C   UNK N   1      31.718  20.321  -4.242  0.00  0.00     0.302 C 
HETATM   24  C   UNK N   1      30.628  21.178  -3.610  0.00  0.00     0.302 C 
BRANCH  22  25
HETATM   25  C   UNK N   1      33.513  20.260  -5.771  0.00  0.00     0.298 C 
BRANCH  25  26
HETATM   26  C   UNK N   1      33.883  19.206  -4.741  0.00  0.00     0.194 C 
BRANCH  26  27
HETATM   27  O   UNK N   1      35.184  19.429  -4.295  0.00  0.00    -0.399 OA
HETATM   28  H   UNK N   1      35.490  20.197  -3.789  0.00  0.00     0.209 HD
ENDBRANCH  26  27
ENDBRANCH  25  26
ENDBRANCH  22  25
ENDBRANCH  18  19
ENDBRANCH  17  18
ENDBRANCH  16  17
ENDBRANCH   3  16
TORSDOF 7
ENDMDL
MODEL 7
REMARK VINA RESULT:      -6.1      4.805      8.729
REMARK  7 active torsions:
REMARK  status: ('A' for Active; 'I' for Inactive)
REMARK    1  A    between atoms: O_3  and  C_15 
REMARK    2  A    between atoms: N_4  and  C_11 
REMARK    3  A    between atoms: N_5  and  C_13 
REMARK    4  A    between atoms: N_6  and  C_14 
REMARK    5  A    between atoms: C_11  and  C_12 
REMARK    6  A    between atoms: C_12  and  C_14 
REMARK    7  A    between atoms: C_13  and  C_15 
ROOT
HETATM    1 Cl   UNK N   1      33.953  10.506   7.855  0.00  0.00    -0.084 Cl
HETATM    2  S   UNK N   1      34.258  10.925  14.171  0.00  0.00    -0.086 SA
HETATM    3  N   UNK N   1      35.407  13.074  12.096  0.00  0.00    -0.345 N 
HETATM    4  C   UNK N   1      34.762  11.911  11.567  0.00  0.00     0.053 A 
HETATM    5  C   UNK N   1      35.702  13.261  13.487  0.00  0.00     0.052 A 
HETATM    6  C   UNK N   1      34.237  10.887  12.387  0.00  0.00     0.032 A 
HETATM    7  C   UNK N   1      35.266  12.365  14.489  0.00  0.00     0.032 A 
HETATM    8  C   UNK N   1      34.653  11.768  10.168  0.00  0.00     0.054 A 
HETATM    9  C   UNK N   1      36.461  14.383  13.882  0.00  0.00     0.031 A 
HETATM   10  C   UNK N   1      33.623   9.773  11.797  0.00  0.00     0.023 A 
HETATM   11  C   UNK N   1      35.593  12.608  15.828  0.00  0.00     0.021 A 
HETATM   12  C   UNK N   1      34.050  10.651   9.596  0.00  0.00     0.036 A 
HETATM   13  C   UNK N   1      36.784  14.610  15.218  0.00  0.00     0.002 A 
HETATM   14  C   UNK N   1      33.532   9.652  10.411  0.00  0.00     0.025 A 
HETATM   15  C   UNK N   1      36.350  13.719  16.193  0.00  0.00     0.002 A 
ENDROOT
BRANCH   3  16
HETATM   16  C   UNK N   1      35.774  14.128  11.166  0.00  0.00     0.131 C 
BRANCH  16  17
HETATM   17  C   UNK N   1      34.669  15.154  11.034  0.00  0.00     0.050 C 
BRANCH  17  18
HETATM   18  C   UNK N   1      35.198  16.275  10.159  0.00  0.00     0.274 C 
BRANCH  18  19
HETATM   19  N   UNK N   1      34.518  16.307   8.872  0.00  0.00     0.091 N 
HETATM   20  C   UNK N   1      34.401  17.692   8.407  0.00  0.00     0.302 C 
HETATM   21  C   UNK N   1      33.630  17.721   7.087  0.00  0.00     0.302 C 
HETATM   22  N   UNK N   1      32.289  17.169   7.283  0.00  0.00     0.093 N 
HETATM   23  C   UNK N   1      32.400  15.798   7.791  0.00  0.00     0.302 C 
HETATM   24  C   UNK N   1      33.175  15.786   9.102  0.00  0.00     0.302 C 
BRANCH  22  25
HETATM   25  C   UNK N   1      31.657  17.106   5.973  0.00  0.00     0.298 C 
BRANCH  25  26
HETATM   26  C   UNK N   1      32.645  17.489   4.883  0.00  0.00     0.194 C 
BRANCH  26  27
HETATM   27  O   UNK N   1      31.954  18.018   3.795  0.00  0.00    -0.399 OA
HETATM   28  H   UNK N   1      31.602  17.516   3.044  0.00  0.00     0.209 HD
ENDBRANCH  26  27
ENDBRANCH  25  26
ENDBRANCH  22  25
ENDBRANCH  18  19
ENDBRANCH  17  18
ENDBRANCH  16  17
ENDBRANCH   3  16
TORSDOF 7
ENDMDL
MODEL 8
REMARK VINA RESULT:      -6.1      6.668      9.100
REMARK  7 active torsions:
REMARK  status: ('A' for Active; 'I' for Inactive)
REMARK    1  A    between atoms: O_3  and  C_15 
REMARK    2  A    between atoms: N_4  and  C_11 
REMARK    3  A    between atoms: N_5  and  C_13 
REMARK    4  A    between atoms: N_6  and  C_14 
REMARK    5  A    between atoms: C_11  and  C_12 
REMARK    6  A    between atoms: C_12  and  C_14 
REMARK    7  A    between atoms: C_13  and  C_15 
ROOT
HETATM    1 Cl   UNK N   1      28.462  16.541   5.881  0.00  0.00    -0.084 Cl
HETATM    2  S   UNK N   1      24.447  20.579   3.099  0.00  0.00    -0.086 SA
HETATM    3  N   UNK N   1      23.633  17.890   4.633  0.00  0.00    -0.345 N 
HETATM    4  C   UNK N   1      25.023  18.226   4.562  0.00  0.00     0.053 A 
HETATM    5  C   UNK N   1      22.602  18.600   3.934  0.00  0.00     0.052 A 
HETATM    6  C   UNK N   1      25.499  19.376   3.894  0.00  0.00     0.032 A 
HETATM    7  C   UNK N   1      22.850  19.785   3.205  0.00  0.00     0.032 A 
HETATM    8  C   UNK N   1      25.963  17.371   5.174  0.00  0.00     0.054 A 
HETATM    9  C   UNK N   1      21.282  18.101   3.966  0.00  0.00     0.031 A 
HETATM   10  C   UNK N   1      26.875  19.638   3.861  0.00  0.00     0.023 A 
HETATM   11  C   UNK N   1      21.795  20.426   2.542  0.00  0.00     0.021 A 
HETATM   12  C   UNK N   1      27.329  17.639   5.124  0.00  0.00     0.036 A 
HETATM   13  C   UNK N   1      20.243  18.746   3.298  0.00  0.00     0.002 A 
HETATM   14  C   UNK N   1      27.787  18.775   4.468  0.00  0.00     0.025 A 
HETATM   15  C   UNK N   1      20.501  19.910   2.583  0.00  0.00     0.002 A 
ENDROOT
BRANCH   3  16
HETATM   16  C   UNK N   1      23.248  16.767   5.472  0.00  0.00     0.131 C 
BRANCH  16  17
HETATM   17  C   UNK N   1      23.066  15.508   4.652  0.00  0.00     0.050 C 
BRANCH  17  18
HETATM   18  C   UNK N   1      23.951  14.439   5.266  0.00  0.00     0.274 C 
BRANCH  18  19
HETATM   19  N   UNK N   1      23.722  14.320   6.698  0.00  0.00     0.091 N 
HETATM   20  C   UNK N   1      24.818  13.568   7.315  0.00  0.00     0.302 C 
HETATM   21  C   UNK N   1      24.537  13.393   8.808  0.00  0.00     0.302 C 
HETATM   22  N   UNK N   1      23.288  12.654   8.994  0.00  0.00     0.093 N 
HETATM   23  C   UNK N   1      22.195  13.379   8.341  0.00  0.00     0.302 C 
HETATM   24  C   UNK N   1      22.493  13.550   6.857  0.00  0.00     0.302 C 
BRANCH  22  25
HETATM   25  C   UNK N   1      23.013  12.634  10.423  0.00  0.00     0.298 C 
BRANCH  25  26
HETATM   26  C   UNK N   1      24.190  12.051  11.188  0.00  0.00     0.194 C 
BRANCH  26  27
HETATM   27  O   UNK N   1      24.067  12.364  12.540  0.00  0.00    -0.399 OA
HETATM   28  H   UNK N   1      24.686  12.899  13.060  0.00  0.00     0.209 HD
ENDBRANCH  26  27
ENDBRANCH  25  26
ENDBRANCH  22  25
ENDBRANCH  18  19
ENDBRANCH  17  18
ENDBRANCH  16  17
ENDBRANCH   3  16
TORSDOF 7
ENDMDL
MODEL 9
REMARK VINA RESULT:      -6.1      7.070     11.808
REMARK  7 active torsions:
REMARK  status: ('A' for Active; 'I' for Inactive)
REMARK    1  A    between atoms: O_3  and  C_15 
REMARK    2  A    between atoms: N_4  and  C_11 
REMARK    3  A    between atoms: N_5  and  C_13 
REMARK    4  A    between atoms: N_6  and  C_14 
REMARK    5  A    between atoms: C_11  and  C_12 
REMARK    6  A    between atoms: C_12  and  C_14 
REMARK    7  A    between atoms: C_13  and  C_15 
ROOT
HETATM    1 Cl   UNK N   1      35.286  15.483  18.451  0.00  0.00    -0.084 Cl
HETATM    2  S   UNK N   1      35.599   9.348  16.894  0.00  0.00    -0.086 SA
HETATM    3  N   UNK N   1      36.229  11.808  14.944  0.00  0.00    -0.345 N 
HETATM    4  C   UNK N   1      35.843  12.102  16.291  0.00  0.00     0.053 A 
HETATM    5  C   UNK N   1      36.204  10.491  14.376  0.00  0.00     0.052 A 
HETATM    6  C   UNK N   1      35.522  11.099  17.232  0.00  0.00     0.032 A 
HETATM    7  C   UNK N   1      35.916   9.335  15.136  0.00  0.00     0.032 A 
HETATM    8  C   UNK N   1      35.767  13.450  16.700  0.00  0.00     0.054 A 
HETATM    9  C   UNK N   1      36.475  10.333  13.000  0.00  0.00     0.031 A 
HETATM   10  C   UNK N   1      35.147  11.463  18.533  0.00  0.00     0.023 A 
HETATM   11  C   UNK N   1      35.906   8.080  14.515  0.00  0.00     0.021 A 
HETATM   12  C   UNK N   1      35.384  13.798  17.993  0.00  0.00     0.036 A 
HETATM   13  C   UNK N   1      36.456   9.079  12.393  0.00  0.00     0.002 A 
HETATM   14  C   UNK N   1      35.074  12.803  18.912  0.00  0.00     0.025 A 
HETATM   15  C   UNK N   1      36.170   7.950  13.153  0.00  0.00     0.002 A 
ENDROOT
BRANCH   3  16
HETATM   16  C   UNK N   1      36.679  12.909  14.111  0.00  0.00     0.131 C 
BRANCH  16  17
HETATM   17  C   UNK N   1      35.542  13.475  13.288  0.00  0.00     0.050 C 
BRANCH  17  18
HETATM   18  C   UNK N   1      36.158  14.350  12.212  0.00  0.00     0.274 C 
BRANCH  18  19
HETATM   19  N   UNK N   1      35.141  15.117  11.508  0.00  0.00     0.091 N 
HETATM   20  C   UNK N   1      34.351  14.226  10.652  0.00  0.00     0.302 C 
HETATM   21  C   UNK N   1      33.328  15.050   9.869  0.00  0.00     0.302 C 
HETATM   22  N   UNK N   1      34.017  16.030   9.030  0.00  0.00     0.093 N 
HETATM   23  C   UNK N   1      34.844  16.896   9.876  0.00  0.00     0.302 C 
HETATM   24  C   UNK N   1      35.853  16.060  10.653  0.00  0.00     0.302 C 
BRANCH  22  25
HETATM   25  C   UNK N   1      32.993  16.861   8.415  0.00  0.00     0.298 C 
BRANCH  25  26
HETATM   26  C   UNK N   1      31.606  16.326   8.732  0.00  0.00     0.194 C 
BRANCH  26  27
HETATM   27  O   UNK N   1      30.804  17.362   9.202  0.00  0.00    -0.399 OA
HETATM   28  H   UNK N   1      30.750  17.672  10.119  0.00  0.00     0.209 HD
ENDBRANCH  26  27
ENDBRANCH  25  26
ENDBRANCH  22  25
ENDBRANCH  18  19
ENDBRANCH  17  18
ENDBRANCH  16  17
ENDBRANCH   3  16
TORSDOF 7
ENDMDL
