MODEL 1
REMARK VINA RESULT:      -5.0      0.000      0.000
REMARK  4 active torsions:
REMARK  status: ('A' for Active; 'I' for Inactive)
REMARK    1  A    between atoms: C_4  and  O_1 
REMARK    2  A    between atoms: C_3  and  N_2 
REMARK    3  A    between atoms: C_3  and  C_4 
REMARK    4  A    between atoms: C_4  and  C_5 
ROOT
HETATM    1  C   UNK N   1      35.081  13.366  15.805  0.00  0.00     0.173 C 
ENDROOT
BRANCH   1   2
HETATM    2  O   UNK N   1      34.190  12.641  15.003  0.00  0.00    -0.389 OA
HETATM    3  H   UNK N   1      34.367  11.715  14.774  0.00  0.00     0.210 HD
ENDBRANCH   1   2
BRANCH   1   4
HETATM    4  C   UNK N   1      36.363  13.652  15.005  0.00  0.00     0.105 C 
HETATM    5  C   UNK N   1      37.164  14.786  15.633  0.00  0.00     0.035 C 
BRANCH   4   6
HETATM    6  N   UNK N   1      36.002  14.030  13.641  0.00  0.00    -0.419 N 
HETATM    7  C   UNK N   1      36.706  13.154  12.715  0.00  0.00     0.140 C 
HETATM    8  H   UNK N   1      35.363  14.782  13.381  0.00  0.00     0.153 HD
ENDBRANCH   4   6
ENDBRANCH   1   4
BRANCH   1   9
HETATM    9  C   UNK N   1      35.305  12.648  17.123  0.00  0.00    -0.028 A 
HETATM   10  C   UNK N   1      35.102  13.320  18.338  0.00  0.00     0.010 A 
HETATM   11  C   UNK N   1      35.272  12.654  19.556  0.00  0.00     0.001 A 
HETATM   12  C   UNK N   1      35.632  11.305  19.570  0.00  0.00     0.000 A 
HETATM   13  C   UNK N   1      35.827  10.623  18.367  0.00  0.00     0.001 A 
HETATM   14  C   UNK N   1      35.663  11.290  17.150  0.00  0.00     0.010 A 
ENDBRANCH   1   9
TORSDOF 4
ENDMDL
MODEL 2
REMARK VINA RESULT:      -4.9      7.692     10.969
REMARK  4 active torsions:
REMARK  status: ('A' for Active; 'I' for Inactive)
REMARK    1  A    between atoms: C_4  and  O_1 
REMARK    2  A    between atoms: C_3  and  N_2 
REMARK    3  A    between atoms: C_3  and  C_4 
REMARK    4  A    between atoms: C_4  and  C_5 
ROOT
HETATM    1  C   UNK N   1      33.931  17.988   8.550  0.00  0.00     0.173 C 
ENDROOT
BRANCH   1   2
HETATM    2  O   UNK N   1      34.831  19.026   8.279  0.00  0.00    -0.389 OA
HETATM    3  H   UNK N   1      34.814  19.846   8.795  0.00  0.00     0.210 HD
ENDBRANCH   1   2
BRANCH   1   4
HETATM    4  C   UNK N   1      34.691  16.815   9.192  0.00  0.00     0.105 C 
HETATM    5  C   UNK N   1      33.826  15.561   9.248  0.00  0.00     0.035 C 
BRANCH   4   6
HETATM    6  N   UNK N   1      35.077  17.181  10.552  0.00  0.00    -0.419 N 
HETATM    7  C   UNK N   1      35.735  16.039  11.171  0.00  0.00     0.140 C 
HETATM    8  H   UNK N   1      34.913  18.086  10.994  0.00  0.00     0.153 HD
ENDBRANCH   4   6
ENDBRANCH   1   4
BRANCH   1   9
HETATM    9  C   UNK N   1      33.152  17.627   7.299  0.00  0.00    -0.028 A 
HETATM   10  C   UNK N   1      31.764  17.437   7.360  0.00  0.00     0.010 A 
HETATM   11  C   UNK N   1      31.035  17.141   6.203  0.00  0.00     0.001 A 
HETATM   12  C   UNK N   1      31.686  17.045   4.972  0.00  0.00     0.000 A 
HETATM   13  C   UNK N   1      33.067  17.243   4.897  0.00  0.00     0.001 A 
HETATM   14  C   UNK N   1      33.796  17.532   6.053  0.00  0.00     0.010 A 
ENDBRANCH   1   9
TORSDOF 4
ENDMDL
MODEL 3
REMARK VINA RESULT:      -4.7     15.421     16.337
REMARK  4 active torsions:
REMARK  status: ('A' for Active; 'I' for Inactive)
REMARK    1  A    between atoms: C_4  and  O_1 
REMARK    2  A    between atoms: C_3  and  N_2 
REMARK    3  A    between atoms: C_3  and  C_4 
REMARK    4  A    between atoms: C_4  and  C_5 
ROOT
HETATM    1  C   UNK N   1      20.320  14.435   8.784  0.00  0.00     0.173 C 
ENDROOT
BRANCH   1   2
HETATM    2  O   UNK N   1      20.291  13.835   7.518  0.00  0.00    -0.389 OA
HETATM    3  H   UNK N   1      20.015  14.337   6.736  0.00  0.00     0.210 HD
ENDBRANCH   1   2
BRANCH   1   4
HETATM    4  C   UNK N   1      20.793  15.892   8.640  0.00  0.00     0.105 C 
HETATM    5  C   UNK N   1      19.632  16.867   8.803  0.00  0.00     0.035 C 
BRANCH   4   6
HETATM    6  N   UNK N   1      21.381  16.077   7.317  0.00  0.00    -0.419 N 
HETATM    7  C   UNK N   1      20.976  17.380   6.808  0.00  0.00     0.140 C 
HETATM    8  H   UNK N   1      21.977  15.406   6.830  0.00  0.00     0.153 HD
ENDBRANCH   4   6
ENDBRANCH   1   4
BRANCH   1   9
HETATM    9  C   UNK N   1      21.141  13.596   9.745  0.00  0.00    -0.028 A 
HETATM   10  C   UNK N   1      20.508  12.852  10.752  0.00  0.00     0.010 A 
HETATM   11  C   UNK N   1      21.256  12.048  11.618  0.00  0.00     0.001 A 
HETATM   12  C   UNK N   1      22.642  11.968  11.476  0.00  0.00     0.000 A 
HETATM   13  C   UNK N   1      23.283  12.696  10.470  0.00  0.00     0.001 A 
HETATM   14  C   UNK N   1      22.536  13.505   9.608  0.00  0.00     0.010 A 
ENDBRANCH   1   9
TORSDOF 4
ENDMDL
MODEL 4
REMARK VINA RESULT:      -4.7      8.462     11.979
REMARK  4 active torsions:
REMARK  status: ('A' for Active; 'I' for Inactive)
REMARK    1  A    between atoms: C_4  and  O_1 
REMARK    2  A    between atoms: C_3  and  N_2 
REMARK    3  A    between atoms: C_3  and  C_4 
REMARK    4  A    between atoms: C_4  and  C_5 
ROOT
HETATM    1  C   UNK N   1      33.492  17.644   7.069  0.00  0.00     0.173 C 
ENDROOT
BRANCH   1   2
HETATM    2  O   UNK N   1      34.691  18.356   7.199  0.00  0.00    -0.389 OA
HETATM    3  H   UNK N   1      35.229  18.570   6.421  0.00  0.00     0.210 HD
ENDBRANCH   1   2
BRANCH   1   4
HETATM    4  C   UNK N   1      33.353  16.669   8.251  0.00  0.00     0.105 C 
HETATM    5  C   UNK N   1      31.891  16.329   8.518  0.00  0.00     0.035 C 
BRANCH   4   6
HETATM    6  N   UNK N   1      33.919  17.283   9.449  0.00  0.00    -0.419 N 
HETATM    7  C   UNK N   1      34.861  16.348  10.048  0.00  0.00     0.140 C 
HETATM    8  H   UNK N   1      33.694  18.213   9.805  0.00  0.00     0.153 HD
ENDBRANCH   4   6
ENDBRANCH   1   4
BRANCH   1   9
HETATM    9  C   UNK N   1      33.411  16.993   5.701  0.00  0.00    -0.028 A 
HETATM   10  C   UNK N   1      32.771  17.652   4.641  0.00  0.00     0.010 A 
HETATM   11  C   UNK N   1      32.726  17.075   3.368  0.00  0.00     0.001 A 
HETATM   12  C   UNK N   1      33.334  15.839   3.139  0.00  0.00     0.000 A 
HETATM   13  C   UNK N   1      33.984  15.179   4.184  0.00  0.00     0.001 A 
HETATM   14  C   UNK N   1      34.024  15.752   5.458  0.00  0.00     0.010 A 
ENDBRANCH   1   9
TORSDOF 4
ENDMDL
MODEL 5
REMARK VINA RESULT:      -4.7      3.881      5.643
REMARK  4 active torsions:
REMARK  status: ('A' for Active; 'I' for Inactive)
REMARK    1  A    between atoms: C_4  and  O_1 
REMARK    2  A    between atoms: C_3  and  N_2 
REMARK    3  A    between atoms: C_3  and  C_4 
REMARK    4  A    between atoms: C_4  and  C_5 
ROOT
HETATM    1  C   UNK N   1      36.149  14.969  10.960  0.00  0.00     0.173 C 
ENDROOT
BRANCH   1   2
HETATM    2  O   UNK N   1      37.132  15.963  10.874  0.00  0.00    -0.389 OA
HETATM    3  H   UNK N   1      36.896  16.878  10.657  0.00  0.00     0.210 HD
ENDBRANCH   1   2
BRANCH   1   4
HETATM    4  C   UNK N   1      34.761  15.632  10.978  0.00  0.00     0.105 C 
HETATM    5  C   UNK N   1      33.776  14.874  10.095  0.00  0.00     0.035 C 
BRANCH   4   6
HETATM    6  N   UNK N   1      34.878  17.001  10.485  0.00  0.00    -0.419 N 
HETATM    7  C   UNK N   1      34.275  17.070   9.162  0.00  0.00     0.140 C 
HETATM    8  H   UNK N   1      35.309  17.780  10.985  0.00  0.00     0.153 HD
ENDBRANCH   4   6
ENDBRANCH   1   4
BRANCH   1   9
HETATM    9  C   UNK N   1      36.428  14.054  12.138  0.00  0.00    -0.028 A 
HETATM   10  C   UNK N   1      36.959  12.773  11.929  0.00  0.00     0.010 A 
HETATM   11  C   UNK N   1      37.253  11.939  13.013  0.00  0.00     0.001 A 
HETATM   12  C   UNK N   1      37.032  12.385  14.317  0.00  0.00     0.000 A 
HETATM   13  C   UNK N   1      36.514  13.663  14.539  0.00  0.00     0.001 A 
HETATM   14  C   UNK N   1      36.214  14.494  13.456  0.00  0.00     0.010 A 
ENDBRANCH   1   9
TORSDOF 4
ENDMDL
MODEL 6
REMARK VINA RESULT:      -4.6     11.036     13.410
REMARK  4 active torsions:
REMARK  status: ('A' for Active; 'I' for Inactive)
REMARK    1  A    between atoms: C_4  and  O_1 
REMARK    2  A    between atoms: C_3  and  N_2 
REMARK    3  A    between atoms: C_3  and  C_4 
REMARK    4  A    between atoms: C_4  and  C_5 
ROOT
HETATM    1  C   UNK N   1      28.327  17.585   8.421  0.00  0.00     0.173 C 
ENDROOT
BRANCH   1   2
HETATM    2  O   UNK N   1      27.418  18.028   9.391  0.00  0.00    -0.389 OA
HETATM    3  H   UNK N   1      26.555  17.599   9.497  0.00  0.00     0.210 HD
ENDBRANCH   1   2
BRANCH   1   4
HETATM    4  C   UNK N   1      29.735  17.528   9.037  0.00  0.00     0.105 C 
HETATM    5  C   UNK N   1      30.297  18.928   9.261  0.00  0.00     0.035 C 
BRANCH   4   6
HETATM    6  N   UNK N   1      30.624  16.803   8.134  0.00  0.00    -0.419 N 
HETATM    7  C   UNK N   1      31.913  17.481   8.109  0.00  0.00     0.140 C 
HETATM    8  H   UNK N   1      30.383  15.961   7.610  0.00  0.00     0.153 HD
ENDBRANCH   4   6
ENDBRANCH   1   4
BRANCH   1   9
HETATM    9  C   UNK N   1      28.218  18.438   7.171  0.00  0.00    -0.028 A 
HETATM   10  C   UNK N   1      28.586  17.913   5.923  0.00  0.00     0.010 A 
HETATM   11  C   UNK N   1      28.453  18.681   4.762  0.00  0.00     0.001 A 
HETATM   12  C   UNK N   1      27.937  19.976   4.836  0.00  0.00     0.000 A 
HETATM   13  C   UNK N   1      27.557  20.506   6.071  0.00  0.00     0.001 A 
HETATM   14  C   UNK N   1      27.696  19.741   7.232  0.00  0.00     0.010 A 
ENDBRANCH   1   9
TORSDOF 4
ENDMDL
MODEL 7
REMARK VINA RESULT:      -4.5     21.290     22.126
REMARK  4 active torsions:
REMARK  status: ('A' for Active; 'I' for Inactive)
REMARK    1  A    between atoms: C_4  and  O_1 
REMARK    2  A    between atoms: C_3  and  N_2 
REMARK    3  A    between atoms: C_3  and  C_4 
REMARK    4  A    between atoms: C_4  and  C_5 
ROOT
HETATM    1  C   UNK N   1      19.842  16.979   0.902  0.00  0.00     0.173 C 
ENDROOT
BRANCH   1   2
HETATM    2  O   UNK N   1      20.285  17.595  -0.275  0.00  0.00    -0.389 OA
HETATM    3  H   UNK N   1      19.655  17.984  -0.901  0.00  0.00     0.210 HD
ENDBRANCH   1   2
BRANCH   1   4
HETATM    4  C   UNK N   1      20.413  17.737   2.113  0.00  0.00     0.105 C 
HETATM    5  C   UNK N   1      19.730  17.307   3.406  0.00  0.00     0.035 C 
BRANCH   4   6
HETATM    6  N   UNK N   1      20.204  19.170   1.924  0.00  0.00    -0.419 N 
HETATM    7  C   UNK N   1      20.369  19.836   3.209  0.00  0.00     0.140 C 
HETATM    8  H   UNK N   1      19.979  19.628   1.040  0.00  0.00     0.153 HD
ENDBRANCH   4   6
ENDBRANCH   1   4
BRANCH   1   9
HETATM    9  C   UNK N   1      20.165  15.497   0.875  0.00  0.00    -0.028 A 
HETATM   10  C   UNK N   1      19.155  14.558   0.617  0.00  0.00     0.010 A 
HETATM   11  C   UNK N   1      19.452  13.193   0.553  0.00  0.00     0.001 A 
HETATM   12  C   UNK N   1      20.765  12.755   0.734  0.00  0.00     0.000 A 
HETATM   13  C   UNK N   1      21.781  13.681   0.981  0.00  0.00     0.001 A 
HETATM   14  C   UNK N   1      21.483  15.045   1.051  0.00  0.00     0.010 A 
ENDBRANCH   1   9
TORSDOF 4
ENDMDL
MODEL 8
REMARK VINA RESULT:      -4.5      1.546      2.267
REMARK  4 active torsions:
REMARK  status: ('A' for Active; 'I' for Inactive)
REMARK    1  A    between atoms: C_4  and  O_1 
REMARK    2  A    between atoms: C_3  and  N_2 
REMARK    3  A    between atoms: C_3  and  C_4 
REMARK    4  A    between atoms: C_4  and  C_5 
ROOT
HETATM    1  C   UNK N   1      35.923  11.669  15.004  0.00  0.00     0.173 C 
ENDROOT
BRANCH   1   2
HETATM    2  O   UNK N   1      36.940  10.708  14.932  0.00  0.00    -0.389 OA
HETATM    3  H   UNK N   1      37.578  10.713  14.202  0.00  0.00     0.210 HD
ENDBRANCH   1   2
BRANCH   1   4
HETATM    4  C   UNK N   1      36.291  12.861  14.104  0.00  0.00     0.105 C 
HETATM    5  C   UNK N   1      35.170  13.176  13.120  0.00  0.00     0.035 C 
BRANCH   4   6
HETATM    6  N   UNK N   1      37.501  12.539  13.353  0.00  0.00    -0.419 N 
HETATM    7  C   UNK N   1      37.250  12.792  11.941  0.00  0.00     0.140 C 
HETATM    8  H   UNK N   1      38.375  12.196  13.750  0.00  0.00     0.153 HD
ENDBRANCH   4   6
ENDBRANCH   1   4
BRANCH   1   9
HETATM    9  C   UNK N   1      35.643  12.031  16.451  0.00  0.00    -0.028 A 
HETATM   10  C   UNK N   1      35.692  11.047  17.449  0.00  0.00     0.010 A 
HETATM   11  C   UNK N   1      35.471  11.381  18.789  0.00  0.00     0.001 A 
HETATM   12  C   UNK N   1      35.214  12.706  19.145  0.00  0.00     0.000 A 
HETATM   13  C   UNK N   1      35.174  13.697  18.162  0.00  0.00     0.001 A 
HETATM   14  C   UNK N   1      35.388  13.362  16.822  0.00  0.00     0.010 A 
ENDBRANCH   1   9
TORSDOF 4
ENDMDL
MODEL 9
REMARK VINA RESULT:      -4.4     10.319     11.342
REMARK  4 active torsions:
REMARK  status: ('A' for Active; 'I' for Inactive)
REMARK    1  A    between atoms: C_4  and  O_1 
REMARK    2  A    between atoms: C_3  and  N_2 
REMARK    3  A    between atoms: C_3  and  C_4 
REMARK    4  A    between atoms: C_4  and  C_5 
ROOT
HETATM    1  C   UNK N   1      31.818  16.602   6.966  0.00  0.00     0.173 C 
ENDROOT
BRANCH   1   2
HETATM    2  O   UNK N   1      32.318  15.552   7.747  0.00  0.00    -0.389 OA
HETATM    3  H   UNK N   1      33.091  15.682   8.318  0.00  0.00     0.210 HD
ENDBRANCH   1   2
BRANCH   1   4
HETATM    4  C   UNK N   1      32.973  17.546   6.590  0.00  0.00     0.105 C 
HETATM    5  C   UNK N   1      33.303  17.450   5.105  0.00  0.00     0.035 C 
BRANCH   4   6
HETATM    6  N   UNK N   1      34.159  17.183   7.361  0.00  0.00    -0.419 N 
HETATM    7  C   UNK N   1      34.544  18.321   8.182  0.00  0.00     0.140 C 
HETATM    8  H   UNK N   1      34.637  16.282   7.329  0.00  0.00     0.153 HD
ENDBRANCH   4   6
ENDBRANCH   1   4
BRANCH   1   9
HETATM    9  C   UNK N   1      30.655  17.275   7.671  0.00  0.00    -0.028 A 
HETATM   10  C   UNK N   1      29.343  17.078   7.215  0.00  0.00     0.010 A 
HETATM   11  C   UNK N   1      28.263  17.665   7.883  0.00  0.00     0.001 A 
HETATM   12  C   UNK N   1      28.485  18.443   9.021  0.00  0.00     0.000 A 
HETATM   13  C   UNK N   1      29.786  18.637   9.490  0.00  0.00     0.001 A 
HETATM   14  C   UNK N   1      30.865  18.056   8.820  0.00  0.00     0.010 A 
ENDBRANCH   1   9
TORSDOF 4
ENDMDL
