MODEL 1
REMARK VINA RESULT:      -5.8      0.000      0.000
REMARK  1 active torsions:
REMARK  status: ('A' for Active; 'I' for Inactive)
REMARK       I    between atoms: N_11  and  C_17 
REMARK    1  A    between atoms: C_13  and  C_17 
ROOT
HETATM    1  O   UNK N   1      29.627  16.853   5.880  0.00  0.00    -0.244 OA
HETATM    2  N   UNK N   1      31.593  17.340   6.849  0.00  0.00    -0.241 N 
HETATM    3  N   UNK N   1      29.593  17.402   8.080  0.00  0.00    -0.232 N 
HETATM    4  N   UNK N   1      33.756  17.478   6.337  0.00  0.00    -0.344 N 
ATOM      5  HN  UNK N   1      34.633  17.456   5.817  1.00  0.00     0.167 HD
HETATM    6  N   UNK N   1      31.623  17.913   9.111  0.00  0.00    -0.268 N 
ATOM      7  HN  UNK N   1      32.148  18.186   9.942  1.00  0.00     0.190 HD
HETATM    8  N   UNK N   1      30.296  17.762   9.164  0.00  0.00    -0.235 N 
ATOM      9  HN  UNK N   1      29.808  17.923  10.044  1.00  0.00     0.208 HD
HETATM   10  C   UNK N   1      32.255  17.696   7.938  0.00  0.00     0.165 A 
HETATM   11  C   UNK N   1      33.585  17.787   7.646  0.00  0.00     0.148 A 
HETATM   12  C   UNK N   1      30.241  17.180   6.881  0.00  0.00     0.350 A 
HETATM   13  C   UNK N   1      32.507  17.205   5.866  0.00  0.00     0.195 A 
HETATM   14  C   UNK N   1      28.152  17.252   8.193  0.00  0.00     0.184 C 
ENDROOT
BRANCH  11  15
HETATM   15  C   UNK N   1      34.657  18.155   8.584  0.00  0.00     0.269 C 
HETATM   16  O   UNK N   1      35.274  19.197   8.427  0.00  0.00    -0.266 OA
HETATM   17  N   UNK N   1      34.963  17.348   9.616  0.00  0.00    -0.365 N 
HETATM   18  H   UNK N   1      35.681  17.599  10.241  0.00  0.00     0.159 HD
HETATM   19  H   UNK N   1      34.469  16.507   9.747  0.00  0.00     0.159 HD
ENDBRANCH  11  15
TORSDOF 1
ENDMDL
MODEL 2
REMARK VINA RESULT:      -5.7      4.408      5.632
REMARK  1 active torsions:
REMARK  status: ('A' for Active; 'I' for Inactive)
REMARK       I    between atoms: N_11  and  C_17 
REMARK    1  A    between atoms: C_13  and  C_17 
ROOT
HETATM    1  O   UNK N   1      35.174  15.300   7.584  0.00  0.00    -0.244 OA
HETATM    2  N   UNK N   1      35.530  14.865   9.758  0.00  0.00    -0.241 N 
HETATM    3  N   UNK N   1      33.368  15.313   8.955  0.00  0.00    -0.232 N 
HETATM    4  N   UNK N   1      37.203  14.381  11.146  0.00  0.00    -0.344 N 
ATOM      5  HN  UNK N   1      38.135  14.184  11.511  1.00  0.00     0.167 HD
HETATM    6  N   UNK N   1      33.711  14.863  11.219  0.00  0.00    -0.268 N 
ATOM      7  HN  UNK N   1      33.341  14.749  12.163  1.00  0.00     0.190 HD
HETATM    8  N   UNK N   1      32.897  15.159  10.201  0.00  0.00    -0.235 N 
ATOM      9  HN  UNK N   1      31.898  15.271  10.374  1.00  0.00     0.208 HD
HETATM   10  C   UNK N   1      35.030  14.720  10.975  0.00  0.00     0.165 A 
HETATM   11  C   UNK N   1      36.040  14.423  11.843  0.00  0.00     0.148 A 
HETATM   12  C   UNK N   1      34.719  15.166   8.707  0.00  0.00     0.350 A 
HETATM   13  C   UNK N   1      36.859  14.658   9.858  0.00  0.00     0.195 A 
HETATM   14  C   UNK N   1      32.439  15.635   7.885  0.00  0.00     0.184 C 
ENDROOT
BRANCH  11  15
HETATM   15  C   UNK N   1      35.902  14.186  13.288  0.00  0.00     0.269 C 
HETATM   16  O   UNK N   1      34.948  13.554  13.716  0.00  0.00    -0.266 OA
HETATM   17  N   UNK N   1      36.823  14.663  14.146  0.00  0.00    -0.365 N 
HETATM   18  H   UNK N   1      36.727  14.503  15.112  0.00  0.00     0.159 HD
HETATM   19  H   UNK N   1      37.594  15.173  13.806  0.00  0.00     0.159 HD
ENDBRANCH  11  15
TORSDOF 1
ENDMDL
MODEL 3
REMARK VINA RESULT:      -5.6     11.852     12.667
REMARK  1 active torsions:
REMARK  status: ('A' for Active; 'I' for Inactive)
REMARK       I    between atoms: N_11  and  C_17 
REMARK    1  A    between atoms: C_13  and  C_17 
ROOT
HETATM    1  O   UNK N   1      40.043  21.411   0.444  0.00  0.00    -0.244 OA
HETATM    2  N   UNK N   1      41.624  21.639   2.022  0.00  0.00    -0.241 N 
HETATM    3  N   UNK N   1      40.912  23.483   0.753  0.00  0.00    -0.232 N 
HETATM    4  N   UNK N   1      42.725  20.411   3.519  0.00  0.00    -0.344 N 
ATOM      5  HN  UNK N   1      43.045  19.620   4.079  1.00  0.00     0.167 HD
HETATM    6  N   UNK N   1      42.557  23.746   2.387  0.00  0.00    -0.268 N 
ATOM      7  HN  UNK N   1      43.211  24.342   2.895  1.00  0.00     0.190 HD
HETATM    8  N   UNK N   1      41.776  24.254   1.429  0.00  0.00    -0.235 N 
ATOM      9  HN  UNK N   1      41.837  25.248   1.207  1.00  0.00     0.208 HD
HETATM   10  C   UNK N   1      42.465  22.429   2.669  0.00  0.00     0.165 A 
HETATM   11  C   UNK N   1      43.151  21.696   3.593  0.00  0.00     0.148 A 
HETATM   12  C   UNK N   1      40.819  22.136   1.043  0.00  0.00     0.350 A 
HETATM   13  C   UNK N   1      41.779  20.402   2.538  0.00  0.00     0.195 A 
HETATM   14  C   UNK N   1      40.086  24.087  -0.279  0.00  0.00     0.184 C 
ENDROOT
BRANCH  11  15
HETATM   15  C   UNK N   1      44.179  22.203   4.516  0.00  0.00     0.269 C 
HETATM   16  O   UNK N   1      43.851  22.691   5.586  0.00  0.00    -0.266 OA
HETATM   17  N   UNK N   1      45.482  22.131   4.186  0.00  0.00    -0.365 N 
HETATM   18  H   UNK N   1      46.165  22.471   4.807  0.00  0.00     0.159 HD
HETATM   19  H   UNK N   1      45.750  21.738   3.325  0.00  0.00     0.159 HD
ENDBRANCH  11  15
TORSDOF 1
ENDMDL
MODEL 4
REMARK VINA RESULT:      -5.6      5.263      7.216
REMARK  1 active torsions:
REMARK  status: ('A' for Active; 'I' for Inactive)
REMARK       I    between atoms: N_11  and  C_17 
REMARK    1  A    between atoms: C_13  and  C_17 
ROOT
HETATM    1  O   UNK N   1      35.668  11.315  12.439  0.00  0.00    -0.244 OA
HETATM    2  N   UNK N   1      35.372  13.336  11.506  0.00  0.00    -0.241 N 
HETATM    3  N   UNK N   1      36.538  13.102  13.531  0.00  0.00    -0.232 N 
HETATM    4  N   UNK N   1      34.430  14.262   9.712  0.00  0.00    -0.344 N 
ATOM      5  HN  UNK N   1      33.925  14.381   8.833  1.00  0.00     0.167 HD
HETATM    6  N   UNK N   1      36.244  15.214  12.582  0.00  0.00    -0.268 N 
ATOM      7  HN  UNK N   1      36.388  16.223  12.610  1.00  0.00     0.190 HD
HETATM    8  N   UNK N   1      36.720  14.430  13.555  0.00  0.00    -0.235 N 
ATOM      9  HN  UNK N   1      37.231  14.850  14.331  1.00  0.00     0.208 HD
HETATM   10  C   UNK N   1      35.569  14.643  11.561  0.00  0.00     0.165 A 
HETATM   11  C   UNK N   1      34.999  15.231  10.470  0.00  0.00     0.148 A 
HETATM   12  C   UNK N   1      35.848  12.520  12.486  0.00  0.00     0.350 A 
HETATM   13  C   UNK N   1      34.674  13.097  10.376  0.00  0.00     0.195 A 
HETATM   14  C   UNK N   1      37.077  12.297  14.615  0.00  0.00     0.184 C 
ENDROOT
BRANCH  11  15
HETATM   15  C   UNK N   1      34.997  16.670  10.160  0.00  0.00     0.269 C 
HETATM   16  O   UNK N   1      35.947  17.366  10.484  0.00  0.00    -0.266 OA
HETATM   17  N   UNK N   1      33.952  17.224   9.519  0.00  0.00    -0.365 N 
HETATM   18  H   UNK N   1      33.955  18.187   9.314  0.00  0.00     0.159 HD
HETATM   19  H   UNK N   1      33.184  16.667   9.256  0.00  0.00     0.159 HD
ENDBRANCH  11  15
TORSDOF 1
ENDMDL
MODEL 5
REMARK VINA RESULT:      -5.5     11.067     12.491
REMARK  1 active torsions:
REMARK  status: ('A' for Active; 'I' for Inactive)
REMARK       I    between atoms: N_11  and  C_17 
REMARK    1  A    between atoms: C_13  and  C_17 
ROOT
HETATM    1  O   UNK N   1      20.566  15.360   4.246  0.00  0.00    -0.244 OA
HETATM    2  N   UNK N   1      20.640  17.302   3.123  0.00  0.00    -0.241 N 
HETATM    3  N   UNK N   1      21.411  17.159   5.337  0.00  0.00    -0.232 N 
HETATM    4  N   UNK N   1      20.119  18.134   1.123  0.00  0.00    -0.344 N 
ATOM      5  HN  UNK N   1      19.789  18.213   0.161  1.00  0.00     0.167 HD
HETATM    6  N   UNK N   1      21.499  19.191   4.191  0.00  0.00    -0.268 N 
ATOM      7  HN  UNK N   1      21.737  20.182   4.167  1.00  0.00     0.190 HD
HETATM    8  N   UNK N   1      21.719  18.464   5.291  0.00  0.00    -0.235 N 
ATOM      9  HN  UNK N   1      22.129  18.909   6.112  1.00  0.00     0.208 HD
HETATM   10  C   UNK N   1      20.956  18.587   3.112  0.00  0.00     0.165 A 
HETATM   11  C   UNK N   1      20.645  19.118   1.895  0.00  0.00     0.148 A 
HETATM   12  C   UNK N   1      20.856  16.544   4.233  0.00  0.00     0.350 A 
HETATM   13  C   UNK N   1      20.128  17.020   1.907  0.00  0.00     0.195 A 
HETATM   14  C   UNK N   1      21.671  16.416   6.558  0.00  0.00     0.184 C 
ENDROOT
BRANCH  11  15
HETATM   15  C   UNK N   1      20.841  20.515   1.479  0.00  0.00     0.269 C 
HETATM   16  O   UNK N   1      21.327  21.322   2.258  0.00  0.00    -0.266 OA
HETATM   17  N   UNK N   1      20.488  20.912   0.243  0.00  0.00    -0.365 N 
HETATM   18  H   UNK N   1      20.621  21.848  -0.031  0.00  0.00     0.159 HD
HETATM   19  H   UNK N   1      20.096  20.266  -0.388  0.00  0.00     0.159 HD
ENDBRANCH  11  15
TORSDOF 1
ENDMDL
MODEL 6
REMARK VINA RESULT:      -5.4      2.073      4.556
REMARK  1 active torsions:
REMARK  status: ('A' for Active; 'I' for Inactive)
REMARK       I    between atoms: N_11  and  C_17 
REMARK    1  A    between atoms: C_13  and  C_17 
ROOT
HETATM    1  O   UNK N   1      32.840  16.317   5.646  0.00  0.00    -0.244 OA
HETATM    2  N   UNK N   1      31.012  16.892   6.816  0.00  0.00    -0.241 N 
HETATM    3  N   UNK N   1      33.096  16.658   7.873  0.00  0.00    -0.232 N 
HETATM    4  N   UNK N   1      28.840  17.275   6.502  0.00  0.00    -0.344 N 
ATOM      5  HN  UNK N   1      27.928  17.381   6.058  1.00  0.00     0.167 HD
HETATM    6  N   UNK N   1      31.211  17.257   9.112  0.00  0.00    -0.268 N 
ATOM      7  HN  UNK N   1      30.781  17.501  10.004  1.00  0.00     0.190 HD
HETATM    8  N   UNK N   1      32.517  16.980   9.039  0.00  0.00    -0.235 N 
ATOM      9  HN  UNK N   1      33.085  17.015   9.885  1.00  0.00     0.208 HD
HETATM   10  C   UNK N   1      30.473  17.207   7.983  0.00  0.00     0.165 A 
HETATM   11  C   UNK N   1      29.141  17.446   7.813  0.00  0.00     0.148 A 
HETATM   12  C   UNK N   1      32.340  16.607   6.719  0.00  0.00     0.350 A 
HETATM   13  C   UNK N   1      30.017  16.933   5.906  0.00  0.00     0.195 A 
HETATM   14  C   UNK N   1      34.520  16.366   7.851  0.00  0.00     0.184 C 
ENDROOT
BRANCH  11  15
HETATM   15  C   UNK N   1      28.185  17.824   8.865  0.00  0.00     0.269 C 
HETATM   16  O   UNK N   1      28.055  17.121   9.855  0.00  0.00    -0.266 OA
HETATM   17  N   UNK N   1      27.450  18.945   8.744  0.00  0.00    -0.365 N 
HETATM   18  H   UNK N   1      26.812  19.194   9.450  0.00  0.00     0.159 HD
HETATM   19  H   UNK N   1      27.550  19.516   7.948  0.00  0.00     0.159 HD
ENDBRANCH  11  15
TORSDOF 1
ENDMDL
MODEL 7
REMARK VINA RESULT:      -5.3     11.506     12.859
REMARK  1 active torsions:
REMARK  status: ('A' for Active; 'I' for Inactive)
REMARK       I    between atoms: N_11  and  C_17 
REMARK    1  A    between atoms: C_13  and  C_17 
ROOT
HETATM    1  O   UNK N   1      32.635  19.667  -6.447  0.00  0.00    -0.244 OA
HETATM    2  N   UNK N   1      31.514  20.878  -4.924  0.00  0.00    -0.241 N 
HETATM    3  N   UNK N   1      33.506  19.771  -4.355  0.00  0.00    -0.232 N 
HETATM    4  N   UNK N   1      29.673  22.121  -4.757  0.00  0.00    -0.344 N 
ATOM      5  HN  UNK N   1      28.806  22.607  -4.988  1.00  0.00     0.167 HD
HETATM    6  N   UNK N   1      32.359  21.023  -2.754  0.00  0.00    -0.268 N 
ATOM      7  HN  UNK N   1      32.279  21.378  -1.801  1.00  0.00     0.190 HD
HETATM    8  N   UNK N   1      33.388  20.245  -3.106  0.00  0.00    -0.235 N 
ATOM      9  HN  UNK N   1      34.097  20.008  -2.413  1.00  0.00     0.208 HD
HETATM   10  C   UNK N   1      31.428  21.328  -3.683  0.00  0.00     0.165 A 
HETATM   11  C   UNK N   1      30.306  22.094  -3.558  0.00  0.00     0.148 A 
HETATM   12  C   UNK N   1      32.553  20.085  -5.304  0.00  0.00     0.350 A 
HETATM   13  C   UNK N   1      30.441  21.360  -5.586  0.00  0.00     0.195 A 
HETATM   14  C   UNK N   1      34.644  18.930  -4.685  0.00  0.00     0.184 C 
ENDROOT
BRANCH  11  15
HETATM   15  C   UNK N   1      29.851  22.777  -2.337  0.00  0.00     0.269 C 
HETATM   16  O   UNK N   1      30.642  23.010  -1.436  0.00  0.00    -0.266 OA
HETATM   17  N   UNK N   1      28.564  23.149  -2.206  0.00  0.00    -0.365 N 
HETATM   18  H   UNK N   1      28.264  23.605  -1.388  0.00  0.00     0.159 HD
HETATM   19  H   UNK N   1      27.923  22.964  -2.930  0.00  0.00     0.159 HD
ENDBRANCH  11  15
TORSDOF 1
ENDMDL
MODEL 8
REMARK VINA RESULT:      -5.2      3.209      5.253
REMARK  1 active torsions:
REMARK  status: ('A' for Active; 'I' for Inactive)
REMARK       I    between atoms: N_11  and  C_17 
REMARK    1  A    between atoms: C_13  and  C_17 
ROOT
HETATM    1  O   UNK N   1      35.634  13.126  10.693  0.00  0.00    -0.244 OA
HETATM    2  N   UNK N   1      35.030  14.767   9.284  0.00  0.00    -0.241 N 
HETATM    3  N   UNK N   1      35.476  15.222  11.545  0.00  0.00    -0.232 N 
HETATM    4  N   UNK N   1      34.485  15.059   7.144  0.00  0.00    -0.344 N 
ATOM      5  HN  UNK N   1      34.288  14.878   6.160  1.00  0.00     0.167 HD
HETATM    6  N   UNK N   1      34.849  16.945  10.101  0.00  0.00    -0.268 N 
ATOM      7  HN  UNK N   1      34.644  17.931   9.938  1.00  0.00     0.190 HD
HETATM    8  N   UNK N   1      35.203  16.515  11.317  0.00  0.00    -0.235 N 
ATOM      9  HN  UNK N   1      35.268  17.182  12.085  1.00  0.00     0.208 HD
HETATM   10  C   UNK N   1      34.768  16.050   9.094  0.00  0.00     0.165 A 
HETATM   11  C   UNK N   1      34.431  16.252   7.787  0.00  0.00     0.148 A 
HETATM   12  C   UNK N   1      35.392  14.308  10.514  0.00  0.00     0.350 A 
HETATM   13  C   UNK N   1      34.858  14.156   8.094  0.00  0.00     0.195 A 
HETATM   14  C   UNK N   1      35.856  14.808  12.885  0.00  0.00     0.184 C 
ENDROOT
BRANCH  11  15
HETATM   15  C   UNK N   1      34.071  17.539   7.171  0.00  0.00     0.269 C 
HETATM   16  O   UNK N   1      34.688  18.551   7.465  0.00  0.00    -0.266 OA
HETATM   17  N   UNK N   1      33.061  17.607   6.284  0.00  0.00    -0.365 N 
HETATM   18  H   UNK N   1      32.824  18.469   5.874  0.00  0.00     0.159 HD
HETATM   19  H   UNK N   1      32.561  16.794   6.044  0.00  0.00     0.159 HD
ENDBRANCH  11  15
TORSDOF 1
ENDMDL
MODEL 9
REMARK VINA RESULT:      -5.2      3.600      5.680
REMARK  1 active torsions:
REMARK  status: ('A' for Active; 'I' for Inactive)
REMARK       I    between atoms: N_11  and  C_17 
REMARK    1  A    between atoms: C_13  and  C_17 
ROOT
HETATM    1  O   UNK N   1      35.882  13.114  11.111  0.00  0.00    -0.244 OA
HETATM    2  N   UNK N   1      35.365  15.085  10.168  0.00  0.00    -0.241 N 
HETATM    3  N   UNK N   1      35.552  13.137   8.868  0.00  0.00    -0.232 N 
HETATM    4  N   UNK N   1      35.038  17.213  10.740  0.00  0.00    -0.344 N 
ATOM      5  HN  UNK N   1      34.953  18.068  11.290  1.00  0.00     0.167 HD
HETATM    6  N   UNK N   1      35.013  15.174   7.863  0.00  0.00    -0.268 N 
ATOM      7  HN  UNK N   1      34.788  15.715   7.028  1.00  0.00     0.190 HD
HETATM    8  N   UNK N   1      35.254  13.862   7.779  0.00  0.00    -0.235 N 
ATOM      9  HN  UNK N   1      35.211  13.401   6.870  1.00  0.00     0.208 HD
HETATM   10  C   UNK N   1      35.074  15.769   9.073  0.00  0.00     0.165 A 
HETATM   11  C   UNK N   1      34.870  17.077   9.401  0.00  0.00     0.148 A 
HETATM   12  C   UNK N   1      35.613  13.748  10.105  0.00  0.00     0.350 A 
HETATM   13  C   UNK N   1      35.344  15.964  11.191  0.00  0.00     0.195 A 
HETATM   14  C   UNK N   1      35.804  11.714   8.720  0.00  0.00     0.184 C 
ENDROOT
BRANCH  11  15
HETATM   15  C   UNK N   1      34.525  18.163   8.470  0.00  0.00     0.269 C 
HETATM   16  O   UNK N   1      35.251  19.141   8.375  0.00  0.00    -0.266 OA
HETATM   17  N   UNK N   1      33.411  18.086   7.719  0.00  0.00    -0.365 N 
HETATM   18  H   UNK N   1      33.185  18.814   7.097  0.00  0.00     0.159 HD
HETATM   19  H   UNK N   1      32.822  17.300   7.791  0.00  0.00     0.159 HD
ENDBRANCH  11  15
TORSDOF 1
ENDMDL
