REMARK  1 active torsions:
REMARK  status: ('A' for Active; 'I' for Inactive)
REMARK    1  A    between atoms: O_1  and  C_18 
ROOT
HETATM    1  N   UNK N   1       5.137   0.667   0.037  0.00  0.00    -0.412 N 
HETATM    2  C   UNK N   1       4.893  -1.487  -0.488  0.00  0.00    -0.006 C 
HETATM    3  C   UNK N   1       6.446  -0.511  -0.048  0.00  0.00     0.021 C 
HETATM    4  C   UNK N   1       6.019   1.283   0.045  0.00  0.00     0.088 C 
HETATM    5  C   UNK N   1       4.934  -1.105  -1.910  0.00  0.00     0.034 C 
HETATM    6  C   UNK N   1       5.083  -2.978  -0.244  0.00  0.00     0.015 C 
HETATM    7  C   UNK N   1       7.119  -1.192   1.153  0.00  0.00     0.008 C 
HETATM    8  C   UNK N   1       3.256  -0.813  -0.169  0.00  0.00    -0.040 A 
HETATM    9  C   UNK N   1       4.285   2.013   0.010  0.00  0.00     0.064 C 
HETATM   10  C   UNK N   1       4.940   0.393  -1.658  0.00  0.00     0.118 C 
HETATM   11  C   UNK N   1       6.575  -3.326  -0.286  0.00  0.00     0.001 C 
HETATM   12  C   UNK N   1       7.384  -2.689   0.869  0.00  0.00     0.001 C 
HETATM   13  C   UNK N   1       2.905   0.758  -0.062  0.00  0.00    -0.049 A 
HETATM   14  C   UNK N   1       2.167  -1.683  -0.164  0.00  0.00     0.045 A 
HETATM   15  C   UNK N   1       4.852   0.288   1.631  0.00  0.00     0.143 C 
HETATM   16  C   UNK N   1       1.580   1.140   0.054  0.00  0.00     0.010 A 
HETATM   17  C   UNK N   1       0.855  -1.202  -0.053  0.00  0.00     0.066 A 
HETATM   18  C   UNK N   1       0.575   0.170   0.050  0.00  0.00     0.037 A 
ENDROOT
BRANCH  17  19
HETATM   19  O   UNK N   1      -0.165  -2.076  -0.058  0.00  0.00    -0.361 OA
HETATM   20  H   UNK N   1      -1.049  -1.765  -0.062  0.00  0.00     0.217 HD
ENDBRANCH  17  19
TORSDOF 1
