MODEL 1
REMARK VINA RESULT:      -6.8      0.000      0.000
REMARK  1 active torsions:
REMARK  status: ('A' for Active; 'I' for Inactive)
REMARK    1  A    between atoms: O_1  and  C_18 
ROOT
HETATM    1  N   UNK N   1      35.512  10.281  15.061  0.00  0.00    -0.412 N 
HETATM    2  C   UNK N   1      36.089  12.326  14.382  0.00  0.00    -0.006 C 
HETATM    3  C   UNK N   1      35.733  10.768  13.380  0.00  0.00     0.021 C 
HETATM    4  C   UNK N   1      35.549   9.341  14.538  0.00  0.00     0.088 C 
HETATM    5  C   UNK N   1      37.496  11.969  14.627  0.00  0.00     0.034 C 
HETATM    6  C   UNK N   1      35.909  13.583  13.541  0.00  0.00     0.015 C 
HETATM    7  C   UNK N   1      34.608  11.083  12.383  0.00  0.00     0.008 C 
HETATM    8  C   UNK N   1      35.627  12.435  16.117  0.00  0.00    -0.040 A 
HETATM    9  C   UNK N   1      35.432   9.444  16.414  0.00  0.00     0.064 C 
HETATM   10  C   UNK N   1      37.196  10.618  15.255  0.00  0.00     0.118 C 
HETATM   11  C   UNK N   1      36.072  13.243  12.056  0.00  0.00     0.001 C 
HETATM   12  C   UNK N   1      34.960  12.313  11.515  0.00  0.00     0.001 C 
HETATM   13  C   UNK N   1      35.443  11.176  17.109  0.00  0.00    -0.049 A 
HETATM   14  C   UNK N   1      35.571  13.694  16.713  0.00  0.00     0.045 A 
HETATM   15  C   UNK N   1      33.915  10.742  15.022  0.00  0.00     0.143 C 
HETATM   16  C   UNK N   1      35.217  11.412  18.453  0.00  0.00     0.010 A 
HETATM   17  C   UNK N   1      35.347  13.835  18.090  0.00  0.00     0.066 A 
HETATM   18  C   UNK N   1      35.178  12.724  18.931  0.00  0.00     0.037 A 
ENDROOT
BRANCH  17  19
HETATM   19  O   UNK N   1      35.305  15.068  18.623  0.00  0.00    -0.361 OA
HETATM   20  H   UNK N   1      35.024  15.794  18.103  0.00  0.00     0.217 HD
ENDBRANCH  17  19
TORSDOF 1
ENDMDL
MODEL 2
REMARK VINA RESULT:      -6.6      1.444      3.444
REMARK  1 active torsions:
REMARK  status: ('A' for Active; 'I' for Inactive)
REMARK    1  A    between atoms: O_1  and  C_18 
ROOT
HETATM    1  N   UNK N   1      35.810  12.045  14.436  0.00  0.00    -0.412 N 
HETATM    2  C   UNK N   1      35.403  10.114  15.476  0.00  0.00    -0.006 C 
HETATM    3  C   UNK N   1      35.981  10.447  13.711  0.00  0.00     0.021 C 
HETATM    4  C   UNK N   1      35.895  12.263  13.386  0.00  0.00     0.088 C 
HETATM    5  C   UNK N   1      33.977  10.283  15.147  0.00  0.00     0.034 C 
HETATM    6  C   UNK N   1      35.770   8.707  15.927  0.00  0.00     0.015 C 
HETATM    7  C   UNK N   1      37.304   9.701  13.489  0.00  0.00     0.008 C 
HETATM    8  C   UNK N   1      35.453  11.407  16.725  0.00  0.00    -0.040 A 
HETATM    9  C   UNK N   1      35.578  13.605  14.667  0.00  0.00     0.064 C 
HETATM   10  C   UNK N   1      34.126  11.677  14.563  0.00  0.00     0.118 C 
HETATM   11  C   UNK N   1      35.952   7.800  14.705  0.00  0.00     0.001 C 
HETATM   12  C   UNK N   1      37.160   8.198  13.823  0.00  0.00     0.001 C 
HETATM   13  C   UNK N   1      35.406  12.991  16.422  0.00  0.00    -0.049 A 
HETATM   14  C   UNK N   1      35.370  11.040  18.067  0.00  0.00     0.045 A 
HETATM   15  C   UNK N   1      37.373  11.995  15.002  0.00  0.00     0.143 C 
HETATM   16  C   UNK N   1      35.317  13.872  17.485  0.00  0.00     0.010 A 
HETATM   17  C   UNK N   1      35.272  12.006  19.078  0.00  0.00     0.066 A 
HETATM   18  C   UNK N   1      35.243  13.380  18.790  0.00  0.00     0.037 A 
ENDROOT
BRANCH  17  19
HETATM   19  O   UNK N   1      35.188  11.607  20.358  0.00  0.00    -0.361 OA
HETATM   20  H   UNK N   1      35.966  11.517  20.873  0.00  0.00     0.217 HD
ENDBRANCH  17  19
TORSDOF 1
ENDMDL
MODEL 3
REMARK VINA RESULT:      -6.5      6.773      9.676
REMARK  1 active torsions:
REMARK  status: ('A' for Active; 'I' for Inactive)
REMARK    1  A    between atoms: O_1  and  C_18 
ROOT
HETATM    1  N   UNK N   1      33.352  16.234   6.179  0.00  0.00    -0.412 N 
HETATM    2  C   UNK N   1      32.114  16.871   7.922  0.00  0.00    -0.006 C 
HETATM    3  C   UNK N   1      31.836  17.129   6.074  0.00  0.00     0.021 C 
HETATM    4  C   UNK N   1      33.343  16.578   5.160  0.00  0.00     0.088 C 
HETATM    5  C   UNK N   1      32.984  18.052   8.058  0.00  0.00     0.034 C 
HETATM    6  C   UNK N   1      30.810  16.972   8.702  0.00  0.00     0.015 C 
HETATM    7  C   UNK N   1      30.468  16.536   5.705  0.00  0.00     0.008 C 
HETATM    8  C   UNK N   1      33.328  15.685   8.518  0.00  0.00    -0.040 A 
HETATM    9  C   UNK N   1      34.801  15.638   5.890  0.00  0.00     0.064 C 
HETATM   10  C   UNK N   1      33.979  17.623   6.993  0.00  0.00     0.118 C 
HETATM   11  C   UNK N   1      29.794  17.803   7.910  0.00  0.00     0.001 C 
HETATM   12  C   UNK N   1      29.347  17.127   6.591  0.00  0.00     0.001 C 
HETATM   13  C   UNK N   1      34.624  15.192   7.694  0.00  0.00    -0.049 A 
HETATM   14  C   UNK N   1      33.251  15.263   9.844  0.00  0.00     0.045 A 
HETATM   15  C   UNK N   1      32.537  14.784   6.159  0.00  0.00     0.143 C 
HETATM   16  C   UNK N   1      35.547  14.377   8.326  0.00  0.00     0.010 A 
HETATM   17  C   UNK N   1      34.242  14.444  10.403  0.00  0.00     0.066 A 
HETATM   18  C   UNK N   1      35.356  14.019   9.663  0.00  0.00     0.037 A 
ENDROOT
BRANCH  17  19
HETATM   19  O   UNK N   1      34.131  14.066  11.687  0.00  0.00    -0.361 OA
HETATM   20  H   UNK N   1      34.729  14.398  12.328  0.00  0.00     0.217 HD
ENDBRANCH  17  19
TORSDOF 1
ENDMDL
MODEL 4
REMARK VINA RESULT:      -6.5     22.389     25.424
REMARK  1 active torsions:
REMARK  status: ('A' for Active; 'I' for Inactive)
REMARK    1  A    between atoms: O_1  and  C_18 
ROOT
HETATM    1  N   UNK N   1      27.559  24.287  -6.566  0.00  0.00    -0.412 N 
HETATM    2  C   UNK N   1      27.910  25.799  -4.964  0.00  0.00    -0.006 C 
HETATM    3  C   UNK N   1      26.735  25.841  -6.439  0.00  0.00     0.021 C 
HETATM    4  C   UNK N   1      27.091  24.394  -7.529  0.00  0.00     0.088 C 
HETATM    5  C   UNK N   1      29.061  26.294  -5.739  0.00  0.00     0.034 C 
HETATM    6  C   UNK N   1      27.456  26.745  -3.861  0.00  0.00     0.015 C 
HETATM    7  C   UNK N   1      25.309  26.060  -5.913  0.00  0.00     0.008 C 
HETATM    8  C   UNK N   1      28.691  24.263  -4.448  0.00  0.00    -0.040 A 
HETATM    9  C   UNK N   1      28.217  22.944  -7.115  0.00  0.00     0.064 C 
HETATM   10  C   UNK N   1      29.004  25.206  -6.797  0.00  0.00     0.118 C 
HETATM   11  C   UNK N   1      26.572  27.848  -4.453  0.00  0.00     0.001 C 
HETATM   12  C   UNK N   1      25.232  27.320  -5.019  0.00  0.00     0.001 C 
HETATM   13  C   UNK N   1      28.968  22.995  -5.407  0.00  0.00    -0.049 A 
HETATM   14  C   UNK N   1      29.246  24.194  -3.171  0.00  0.00     0.045 A 
HETATM   15  C   UNK N   1      26.415  23.563  -5.601  0.00  0.00     0.143 C 
HETATM   16  C   UNK N   1      29.697  21.929  -4.911  0.00  0.00     0.010 A 
HETATM   17  C   UNK N   1      29.981  23.074  -2.759  0.00  0.00     0.066 A 
HETATM   18  C   UNK N   1      30.200  21.978  -3.608  0.00  0.00     0.037 A 
ENDROOT
BRANCH  17  19
HETATM   19  O   UNK N   1      30.503  23.053  -1.521  0.00  0.00    -0.361 OA
HETATM   20  H   UNK N   1      29.937  23.049  -0.774  0.00  0.00     0.217 HD
ENDBRANCH  17  19
TORSDOF 1
ENDMDL
MODEL 5
REMARK VINA RESULT:      -6.4     24.715     26.633
REMARK  1 active torsions:
REMARK  status: ('A' for Active; 'I' for Inactive)
REMARK    1  A    between atoms: O_1  and  C_18 
ROOT
HETATM    1  N   UNK N   1      28.636  25.182  -5.066  0.00  0.00    -0.412 N 
HETATM    2  C   UNK N   1      26.485  25.771  -5.048  0.00  0.00    -0.006 C 
HETATM    3  C   UNK N   1      28.003  26.690  -4.409  0.00  0.00     0.021 C 
HETATM    4  C   UNK N   1      29.465  25.566  -4.497  0.00  0.00     0.088 C 
HETATM    5  C   UNK N   1      26.319  24.982  -3.815  0.00  0.00     0.034 C 
HETATM    6  C   UNK N   1      25.332  26.725  -5.330  0.00  0.00     0.015 C 
HETATM    7  C   UNK N   1      28.061  28.062  -5.098  0.00  0.00     0.008 C 
HETATM    8  C   UNK N   1      26.655  24.355  -6.145  0.00  0.00    -0.040 A 
HETATM    9  C   UNK N   1      29.525  23.891  -5.352  0.00  0.00     0.064 C 
HETATM   10  C   UNK N   1      27.721  24.397  -3.827  0.00  0.00     0.118 C 
HETATM   11  C   UNK N   1      25.500  28.003  -4.500  0.00  0.00     0.001 C 
HETATM   12  C   UNK N   1      26.737  28.838  -4.907  0.00  0.00     0.001 C 
HETATM   13  C   UNK N   1      27.952  23.399  -6.230  0.00  0.00    -0.049 A 
HETATM   14  C   UNK N   1      25.542  23.938  -6.872  0.00  0.00     0.045 A 
HETATM   15  C   UNK N   1      28.787  25.861  -6.576  0.00  0.00     0.143 C 
HETATM   16  C   UNK N   1      27.896  22.266  -7.022  0.00  0.00     0.010 A 
HETATM   17  C   UNK N   1      25.575  22.766  -7.640  0.00  0.00     0.066 A 
HETATM   18  C   UNK N   1      26.719  21.956  -7.708  0.00  0.00     0.037 A 
ENDROOT
BRANCH  17  19
HETATM   19  O   UNK N   1      24.476  22.400  -8.322  0.00  0.00    -0.361 OA
HETATM   20  H   UNK N   1      23.999  21.635  -8.065  0.00  0.00     0.217 HD
ENDBRANCH  17  19
TORSDOF 1
ENDMDL
MODEL 6
REMARK VINA RESULT:      -6.3     10.190     11.746
REMARK  1 active torsions:
REMARK  status: ('A' for Active; 'I' for Inactive)
REMARK    1  A    between atoms: O_1  and  C_18 
ROOT
HETATM    1  N   UNK N   1      31.789  16.230   5.892  0.00  0.00    -0.412 N 
HETATM    2  C   UNK N   1      29.624  16.018   5.402  0.00  0.00    -0.006 C 
HETATM    3  C   UNK N   1      31.130  15.168   4.649  0.00  0.00     0.021 C 
HETATM    4  C   UNK N   1      32.659  15.953   5.324  0.00  0.00     0.088 C 
HETATM    5  C   UNK N   1      29.741  17.210   4.544  0.00  0.00     0.034 C 
HETATM    6  C   UNK N   1      28.353  15.213   5.167  0.00  0.00     0.015 C 
HETATM    7  C   UNK N   1      30.939  13.650   4.775  0.00  0.00     0.008 C 
HETATM    8  C   UNK N   1      29.747  16.908   6.960  0.00  0.00    -0.040 A 
HETATM    9  C   UNK N   1      32.739  17.184   6.744  0.00  0.00     0.064 C 
HETATM   10  C   UNK N   1      31.172  17.533   4.939  0.00  0.00     0.118 C 
HETATM   11  C   UNK N   1      28.530  14.305   3.945  0.00  0.00     0.001 C 
HETATM   12  C   UNK N   1      29.596  13.202   4.152  0.00  0.00     0.001 C 
HETATM   13  C   UNK N   1      31.098  17.562   7.550  0.00  0.00    -0.049 A 
HETATM   14  C   UNK N   1      28.574  17.201   7.654  0.00  0.00     0.045 A 
HETATM   15  C   UNK N   1      31.621  15.043   7.045  0.00  0.00     0.143 C 
HETATM   16  C   UNK N   1      31.022  18.334   8.696  0.00  0.00     0.010 A 
HETATM   17  C   UNK N   1      28.592  18.003   8.803  0.00  0.00     0.066 A 
HETATM   18  C   UNK N   1      29.783  18.553   9.304  0.00  0.00     0.037 A 
ENDROOT
BRANCH  17  19
HETATM   19  O   UNK N   1      27.437  18.265   9.438  0.00  0.00    -0.361 OA
HETATM   20  H   UNK N   1      26.736  18.686   8.980  0.00  0.00     0.217 HD
ENDBRANCH  17  19
TORSDOF 1
ENDMDL
MODEL 7
REMARK VINA RESULT:      -6.3      1.783      4.623
REMARK  1 active torsions:
REMARK  status: ('A' for Active; 'I' for Inactive)
REMARK    1  A    between atoms: O_1  and  C_18 
ROOT
HETATM    1  N   UNK N   1      35.777   9.859  14.211  0.00  0.00    -0.412 N 
HETATM    2  C   UNK N   1      35.253  11.592  15.514  0.00  0.00    -0.006 C 
HETATM    3  C   UNK N   1      35.478   9.770  15.946  0.00  0.00     0.021 C 
HETATM    4  C   UNK N   1      35.666   8.803  14.384  0.00  0.00     0.088 C 
HETATM    5  C   UNK N   1      33.848  11.426  15.104  0.00  0.00     0.034 C 
HETATM    6  C   UNK N   1      35.439  12.482  16.735  0.00  0.00     0.015 C 
HETATM    7  C   UNK N   1      36.553   9.662  17.037  0.00  0.00     0.008 C 
HETATM    8  C   UNK N   1      35.823  12.245  13.938  0.00  0.00    -0.040 A 
HETATM    9  C   UNK N   1      35.901   9.518  12.660  0.00  0.00     0.064 C 
HETATM   10  C   UNK N   1      34.125  10.347  14.072  0.00  0.00     0.118 C 
HETATM   11  C   UNK N   1      35.170  11.677  18.011  0.00  0.00     0.001 C 
HETATM   12  C   UNK N   1      36.205  10.552  18.253  0.00  0.00     0.001 C 
HETATM   13  C   UNK N   1      36.010  11.380  12.589  0.00  0.00    -0.049 A 
HETATM   14  C   UNK N   1      35.972  13.624  13.803  0.00  0.00     0.045 A 
HETATM   15  C   UNK N   1      37.388  10.180  14.470  0.00  0.00     0.143 C 
HETATM   16  C   UNK N   1      36.328  12.037  11.413  0.00  0.00     0.010 A 
HETATM   17  C   UNK N   1      36.285  14.203  12.565  0.00  0.00     0.066 A 
HETATM   18  C   UNK N   1      36.454  13.428  11.407  0.00  0.00     0.037 A 
ENDROOT
BRANCH  17  19
HETATM   19  O   UNK N   1      36.414  15.537  12.480  0.00  0.00    -0.361 OA
HETATM   20  H   UNK N   1      35.682  16.064  12.227  0.00  0.00     0.217 HD
ENDBRANCH  17  19
TORSDOF 1
ENDMDL
MODEL 8
REMARK VINA RESULT:      -6.0     23.114     26.150
REMARK  1 active torsions:
REMARK  status: ('A' for Active; 'I' for Inactive)
REMARK    1  A    between atoms: O_1  and  C_18 
ROOT
HETATM    1  N   UNK N   1      26.640  25.402  -5.077  0.00  0.00    -0.412 N 
HETATM    2  C   UNK N   1      26.710  24.000  -6.810  0.00  0.00    -0.006 C 
HETATM    3  C   UNK N   1      25.774  25.624  -6.597  0.00  0.00     0.021 C 
HETATM    4  C   UNK N   1      25.936  26.182  -4.844  0.00  0.00     0.088 C 
HETATM    5  C   UNK N   1      25.667  23.196  -6.152  0.00  0.00     0.034 C 
HETATM    6  C   UNK N   1      26.914  23.662  -8.281  0.00  0.00     0.015 C 
HETATM    7  C   UNK N   1      26.187  26.570  -7.734  0.00  0.00     0.008 C 
HETATM    8  C   UNK N   1      28.031  23.539  -5.679  0.00  0.00    -0.040 A 
HETATM    9  C   UNK N   1      27.079  25.442  -3.546  0.00  0.00     0.064 C 
HETATM   10  C   UNK N   1      25.659  23.996  -4.861  0.00  0.00     0.118 C 
HETATM   11  C   UNK N   1      25.849  24.366  -9.128  0.00  0.00     0.001 C 
HETATM   12  C   UNK N   1      25.977  25.908  -9.115  0.00  0.00     0.001 C 
HETATM   13  C   UNK N   1      28.174  24.059  -4.159  0.00  0.00    -0.049 A 
HETATM   14  C   UNK N   1      28.923  22.541  -6.068  0.00  0.00     0.045 A 
HETATM   15  C   UNK N   1      27.977  26.184  -5.683  0.00  0.00     0.143 C 
HETATM   16  C   UNK N   1      29.165  23.519  -3.358  0.00  0.00     0.010 A 
HETATM   17  C   UNK N   1      29.890  22.046  -5.182  0.00  0.00     0.066 A 
HETATM   18  C   UNK N   1      30.002  22.523  -3.866  0.00  0.00     0.037 A 
ENDROOT
BRANCH  17  19
HETATM   19  O   UNK N   1      30.726  21.080  -5.598  0.00  0.00    -0.361 OA
HETATM   20  H   UNK N   1      31.584  21.011  -5.227  0.00  0.00     0.217 HD
ENDBRANCH  17  19
TORSDOF 1
ENDMDL
MODEL 9
REMARK VINA RESULT:      -6.0     12.585     14.523
REMARK  1 active torsions:
REMARK  status: ('A' for Active; 'I' for Inactive)
REMARK    1  A    between atoms: O_1  and  C_18 
ROOT
HETATM    1  N   UNK N   1      22.405  13.573   6.640  0.00  0.00    -0.412 N 
HETATM    2  C   UNK N   1      24.582  13.954   6.940  0.00  0.00    -0.006 C 
HETATM    3  C   UNK N   1      23.419  14.552   5.581  0.00  0.00     0.021 C 
HETATM    4  C   UNK N   1      21.795  13.692   5.761  0.00  0.00     0.088 C 
HETATM    5  C   UNK N   1      24.859  12.668   6.277  0.00  0.00     0.034 C 
HETATM    6  C   UNK N   1      25.801  14.857   7.069  0.00  0.00     0.015 C 
HETATM    7  C   UNK N   1      23.463  16.087   5.549  0.00  0.00     0.008 C 
HETATM    8  C   UNK N   1      23.937  13.237   8.459  0.00  0.00    -0.040 A 
HETATM    9  C   UNK N   1      21.261  12.626   7.217  0.00  0.00     0.064 C 
HETATM   10  C   UNK N   1      23.404  12.243   6.170  0.00  0.00     0.118 C 
HETATM   11  C   UNK N   1      26.040  15.599   5.749  0.00  0.00     0.001 C 
HETATM   12  C   UNK N   1      24.914  16.600   5.397  0.00  0.00     0.001 C 
HETATM   13  C   UNK N   1      22.503  12.514   8.607  0.00  0.00    -0.049 A 
HETATM   14  C   UNK N   1      24.782  13.148   9.564  0.00  0.00     0.045 A 
HETATM   15  C   UNK N   1      22.064  14.893   7.593  0.00  0.00     0.143 C 
HETATM   16  C   UNK N   1      22.190  11.888   9.800  0.00  0.00     0.010 A 
HETATM   17  C   UNK N   1      24.382  12.481  10.730  0.00  0.00     0.066 A 
HETATM   18  C   UNK N   1      23.123  11.869  10.840  0.00  0.00     0.037 A 
ENDROOT
BRANCH  17  19
HETATM   19  O   UNK N   1      25.231  12.415  11.770  0.00  0.00    -0.361 OA
HETATM   20  H   UNK N   1      25.761  13.155  11.990  0.00  0.00     0.217 HD
ENDBRANCH  17  19
TORSDOF 1
ENDMDL
