MODEL 1
REMARK VINA RESULT:      -4.2      0.000      0.000
REMARK  6 active torsions:
REMARK  status: ('A' for Active; 'I' for Inactive)
REMARK    1  A    between atoms: O_2  and  C_9 
REMARK    2  A    between atoms: N_4  and  C_8 
REMARK    3  A    between atoms: C_5  and  C_6 
REMARK    4  A    between atoms: C_5  and  C_7 
REMARK    5  A    between atoms: C_6  and  C_9 
REMARK    6  A    between atoms: C_7  and  C_8 
ROOT
HETATM    1  C   UNK N   1      34.028  16.230   9.197  0.00  0.00     0.090 C 
ENDROOT
BRANCH   1   2
HETATM    2  C   UNK N   1      33.388  17.541   8.749  0.00  0.00     0.117 C 
BRANCH   2   3
HETATM    3  C   UNK N   1      34.295  18.304   7.824  0.00  0.00     0.139 C 
HETATM    4  O   UNK N   1      34.227  18.152   6.612  0.00  0.00    -0.650 OA
BRANCH   3   5
HETATM    5  O   UNK N   1      35.192  19.165   8.334  0.00  0.00    -0.776 OA
HETATM    6  H   UNK N   1      34.915  19.836   8.927  0.00  0.00     0.167 HD
ENDBRANCH   3   5
ENDBRANCH   2   3
ENDBRANCH   1   2
BRANCH   1   7
HETATM    7  C   UNK N   1      34.980  16.357  10.347  0.00  0.00     0.144 C 
HETATM    8  O   UNK N   1      35.633  17.378  10.518  0.00  0.00    -0.296 OA
BRANCH   7   9
HETATM    9  C   UNK N   1      35.110  15.192  11.282  0.00  0.00     0.189 C 
BRANCH   9  10
HETATM   10  N   UNK N   1      36.201  15.375  12.224  0.00  0.00    -0.424 N 
HETATM   11  H   UNK N   1      36.742  16.240  12.215  0.00  0.00     0.150 HD
HETATM   12  H   UNK N   1      36.426  14.640  12.894  0.00  0.00     0.150 HD
ENDBRANCH   9  10
ENDBRANCH   7   9
ENDBRANCH   1   7
TORSDOF 6
ENDMDL
MODEL 2
REMARK VINA RESULT:      -4.1      2.607      3.759
REMARK  6 active torsions:
REMARK  status: ('A' for Active; 'I' for Inactive)
REMARK    1  A    between atoms: O_2  and  C_9 
REMARK    2  A    between atoms: N_4  and  C_8 
REMARK    3  A    between atoms: C_5  and  C_6 
REMARK    4  A    between atoms: C_5  and  C_7 
REMARK    5  A    between atoms: C_6  and  C_9 
REMARK    6  A    between atoms: C_7  and  C_8 
ROOT
HETATM    1  C   UNK N   1      35.207  13.976  11.089  0.00  0.00     0.090 C 
ENDROOT
BRANCH   1   2
HETATM    2  C   UNK N   1      34.685  15.410  11.082  0.00  0.00     0.117 C 
BRANCH   2   3
HETATM    3  C   UNK N   1      35.772  16.386  10.729  0.00  0.00     0.139 C 
HETATM    4  O   UNK N   1      35.501  17.506  10.316  0.00  0.00    -0.650 OA
BRANCH   3   5
HETATM    5  O   UNK N   1      37.060  16.027  10.869  0.00  0.00    -0.776 OA
HETATM    6  H   UNK N   1      37.327  15.152  10.664  0.00  0.00     0.167 HD
ENDBRANCH   3   5
ENDBRANCH   2   3
ENDBRANCH   1   2
BRANCH   1   7
HETATM    7  C   UNK N   1      35.513  13.425  12.448  0.00  0.00     0.144 C 
HETATM    8  O   UNK N   1      34.701  13.504  13.361  0.00  0.00    -0.296 OA
BRANCH   7   9
HETATM    9  C   UNK N   1      36.847  12.773  12.656  0.00  0.00     0.189 C 
BRANCH   9  10
HETATM   10  N   UNK N   1      37.821  13.211  11.670  0.00  0.00    -0.424 N 
HETATM   11  H   UNK N   1      37.838  14.185  11.368  0.00  0.00     0.150 HD
HETATM   12  H   UNK N   1      38.489  12.545  11.281  0.00  0.00     0.150 HD
ENDBRANCH   9  10
ENDBRANCH   7   9
ENDBRANCH   1   7
TORSDOF 6
ENDMDL
MODEL 3
REMARK VINA RESULT:      -4.1      7.169      8.504
REMARK  6 active torsions:
REMARK  status: ('A' for Active; 'I' for Inactive)
REMARK    1  A    between atoms: O_2  and  C_9 
REMARK    2  A    between atoms: N_4  and  C_8 
REMARK    3  A    between atoms: C_5  and  C_6 
REMARK    4  A    between atoms: C_5  and  C_7 
REMARK    5  A    between atoms: C_6  and  C_9 
REMARK    6  A    between atoms: C_7  and  C_8 
ROOT
HETATM    1  C   UNK N   1      34.971  13.286  16.712  0.00  0.00     0.090 C 
ENDROOT
BRANCH   1   2
HETATM    2  C   UNK N   1      36.172  12.897  15.854  0.00  0.00     0.117 C 
BRANCH   2   3
HETATM    3  C   UNK N   1      36.731  14.087  15.125  0.00  0.00     0.139 C 
HETATM    4  O   UNK N   1      36.368  14.354  13.987  0.00  0.00    -0.650 OA
BRANCH   3   5
HETATM    5  O   UNK N   1      37.642  14.869  15.729  0.00  0.00    -0.776 OA
HETATM    6  H   UNK N   1      37.928  15.660  15.316  0.00  0.00     0.167 HD
ENDBRANCH   3   5
ENDBRANCH   2   3
ENDBRANCH   1   2
BRANCH   1   7
HETATM    7  C   UNK N   1      35.312  13.765  18.090  0.00  0.00     0.144 C 
HETATM    8  O   UNK N   1      35.686  14.914  18.286  0.00  0.00    -0.296 OA
BRANCH   7   9
HETATM    9  C   UNK N   1      35.183  12.791  19.223  0.00  0.00     0.189 C 
BRANCH   9  10
HETATM   10  N   UNK N   1      34.710  13.436  20.436  0.00  0.00    -0.424 N 
HETATM   11  H   UNK N   1      33.835  13.134  20.867  0.00  0.00     0.150 HD
HETATM   12  H   UNK N   1      35.252  14.191  20.858  0.00  0.00     0.150 HD
ENDBRANCH   9  10
ENDBRANCH   7   9
ENDBRANCH   1   7
TORSDOF 6
ENDMDL
MODEL 4
REMARK VINA RESULT:      -4.1     12.558     13.265
REMARK  6 active torsions:
REMARK  status: ('A' for Active; 'I' for Inactive)
REMARK    1  A    between atoms: O_2  and  C_9 
REMARK    2  A    between atoms: N_4  and  C_8 
REMARK    3  A    between atoms: C_5  and  C_6 
REMARK    4  A    between atoms: C_5  and  C_7 
REMARK    5  A    between atoms: C_6  and  C_9 
REMARK    6  A    between atoms: C_7  and  C_8 
ROOT
HETATM    1  C   UNK N   1      22.271  12.933  10.470  0.00  0.00     0.090 C 
ENDROOT
BRANCH   1   2
HETATM    2  C   UNK N   1      22.434  11.871  11.554  0.00  0.00     0.117 C 
BRANCH   2   3
HETATM    3  C   UNK N   1      23.701  12.079  12.337  0.00  0.00     0.139 C 
HETATM    4  O   UNK N   1      23.689  12.083  13.560  0.00  0.00    -0.650 OA
BRANCH   3   5
HETATM    5  O   UNK N   1      24.862  12.262  11.686  0.00  0.00    -0.776 OA
HETATM    6  H   UNK N   1      24.879  12.263  10.749  0.00  0.00     0.167 HD
ENDBRANCH   3   5
ENDBRANCH   2   3
ENDBRANCH   1   2
BRANCH   1   7
HETATM    7  C   UNK N   1      22.122  12.394   9.080  0.00  0.00     0.144 C 
HETATM    8  O   UNK N   1      21.069  12.508   8.466  0.00  0.00    -0.296 OA
BRANCH   7   9
HETATM    9  C   UNK N   1      23.305  11.708   8.464  0.00  0.00     0.189 C 
BRANCH   9  10
HETATM   10  N   UNK N   1      24.523  12.484   8.625  0.00  0.00    -0.424 N 
HETATM   11  H   UNK N   1      24.486  13.406   9.060  0.00  0.00     0.150 HD
HETATM   12  H   UNK N   1      25.415  12.107   8.303  0.00  0.00     0.150 HD
ENDBRANCH   9  10
ENDBRANCH   7   9
ENDBRANCH   1   7
TORSDOF 6
ENDMDL
MODEL 5
REMARK VINA RESULT:      -4.0     12.937     13.376
REMARK  6 active torsions:
REMARK  status: ('A' for Active; 'I' for Inactive)
REMARK    1  A    between atoms: O_2  and  C_9 
REMARK    2  A    between atoms: N_4  and  C_8 
REMARK    3  A    between atoms: C_5  and  C_6 
REMARK    4  A    between atoms: C_5  and  C_7 
REMARK    5  A    between atoms: C_6  and  C_9 
REMARK    6  A    between atoms: C_7  and  C_8 
ROOT
HETATM    1  C   UNK N   1      21.862  12.492  10.686  0.00  0.00     0.090 C 
ENDROOT
BRANCH   1   2
HETATM    2  C   UNK N   1      21.796  13.762   9.841  0.00  0.00     0.117 C 
BRANCH   2   3
HETATM    3  C   UNK N   1      20.446  13.920   9.196  0.00  0.00     0.139 C 
HETATM    4  O   UNK N   1      19.451  14.143   9.872  0.00  0.00    -0.650 OA
BRANCH   3   5
HETATM    5  O   UNK N   1      20.330  13.815   7.862  0.00  0.00    -0.776 OA
HETATM    6  H   UNK N   1      19.889  14.484   7.376  0.00  0.00     0.167 HD
ENDBRANCH   3   5
ENDBRANCH   2   3
ENDBRANCH   1   2
BRANCH   1   7
HETATM    7  C   UNK N   1      23.210  12.196  11.269  0.00  0.00     0.144 C 
HETATM    8  O   UNK N   1      23.341  11.931  12.457  0.00  0.00    -0.296 OA
BRANCH   7   9
HETATM    9  C   UNK N   1      24.395  12.236  10.352  0.00  0.00     0.189 C 
BRANCH   9  10
HETATM   10  N   UNK N   1      25.436  13.118  10.853  0.00  0.00    -0.424 N 
HETATM   11  H   UNK N   1      25.185  13.969  11.356  0.00  0.00     0.150 HD
HETATM   12  H   UNK N   1      26.418  12.886  10.703  0.00  0.00     0.150 HD
ENDBRANCH   9  10
ENDBRANCH   7   9
ENDBRANCH   1   7
TORSDOF 6
ENDMDL
MODEL 6
REMARK VINA RESULT:      -4.0      6.809      8.879
REMARK  6 active torsions:
REMARK  status: ('A' for Active; 'I' for Inactive)
REMARK    1  A    between atoms: O_2  and  C_9 
REMARK    2  A    between atoms: N_4  and  C_8 
REMARK    3  A    between atoms: C_5  and  C_6 
REMARK    4  A    between atoms: C_5  and  C_7 
REMARK    5  A    between atoms: C_6  and  C_9 
REMARK    6  A    between atoms: C_7  and  C_8 
ROOT
HETATM    1  C   UNK N   1      34.482  13.055  16.215  0.00  0.00     0.090 C 
ENDROOT
BRANCH   1   2
HETATM    2  C   UNK N   1      35.216  12.548  17.454  0.00  0.00     0.117 C 
BRANCH   2   3
HETATM    3  C   UNK N   1      35.292  13.609  18.517  0.00  0.00     0.139 C 
HETATM    4  O   UNK N   1      35.652  14.747  18.243  0.00  0.00    -0.650 OA
BRANCH   3   5
HETATM    5  O   UNK N   1      34.962  13.307  19.784  0.00  0.00    -0.776 OA
HETATM    6  H   UNK N   1      35.123  13.924  20.470  0.00  0.00     0.167 HD
ENDBRANCH   3   5
ENDBRANCH   2   3
ENDBRANCH   1   2
BRANCH   1   7
HETATM    7  C   UNK N   1      35.340  13.214  14.998  0.00  0.00     0.144 C 
HETATM    8  O   UNK N   1      34.848  13.269  13.879  0.00  0.00    -0.296 OA
BRANCH   7   9
HETATM    9  C   UNK N   1      36.824  13.305  15.194  0.00  0.00     0.189 C 
BRANCH   9  10
HETATM   10  N   UNK N   1      37.253  14.672  15.439  0.00  0.00    -0.424 N 
HETATM   11  H   UNK N   1      38.154  14.852  15.883  0.00  0.00     0.150 HD
HETATM   12  H   UNK N   1      36.654  15.452  15.167  0.00  0.00     0.150 HD
ENDBRANCH   9  10
ENDBRANCH   7   9
ENDBRANCH   1   7
TORSDOF 6
ENDMDL
MODEL 7
REMARK VINA RESULT:      -4.0     16.239     16.867
REMARK  6 active torsions:
REMARK  status: ('A' for Active; 'I' for Inactive)
REMARK    1  A    between atoms: O_2  and  C_9 
REMARK    2  A    between atoms: N_4  and  C_8 
REMARK    3  A    between atoms: C_5  and  C_6 
REMARK    4  A    between atoms: C_5  and  C_7 
REMARK    5  A    between atoms: C_6  and  C_9 
REMARK    6  A    between atoms: C_7  and  C_8 
ROOT
HETATM    1  C   UNK N   1      19.757  18.160   1.925  0.00  0.00     0.090 C 
ENDROOT
BRANCH   1   2
HETATM    2  C   UNK N   1      20.912  19.095   2.272  0.00  0.00     0.117 C 
BRANCH   2   3
HETATM    3  C   UNK N   1      20.921  20.308   1.384  0.00  0.00     0.139 C 
HETATM    4  O   UNK N   1      21.159  21.418   1.840  0.00  0.00    -0.650 OA
BRANCH   3   5
HETATM    5  O   UNK N   1      20.663  20.174   0.072  0.00  0.00    -0.776 OA
HETATM    6  H   UNK N   1      21.223  20.581  -0.560  0.00  0.00     0.167 HD
ENDBRANCH   3   5
ENDBRANCH   2   3
ENDBRANCH   1   2
BRANCH   1   7
HETATM    7  C   UNK N   1      20.114  17.039   0.998  0.00  0.00     0.144 C 
HETATM    8  O   UNK N   1      20.338  17.244  -0.188  0.00  0.00    -0.296 OA
BRANCH   7   9
HETATM    9  C   UNK N   1      20.188  15.654   1.569  0.00  0.00     0.189 C 
BRANCH   9  10
HETATM   10  N   UNK N   1      19.020  14.863   1.220  0.00  0.00    -0.424 N 
HETATM   11  H   UNK N   1      19.070  14.188   0.456  0.00  0.00     0.150 HD
HETATM   12  H   UNK N   1      18.148  14.983   1.737  0.00  0.00     0.150 HD
ENDBRANCH   9  10
ENDBRANCH   7   9
ENDBRANCH   1   7
TORSDOF 6
ENDMDL
MODEL 8
REMARK VINA RESULT:      -4.0     13.277     13.983
REMARK  6 active torsions:
REMARK  status: ('A' for Active; 'I' for Inactive)
REMARK    1  A    between atoms: O_2  and  C_9 
REMARK    2  A    between atoms: N_4  and  C_8 
REMARK    3  A    between atoms: C_5  and  C_6 
REMARK    4  A    between atoms: C_5  and  C_7 
REMARK    5  A    between atoms: C_6  and  C_9 
REMARK    6  A    between atoms: C_7  and  C_8 
ROOT
HETATM    1  C   UNK N   1      22.435  12.520  10.379  0.00  0.00     0.090 C 
ENDROOT
BRANCH   1   2
HETATM    2  C   UNK N   1      22.333  11.967  11.798  0.00  0.00     0.117 C 
BRANCH   2   3
HETATM    3  C   UNK N   1      23.638  12.104  12.533  0.00  0.00     0.139 C 
HETATM    4  O   UNK N   1      23.671  12.118  13.756  0.00  0.00    -0.650 OA
BRANCH   3   5
HETATM    5  O   UNK N   1      24.784  12.214  11.839  0.00  0.00    -0.776 OA
HETATM    6  H   UNK N   1      25.603  12.026  12.254  0.00  0.00     0.167 HD
ENDBRANCH   3   5
ENDBRANCH   2   3
ENDBRANCH   1   2
BRANCH   1   7
HETATM    7  C   UNK N   1      21.225  13.268   9.909  0.00  0.00     0.144 C 
HETATM    8  O   UNK N   1      20.118  13.041  10.379  0.00  0.00    -0.296 OA
BRANCH   7   9
HETATM    9  C   UNK N   1      21.413  14.306   8.843  0.00  0.00     0.189 C 
BRANCH   9  10
HETATM   10  N   UNK N   1      20.616  15.494   9.100  0.00  0.00    -0.424 N 
HETATM   11  H   UNK N   1      19.688  15.405   9.515  0.00  0.00     0.150 HD
HETATM   12  H   UNK N   1      20.984  16.416   8.866  0.00  0.00     0.150 HD
ENDBRANCH   9  10
ENDBRANCH   7   9
ENDBRANCH   1   7
TORSDOF 6
ENDMDL
MODEL 9
REMARK VINA RESULT:      -4.0      6.542      8.576
REMARK  6 active torsions:
REMARK  status: ('A' for Active; 'I' for Inactive)
REMARK    1  A    between atoms: O_2  and  C_9 
REMARK    2  A    between atoms: N_4  and  C_8 
REMARK    3  A    between atoms: C_5  and  C_6 
REMARK    4  A    between atoms: C_5  and  C_7 
REMARK    5  A    between atoms: C_6  and  C_9 
REMARK    6  A    between atoms: C_7  and  C_8 
ROOT
HETATM    1  C   UNK N   1      36.106  12.972  16.065  0.00  0.00     0.090 C 
ENDROOT
BRANCH   1   2
HETATM    2  C   UNK N   1      34.897  13.356  16.914  0.00  0.00     0.117 C 
BRANCH   2   3
HETATM    3  C   UNK N   1      35.318  13.911  18.246  0.00  0.00     0.139 C 
HETATM    4  O   UNK N   1      35.262  13.224  19.258  0.00  0.00    -0.650 OA
BRANCH   3   5
HETATM    5  O   UNK N   1      35.763  15.176  18.330  0.00  0.00    -0.776 OA
HETATM    6  H   UNK N   1      36.263  15.449  19.074  0.00  0.00     0.167 HD
ENDBRANCH   3   5
ENDBRANCH   2   3
ENDBRANCH   1   2
BRANCH   1   7
HETATM    7  C   UNK N   1      36.694  14.094  15.266  0.00  0.00     0.144 C 
HETATM    8  O   UNK N   1      37.517  14.856  15.756  0.00  0.00    -0.296 OA
BRANCH   7   9
HETATM    9  C   UNK N   1      36.243  14.254  13.845  0.00  0.00     0.189 C 
BRANCH   9  10
HETATM   10  N   UNK N   1      37.106  13.537  12.921  0.00  0.00    -0.424 N 
HETATM   11  H   UNK N   1      37.949  13.076  13.264  0.00  0.00     0.150 HD
HETATM   12  H   UNK N   1      36.869  13.494  11.929  0.00  0.00     0.150 HD
ENDBRANCH   9  10
ENDBRANCH   7   9
ENDBRANCH   1   7
TORSDOF 6
ENDMDL
