MODEL 1
REMARK VINA RESULT:      -5.0      0.000      0.000
REMARK  6 active torsions:
REMARK  status: ('A' for Active; 'I' for Inactive)
REMARK    1  A    between atoms: O_2  and  C_6 
REMARK    2  A    between atoms: O_2  and  C_8 
REMARK    3  A    between atoms: O_3  and  C_5 
REMARK    4  A    between atoms: O_4  and  C_7 
REMARK    5  A    between atoms: C_5  and  C_6 
REMARK    6  A    between atoms: C_5  and  C_7 
ROOT
HETATM    1  O   UNK N   1      33.981  17.332   9.329  0.00  0.00    -0.349 OA
ENDROOT
BRANCH   1   2
HETATM    2  C   UNK N   1      35.052  16.474   9.459  0.00  0.00     0.209 C 
BRANCH   2   3
HETATM    3  C   UNK N   1      35.433  16.289  10.914  0.00  0.00     0.166 C 
BRANCH   3   4
HETATM    4  O   UNK N   1      36.819  16.165  11.021  0.00  0.00    -0.391 OA
HETATM    5  H   UNK N   1      37.348  16.906  11.355  0.00  0.00     0.210 HD
ENDBRANCH   3   4
BRANCH   3   6
HETATM    6  C   UNK N   1      34.767  15.021  11.419  0.00  0.00     0.198 C 
BRANCH   6   7
HETATM    7  O   UNK N   1      33.398  15.058  11.153  0.00  0.00    -0.398 OA
HETATM    8  H   UNK N   1      32.825  14.635  10.496  0.00  0.00     0.209 HD
ENDBRANCH   6   7
ENDBRANCH   3   6
ENDBRANCH   2   3
ENDBRANCH   1   2
BRANCH   1   9
HETATM    9  C   UNK N   1      33.193  17.350   8.226  0.00  0.00     0.069 A 
HETATM   10  C   UNK N   1      31.795  17.216   8.321  0.00  0.00     0.038 A 
HETATM   11  C   UNK N   1      31.007  17.199   7.168  0.00  0.00     0.026 A 
HETATM   12  C   UNK N   1      31.607  17.311   5.911  0.00  0.00     0.034 A 
HETATM   13 Cl   UNK N   1      30.620  17.259   4.467  0.00  0.00    -0.084 Cl
HETATM   14  C   UNK N   1      32.994  17.453   5.809  0.00  0.00     0.026 A 
HETATM   15  C   UNK N   1      33.784  17.476   6.964  0.00  0.00     0.038 A 
ENDBRANCH   1   9
TORSDOF 6
ENDMDL
MODEL 2
REMARK VINA RESULT:      -5.0      5.525      8.238
REMARK  6 active torsions:
REMARK  status: ('A' for Active; 'I' for Inactive)
REMARK    1  A    between atoms: O_2  and  C_6 
REMARK    2  A    between atoms: O_2  and  C_8 
REMARK    3  A    between atoms: O_3  and  C_5 
REMARK    4  A    between atoms: O_4  and  C_7 
REMARK    5  A    between atoms: C_5  and  C_6 
REMARK    6  A    between atoms: C_5  and  C_7 
ROOT
HETATM    1  O   UNK N   1      36.467  13.508  12.409  0.00  0.00    -0.349 OA
ENDROOT
BRANCH   1   2
HETATM    2  C   UNK N   1      35.542  13.753  11.416  0.00  0.00     0.209 C 
BRANCH   2   3
HETATM    3  C   UNK N   1      34.873  15.099  11.611  0.00  0.00     0.166 C 
BRANCH   3   4
HETATM    4  O   UNK N   1      33.530  15.009  11.241  0.00  0.00    -0.391 OA
HETATM    5  H   UNK N   1      32.875  14.668  11.871  0.00  0.00     0.210 HD
ENDBRANCH   3   4
BRANCH   3   6
HETATM    6  C   UNK N   1      35.578  16.110  10.726  0.00  0.00     0.198 C 
BRANCH   6   7
HETATM    7  O   UNK N   1      36.957  16.047  10.928  0.00  0.00    -0.398 OA
HETATM    8  H   UNK N   1      37.563  16.427  11.582  0.00  0.00     0.209 HD
ENDBRANCH   6   7
ENDBRANCH   3   6
ENDBRANCH   2   3
ENDBRANCH   1   2
BRANCH   1   9
HETATM    9  C   UNK N   1      36.129  13.459  13.721  0.00  0.00     0.069 A 
HETATM   10  C   UNK N   1      36.793  14.251  14.678  0.00  0.00     0.038 A 
HETATM   11  C   UNK N   1      36.454  14.156  16.030  0.00  0.00     0.026 A 
HETATM   12  C   UNK N   1      35.455  13.269  16.439  0.00  0.00     0.034 A 
HETATM   13 Cl   UNK N   1      35.054  13.131  18.136  0.00  0.00    -0.084 Cl
HETATM   14  C   UNK N   1      34.785  12.487  15.493  0.00  0.00     0.026 A 
HETATM   15  C   UNK N   1      35.120  12.585  14.138  0.00  0.00     0.038 A 
ENDBRANCH   1   9
TORSDOF 6
ENDMDL
MODEL 3
REMARK VINA RESULT:      -4.9     17.592     18.806
REMARK  6 active torsions:
REMARK  status: ('A' for Active; 'I' for Inactive)
REMARK    1  A    between atoms: O_2  and  C_6 
REMARK    2  A    between atoms: O_2  and  C_8 
REMARK    3  A    between atoms: O_3  and  C_5 
REMARK    4  A    between atoms: O_4  and  C_7 
REMARK    5  A    between atoms: C_5  and  C_6 
REMARK    6  A    between atoms: C_5  and  C_7 
ROOT
HETATM    1  O   UNK N   1      25.166  24.041  -6.045  0.00  0.00    -0.349 OA
ENDROOT
BRANCH   1   2
HETATM    2  C   UNK N   1      26.105  23.227  -6.643  0.00  0.00     0.209 C 
BRANCH   2   3
HETATM    3  C   UNK N   1      25.541  22.559  -7.882  0.00  0.00     0.166 C 
BRANCH   3   4
HETATM    4  O   UNK N   1      24.586  23.392  -8.467  0.00  0.00    -0.391 OA
HETATM    5  H   UNK N   1      24.342  24.226  -8.037  0.00  0.00     0.210 HD
ENDBRANCH   3   4
BRANCH   3   6
HETATM    6  C   UNK N   1      24.890  21.254  -7.460  0.00  0.00     0.198 C 
BRANCH   6   7
HETATM    7  O   UNK N   1      23.683  21.508  -6.808  0.00  0.00    -0.398 OA
HETATM    8  H   UNK N   1      23.361  22.219  -6.233  0.00  0.00     0.209 HD
ENDBRANCH   6   7
ENDBRANCH   3   6
ENDBRANCH   2   3
ENDBRANCH   1   2
BRANCH   1   9
HETATM    9  C   UNK N   1      25.502  25.185  -5.400  0.00  0.00     0.069 A 
HETATM   10  C   UNK N   1      26.235  25.161  -4.198  0.00  0.00     0.038 A 
HETATM   11  C   UNK N   1      26.536  26.351  -3.531  0.00  0.00     0.026 A 
HETATM   12  C   UNK N   1      26.105  27.572  -4.054  0.00  0.00     0.034 A 
HETATM   13 Cl   UNK N   1      26.458  29.058  -3.199  0.00  0.00    -0.084 Cl
HETATM   14  C   UNK N   1      25.385  27.605  -5.251  0.00  0.00     0.026 A 
HETATM   15  C   UNK N   1      25.087  26.414  -5.923  0.00  0.00     0.038 A 
ENDBRANCH   1   9
TORSDOF 6
ENDMDL
MODEL 4
REMARK VINA RESULT:      -4.9     10.563     13.024
REMARK  6 active torsions:
REMARK  status: ('A' for Active; 'I' for Inactive)
REMARK    1  A    between atoms: O_2  and  C_6 
REMARK    2  A    between atoms: O_2  and  C_8 
REMARK    3  A    between atoms: O_3  and  C_5 
REMARK    4  A    between atoms: O_4  and  C_7 
REMARK    5  A    between atoms: C_5  and  C_6 
REMARK    6  A    between atoms: C_5  and  C_7 
ROOT
HETATM    1  O   UNK N   1      22.515  20.245   3.109  0.00  0.00    -0.349 OA
ENDROOT
BRANCH   1   2
HETATM    2  C   UNK N   1      21.533  19.278   3.075  0.00  0.00     0.209 C 
BRANCH   2   3
HETATM    3  C   UNK N   1      20.302  19.773   2.343  0.00  0.00     0.166 C 
BRANCH   3   4
HETATM    4  O   UNK N   1      19.669  18.698   1.715  0.00  0.00    -0.391 OA
HETATM    5  H   UNK N   1      20.010  18.359   0.873  0.00  0.00     0.210 HD
ENDBRANCH   3   4
BRANCH   3   6
HETATM    6  C   UNK N   1      20.746  20.782   1.299  0.00  0.00     0.198 C 
BRANCH   6   7
HETATM    7  O   UNK N   1      20.695  20.213   0.027  0.00  0.00    -0.398 OA
HETATM    8  H   UNK N   1      20.943  20.516  -0.860  0.00  0.00     0.209 HD
ENDBRANCH   6   7
ENDBRANCH   3   6
ENDBRANCH   2   3
ENDBRANCH   1   2
BRANCH   1   9
HETATM    9  C   UNK N   1      23.807  19.959   3.405  0.00  0.00     0.069 A 
HETATM   10  C   UNK N   1      24.141  18.962   4.340  0.00  0.00     0.038 A 
HETATM   11  C   UNK N   1      25.479  18.711   4.656  0.00  0.00     0.026 A 
HETATM   12  C   UNK N   1      26.492  19.456   4.047  0.00  0.00     0.034 A 
HETATM   13 Cl   UNK N   1      28.164  19.160   4.469  0.00  0.00    -0.084 Cl
HETATM   14  C   UNK N   1      26.168  20.441   3.111  0.00  0.00     0.026 A 
HETATM   15  C   UNK N   1      24.829  20.690   2.788  0.00  0.00     0.038 A 
ENDBRANCH   1   9
TORSDOF 6
ENDMDL
MODEL 5
REMARK VINA RESULT:      -4.8     11.135     12.151
REMARK  6 active torsions:
REMARK  status: ('A' for Active; 'I' for Inactive)
REMARK    1  A    between atoms: O_2  and  C_6 
REMARK    2  A    between atoms: O_2  and  C_8 
REMARK    3  A    between atoms: O_3  and  C_5 
REMARK    4  A    between atoms: O_4  and  C_7 
REMARK    5  A    between atoms: C_5  and  C_6 
REMARK    6  A    between atoms: C_5  and  C_7 
ROOT
HETATM    1  O   UNK N   1      21.864  11.818  10.292  0.00  0.00    -0.349 OA
ENDROOT
BRANCH   1   2
HETATM    2  C   UNK N   1      23.202  11.506  10.407  0.00  0.00     0.209 C 
BRANCH   2   3
HETATM    3  C   UNK N   1      23.846  12.267  11.549  0.00  0.00     0.166 C 
BRANCH   3   4
HETATM    4  O   UNK N   1      25.196  11.925  11.634  0.00  0.00    -0.391 OA
HETATM    5  H   UNK N   1      25.469  10.999  11.534  0.00  0.00     0.210 HD
ENDBRANCH   3   4
BRANCH   3   6
HETATM    6  C   UNK N   1      23.139  11.878  12.835  0.00  0.00     0.198 C 
BRANCH   6   7
HETATM    7  O   UNK N   1      23.786  12.449  13.931  0.00  0.00    -0.398 OA
HETATM    8  H   UNK N   1      24.010  13.357  14.187  0.00  0.00     0.209 HD
ENDBRANCH   6   7
ENDBRANCH   3   6
ENDBRANCH   2   3
ENDBRANCH   1   2
BRANCH   1   9
HETATM    9  C   UNK N   1      21.406  12.743   9.413  0.00  0.00     0.069 A 
HETATM   10  C   UNK N   1      21.507  12.546   8.023  0.00  0.00     0.038 A 
HETATM   11  C   UNK N   1      21.062  13.530   7.137  0.00  0.00     0.026 A 
HETATM   12  C   UNK N   1      20.518  14.718   7.629  0.00  0.00     0.034 A 
HETATM   13 Cl   UNK N   1      19.990  15.961   6.516  0.00  0.00    -0.084 Cl
HETATM   14  C   UNK N   1      20.406  14.917   9.008  0.00  0.00     0.026 A 
HETATM   15  C   UNK N   1      20.845  13.930   9.897  0.00  0.00     0.038 A 
ENDBRANCH   1   9
TORSDOF 6
ENDMDL
MODEL 6
REMARK VINA RESULT:      -4.8      6.993      9.988
REMARK  6 active torsions:
REMARK  status: ('A' for Active; 'I' for Inactive)
REMARK    1  A    between atoms: O_2  and  C_6 
REMARK    2  A    between atoms: O_2  and  C_8 
REMARK    3  A    between atoms: O_3  and  C_5 
REMARK    4  A    between atoms: O_4  and  C_7 
REMARK    5  A    between atoms: C_5  and  C_6 
REMARK    6  A    between atoms: C_5  and  C_7 
ROOT
HETATM    1  O   UNK N   1      34.940  13.299  14.843  0.00  0.00    -0.349 OA
ENDROOT
BRANCH   1   2
HETATM    2  C   UNK N   1      35.432  12.708  13.699  0.00  0.00     0.209 C 
BRANCH   2   3
HETATM    3  C   UNK N   1      36.360  13.646  12.953  0.00  0.00     0.166 C 
BRANCH   3   4
HETATM    4  O   UNK N   1      36.773  14.670  13.807  0.00  0.00    -0.391 OA
HETATM    5  H   UNK N   1      36.193  15.430  13.968  0.00  0.00     0.210 HD
ENDBRANCH   3   4
BRANCH   3   6
HETATM    6  C   UNK N   1      35.594  14.236  11.782  0.00  0.00     0.198 C 
BRANCH   6   7
HETATM    7  O   UNK N   1      34.221  14.127  12.001  0.00  0.00    -0.398 OA
HETATM    8  H   UNK N   1      33.657  14.162  12.789  0.00  0.00     0.209 HD
ENDBRANCH   6   7
ENDBRANCH   3   6
ENDBRANCH   2   3
ENDBRANCH   1   2
BRANCH   1   9
HETATM    9  C   UNK N   1      35.119  12.761  16.074  0.00  0.00     0.069 A 
HETATM   10  C   UNK N   1      35.389  11.390  16.243  0.00  0.00     0.038 A 
HETATM   11  C   UNK N   1      35.533  10.852  17.524  0.00  0.00     0.026 A 
HETATM   12  C   UNK N   1      35.402  11.674  18.646  0.00  0.00     0.034 A 
HETATM   13 Cl   UNK N   1      35.551  10.989  20.249  0.00  0.00    -0.084 Cl
HETATM   14  C   UNK N   1      35.142  13.038  18.486  0.00  0.00     0.026 A 
HETATM   15  C   UNK N   1      35.004  13.580  17.203  0.00  0.00     0.038 A 
ENDBRANCH   1   9
TORSDOF 6
ENDMDL
MODEL 7
REMARK VINA RESULT:      -4.7     13.243     15.340
REMARK  6 active torsions:
REMARK  status: ('A' for Active; 'I' for Inactive)
REMARK    1  A    between atoms: O_2  and  C_6 
REMARK    2  A    between atoms: O_2  and  C_8 
REMARK    3  A    between atoms: O_3  and  C_5 
REMARK    4  A    between atoms: O_4  and  C_7 
REMARK    5  A    between atoms: C_5  and  C_6 
REMARK    6  A    between atoms: C_5  and  C_7 
ROOT
HETATM    1  O   UNK N   1      29.390  24.274  -3.347  0.00  0.00    -0.349 OA
ENDROOT
BRANCH   1   2
HETATM    2  C   UNK N   1      29.799  23.021  -3.752  0.00  0.00     0.209 C 
BRANCH   2   3
HETATM    3  C   UNK N   1      30.484  22.276  -2.624  0.00  0.00     0.166 C 
BRANCH   3   4
HETATM    4  O   UNK N   1      30.442  23.049  -1.462  0.00  0.00    -0.391 OA
HETATM    5  H   UNK N   1      30.931  23.886  -1.419  0.00  0.00     0.210 HD
ENDBRANCH   3   4
BRANCH   3   6
HETATM    6  C   UNK N   1      31.928  22.034  -3.024  0.00  0.00     0.198 C 
BRANCH   6   7
HETATM    7  O   UNK N   1      32.568  21.248  -2.066  0.00  0.00    -0.398 OA
HETATM    8  H   UNK N   1      33.055  21.439  -1.250  0.00  0.00     0.209 HD
ENDBRANCH   6   7
ENDBRANCH   3   6
ENDBRANCH   2   3
ENDBRANCH   1   2
BRANCH   1   9
HETATM    9  C   UNK N   1      28.331  24.909  -3.905  0.00  0.00     0.069 A 
HETATM   10  C   UNK N   1      28.411  26.259  -4.299  0.00  0.00     0.038 A 
HETATM   11  C   UNK N   1      27.294  26.903  -4.838  0.00  0.00     0.026 A 
HETATM   12  C   UNK N   1      26.090  26.210  -4.983  0.00  0.00     0.034 A 
HETATM   13 Cl   UNK N   1      24.686  27.030  -5.629  0.00  0.00    -0.084 Cl
HETATM   14  C   UNK N   1      26.006  24.868  -4.602  0.00  0.00     0.026 A 
HETATM   15  C   UNK N   1      27.125  24.219  -4.068  0.00  0.00     0.038 A 
ENDBRANCH   1   9
TORSDOF 6
ENDMDL
MODEL 8
REMARK VINA RESULT:      -4.7      0.815      1.713
REMARK  6 active torsions:
REMARK  status: ('A' for Active; 'I' for Inactive)
REMARK    1  A    between atoms: O_2  and  C_6 
REMARK    2  A    between atoms: O_2  and  C_8 
REMARK    3  A    between atoms: O_3  and  C_5 
REMARK    4  A    between atoms: O_4  and  C_7 
REMARK    5  A    between atoms: C_5  and  C_6 
REMARK    6  A    between atoms: C_5  and  C_7 
ROOT
HETATM    1  O   UNK N   1      34.678  16.209   8.717  0.00  0.00    -0.349 OA
ENDROOT
BRANCH   1   2
HETATM    2  C   UNK N   1      34.775  14.939   9.244  0.00  0.00     0.209 C 
BRANCH   2   3
HETATM    3  C   UNK N   1      34.736  14.969  10.758  0.00  0.00     0.166 C 
BRANCH   3   4
HETATM    4  O   UNK N   1      33.409  14.997  11.190  0.00  0.00    -0.391 OA
HETATM    5  H   UNK N   1      32.726  15.398  10.631  0.00  0.00     0.210 HD
ENDBRANCH   3   4
BRANCH   3   6
HETATM    6  C   UNK N   1      35.450  16.225  11.225  0.00  0.00     0.198 C 
BRANCH   6   7
HETATM    7  O   UNK N   1      36.792  16.184  10.847  0.00  0.00    -0.398 OA
HETATM    8  H   UNK N   1      37.374  15.494  10.493  0.00  0.00     0.209 HD
ENDBRANCH   6   7
ENDBRANCH   3   6
ENDBRANCH   2   3
ENDBRANCH   1   2
BRANCH   1   9
HETATM    9  C   UNK N   1      33.736  16.548   7.803  0.00  0.00     0.069 A 
HETATM   10  C   UNK N   1      32.366  16.330   8.048  0.00  0.00     0.038 A 
HETATM   11  C   UNK N   1      31.416  16.653   7.076  0.00  0.00     0.026 A 
HETATM   12  C   UNK N   1      31.823  17.189   5.852  0.00  0.00     0.034 A 
HETATM   13 Cl   UNK N   1      30.633  17.563   4.625  0.00  0.00    -0.084 Cl
HETATM   14  C   UNK N   1      33.180  17.417   5.606  0.00  0.00     0.026 A 
HETATM   15  C   UNK N   1      34.133  17.100   6.580  0.00  0.00     0.038 A 
ENDBRANCH   1   9
TORSDOF 6
ENDMDL
MODEL 9
REMARK VINA RESULT:      -4.7      5.576      8.392
REMARK  6 active torsions:
REMARK  status: ('A' for Active; 'I' for Inactive)
REMARK    1  A    between atoms: O_2  and  C_6 
REMARK    2  A    between atoms: O_2  and  C_8 
REMARK    3  A    between atoms: O_3  and  C_5 
REMARK    4  A    between atoms: O_4  and  C_7 
REMARK    5  A    between atoms: C_5  and  C_6 
REMARK    6  A    between atoms: C_5  and  C_7 
ROOT
HETATM    1  O   UNK N   1      35.053  13.454  12.736  0.00  0.00    -0.349 OA
ENDROOT
BRANCH   1   2
HETATM    2  C   UNK N   1      35.681  14.674  12.597  0.00  0.00     0.209 C 
BRANCH   2   3
HETATM    3  C   UNK N   1      35.875  15.026  11.135  0.00  0.00     0.166 C 
BRANCH   3   4
HETATM    4  O   UNK N   1      36.925  15.938  11.011  0.00  0.00    -0.391 OA
HETATM    5  H   UNK N   1      37.651  15.760  10.393  0.00  0.00     0.210 HD
ENDBRANCH   3   4
BRANCH   3   6
HETATM    6  C   UNK N   1      34.590  15.656  10.626  0.00  0.00     0.198 C 
BRANCH   6   7
HETATM    7  O   UNK N   1      33.486  15.021  11.194  0.00  0.00    -0.398 OA
HETATM    8  H   UNK N   1      32.863  15.251  11.902  0.00  0.00     0.209 HD
ENDBRANCH   6   7
ENDBRANCH   3   6
ENDBRANCH   2   3
ENDBRANCH   1   2
BRANCH   1   9
HETATM    9  C   UNK N   1      35.069  12.758  13.899  0.00  0.00     0.069 A 
HETATM   10  C   UNK N   1      34.349  11.556  14.044  0.00  0.00     0.038 A 
HETATM   11  C   UNK N   1      34.349  10.876  15.264  0.00  0.00     0.026 A 
HETATM   12  C   UNK N   1      35.062  11.389  16.349  0.00  0.00     0.034 A 
HETATM   13 Cl   UNK N   1      35.034  10.550  17.885  0.00  0.00    -0.084 Cl
HETATM   14  C   UNK N   1      35.786  12.577  16.211  0.00  0.00     0.026 A 
HETATM   15  C   UNK N   1      35.792  13.257  14.988  0.00  0.00     0.038 A 
ENDBRANCH   1   9
TORSDOF 6
ENDMDL
