MODEL 1
REMARK VINA RESULT:      -7.4      0.000      0.000
REMARK  5 active torsions:
REMARK  status: ('A' for Active; 'I' for Inactive)
REMARK    1  A    between atoms: C_10  and  O_1 
REMARK    2  A    between atoms: C_13  and  O_2 
REMARK    3  A    between atoms: O_4  and  C_24 
REMARK    4  A    between atoms: C_10  and  C_20 
REMARK    5  A    between atoms: C_20  and  C_24 
ROOT
HETATM    1  O   UNK N   1      34.260  19.582  -5.717  0.00  0.00    -0.289 OA
HETATM    2  C   UNK N   1      27.926  24.857  -4.135  0.00  0.00     0.001 C 
HETATM    3  C   UNK N   1      27.944  24.125  -5.474  0.00  0.00     0.002 C 
HETATM    4  C   UNK N   1      28.884  22.904  -5.396  0.00  0.00    -0.002 C 
HETATM    5  C   UNK N   1      30.340  23.296  -4.954  0.00  0.00     0.035 C 
HETATM    6  C   UNK N   1      26.680  25.776  -4.227  0.00  0.00     0.128 C 
HETATM    7  C   UNK N   1      29.314  25.482  -3.917  0.00  0.00     0.045 C 
HETATM    8  C   UNK N   1      26.465  23.805  -5.709  0.00  0.00     0.009 C 
HETATM    9  C   UNK N   1      30.393  24.370  -3.803  0.00  0.00     0.124 C 
HETATM   10  C   UNK N   1      31.106  21.964  -4.613  0.00  0.00     0.004 C 
HETATM   11  C   UNK N   1      25.660  24.808  -4.845  0.00  0.00     0.047 C 
HETATM   12  C   UNK N   1      28.963  22.125  -6.716  0.00  0.00     0.010 C 
HETATM   13  C   UNK N   1      27.637  23.880  -2.960  0.00  0.00     0.019 C 
HETATM   14  C   UNK N   1      29.706  20.802  -6.501  0.00  0.00     0.036 C 
HETATM   15  C   UNK N   1      31.030  21.014  -5.815  0.00  0.00    -0.064 C 
HETATM   16  C   UNK N   1      30.422  21.233  -3.457  0.00  0.00     0.025 C 
HETATM   17  C   UNK N   1      32.527  22.216  -4.134  0.00  0.00    -0.009 C 
HETATM   18  C   UNK N   1      32.074  20.260  -6.186  0.00  0.00     0.058 C 
HETATM   19  C   UNK N   1      33.563  21.460  -4.518  0.00  0.00     0.052 C 
HETATM   20  C   UNK N   1      33.366  20.373  -5.489  0.00  0.00     0.171 C 
ENDROOT
BRANCH   6  21
HETATM   21  O   UNK N   1      26.276  26.170  -2.944  0.00  0.00    -0.381 OA
HETATM   22  H   UNK N   1      25.432  26.579  -2.695  0.00  0.00     0.211 HD
ENDBRANCH   6  21
BRANCH   6  23
HETATM   23  C   UNK N   1      26.664  27.017  -5.101  0.00  0.00     0.184 C 
HETATM   24  O   UNK N   1      26.643  26.872  -6.315  0.00  0.00    -0.292 OA
BRANCH  23  25
HETATM   25  C   UNK N   1      26.787  28.401  -4.566  0.00  0.00     0.245 C 
BRANCH  25  26
HETATM   26  O   UNK N   1      25.564  28.768  -3.998  0.00  0.00    -0.393 OA
HETATM   27  H   UNK N   1      24.859  28.112  -3.871  0.00  0.00     0.209 HD
ENDBRANCH  25  26
ENDBRANCH  23  25
ENDBRANCH   6  23
BRANCH   9  28
HETATM   28  O   UNK N   1      30.357  23.815  -2.522  0.00  0.00    -0.395 OA
HETATM   29  H   UNK N   1      29.808  23.848  -1.724  0.00  0.00     0.210 HD
ENDBRANCH   9  28
TORSDOF 5
ENDMDL
MODEL 2
REMARK VINA RESULT:      -7.3     14.687     16.454
REMARK  5 active torsions:
REMARK  status: ('A' for Active; 'I' for Inactive)
REMARK    1  A    between atoms: C_10  and  O_1 
REMARK    2  A    between atoms: C_13  and  O_2 
REMARK    3  A    between atoms: O_4  and  C_24 
REMARK    4  A    between atoms: C_10  and  C_20 
REMARK    5  A    between atoms: C_20  and  C_24 
ROOT
HETATM    1  O   UNK N   1      24.363  11.624  11.828  0.00  0.00    -0.289 OA
HETATM    2  C   UNK N   1      21.105  16.099   5.519  0.00  0.00     0.001 C 
HETATM    3  C   UNK N   1      22.618  16.126   5.724  0.00  0.00     0.002 C 
HETATM    4  C   UNK N   1      23.055  14.930   6.594  0.00  0.00    -0.002 C 
HETATM    5  C   UNK N   1      22.305  14.888   7.974  0.00  0.00     0.035 C 
HETATM    6  C   UNK N   1      20.870  17.076   4.337  0.00  0.00     0.128 C 
HETATM    7  C   UNK N   1      20.438  16.375   6.876  0.00  0.00     0.045 C 
HETATM    8  C   UNK N   1      23.158  16.131   4.290  0.00  0.00     0.009 C 
HETATM    9  C   UNK N   1      20.772  15.239   7.882  0.00  0.00     0.124 C 
HETATM   10  C   UNK N   1      22.594  13.484   8.627  0.00  0.00     0.004 C 
HETATM   11  C   UNK N   1      22.009  16.660   3.395  0.00  0.00     0.047 C 
HETATM   12  C   UNK N   1      24.567  14.902   6.855  0.00  0.00     0.010 C 
HETATM   13  C   UNK N   1      20.630  14.708   5.011  0.00  0.00     0.019 C 
HETATM   14  C   UNK N   1      24.962  13.572   7.505  0.00  0.00     0.036 C 
HETATM   15  C   UNK N   1      24.111  13.268   8.709  0.00  0.00    -0.064 C 
HETATM   16  C   UNK N   1      22.057  12.360   7.741  0.00  0.00     0.025 C 
HETATM   17  C   UNK N   1      21.887  13.307   9.962  0.00  0.00    -0.009 C 
HETATM   18  C   UNK N   1      24.683  12.684   9.771  0.00  0.00     0.058 C 
HETATM   19  C   UNK N   1      22.473  12.729  11.017  0.00  0.00     0.052 C 
HETATM   20  C   UNK N   1      23.876  12.293  10.939  0.00  0.00     0.171 C 
ENDROOT
BRANCH   6  21
HETATM   21  O   UNK N   1      19.622  16.827   3.748  0.00  0.00    -0.381 OA
HETATM   22  H   UNK N   1      18.860  16.387   4.154  0.00  0.00     0.211 HD
ENDBRANCH   6  21
BRANCH   6  23
HETATM   23  C   UNK N   1      20.992  18.579   4.506  0.00  0.00     0.184 C 
HETATM   24  O   UNK N   1      21.033  19.036   5.640  0.00  0.00    -0.292 OA
BRANCH  23  25
HETATM   25  C   UNK N   1      20.950  19.540   3.369  0.00  0.00     0.245 C 
BRANCH  25  26
HETATM   26  O   UNK N   1      20.273  20.690   3.784  0.00  0.00    -0.393 OA
HETATM   27  H   UNK N   1      20.617  21.572   3.571  0.00  0.00     0.209 HD
ENDBRANCH  25  26
ENDBRANCH  23  25
ENDBRANCH   6  23
BRANCH   9  28
HETATM   28  O   UNK N   1      19.962  14.132   7.621  0.00  0.00    -0.395 OA
HETATM   29  H   UNK N   1      19.785  13.251   7.984  0.00  0.00     0.210 HD
ENDBRANCH   9  28
TORSDOF 5
ENDMDL
MODEL 3
REMARK VINA RESULT:      -7.3     21.407     24.154
REMARK  5 active torsions:
REMARK  status: ('A' for Active; 'I' for Inactive)
REMARK    1  A    between atoms: C_10  and  O_1 
REMARK    2  A    between atoms: C_13  and  O_2 
REMARK    3  A    between atoms: O_4  and  C_24 
REMARK    4  A    between atoms: C_10  and  C_20 
REMARK    5  A    between atoms: C_20  and  C_24 
ROOT
HETATM    1  O   UNK N   1      36.032  10.432  20.696  0.00  0.00    -0.289 OA
HETATM    2  C   UNK N   1      36.145  12.334  12.522  0.00  0.00     0.001 C 
HETATM    3  C   UNK N   1      37.208  11.380  13.061  0.00  0.00     0.002 C 
HETATM    4  C   UNK N   1      36.764  10.807  14.422  0.00  0.00    -0.002 C 
HETATM    5  C   UNK N   1      36.441  11.933  15.469  0.00  0.00     0.035 C 
HETATM    6  C   UNK N   1      36.517  12.504  11.026  0.00  0.00     0.128 C 
HETATM    7  C   UNK N   1      36.106  13.568  13.439  0.00  0.00     0.045 C 
HETATM    8  C   UNK N   1      37.355  10.357  11.931  0.00  0.00     0.009 C 
HETATM    9  C   UNK N   1      35.656  13.161  14.870  0.00  0.00     0.124 C 
HETATM   10  C   UNK N   1      35.714  11.252  16.689  0.00  0.00     0.004 C 
HETATM   11  C   UNK N   1      36.834  11.049  10.646  0.00  0.00     0.047 C 
HETATM   12  C   UNK N   1      37.795   9.849  15.033  0.00  0.00     0.010 C 
HETATM   13  C   UNK N   1      34.738  11.672  12.528  0.00  0.00     0.019 C 
HETATM   14  C   UNK N   1      37.191   9.132  16.245  0.00  0.00     0.036 C 
HETATM   15  C   UNK N   1      36.584  10.106  17.220  0.00  0.00    -0.064 C 
HETATM   16  C   UNK N   1      34.401  10.609  16.238  0.00  0.00     0.025 C 
HETATM   17  C   UNK N   1      35.315  12.254  17.761  0.00  0.00    -0.009 C 
HETATM   18  C   UNK N   1      36.704   9.863  18.532  0.00  0.00     0.058 C 
HETATM   19  C   UNK N   1      35.448  12.001  19.069  0.00  0.00     0.052 C 
HETATM   20  C   UNK N   1      36.057  10.741  19.522  0.00  0.00     0.171 C 
ENDROOT
BRANCH   6  21
HETATM   21  O   UNK N   1      35.412  12.976  10.305  0.00  0.00    -0.381 OA
HETATM   22  H   UNK N   1      34.802  12.454   9.761  0.00  0.00     0.211 HD
ENDBRANCH   6  21
BRANCH   6  23
HETATM   23  C   UNK N   1      37.718  13.322  10.589  0.00  0.00     0.184 C 
HETATM   24  O   UNK N   1      38.830  12.966  10.955  0.00  0.00    -0.292 OA
BRANCH  23  25
HETATM   25  C   UNK N   1      37.611  14.601   9.833  0.00  0.00     0.245 C 
BRANCH  25  26
HETATM   26  O   UNK N   1      37.206  15.606  10.717  0.00  0.00    -0.393 OA
HETATM   27  H   UNK N   1      37.376  16.540  10.516  0.00  0.00     0.209 HD
ENDBRANCH  25  26
ENDBRANCH  23  25
ENDBRANCH   6  23
BRANCH   9  28
HETATM   28  O   UNK N   1      34.270  13.002  14.896  0.00  0.00    -0.395 OA
HETATM   29  H   UNK N   1      33.599  12.483  15.367  0.00  0.00     0.210 HD
ENDBRANCH   9  28
TORSDOF 5
ENDMDL
MODEL 4
REMARK VINA RESULT:      -6.9      1.669      3.200
REMARK  5 active torsions:
REMARK  status: ('A' for Active; 'I' for Inactive)
REMARK    1  A    between atoms: C_10  and  O_1 
REMARK    2  A    between atoms: C_13  and  O_2 
REMARK    3  A    between atoms: O_4  and  C_24 
REMARK    4  A    between atoms: C_10  and  C_20 
REMARK    5  A    between atoms: C_20  and  C_24 
ROOT
HETATM    1  O   UNK N   1      33.248  20.435  -3.878  0.00  0.00    -0.289 OA
HETATM    2  C   UNK N   1      27.497  26.464  -4.888  0.00  0.00     0.001 C 
HETATM    3  C   UNK N   1      28.904  26.868  -4.455  0.00  0.00     0.002 C 
HETATM    4  C   UNK N   1      29.898  25.730  -4.764  0.00  0.00    -0.002 C 
HETATM    5  C   UNK N   1      29.478  24.370  -4.099  0.00  0.00     0.035 C 
HETATM    6  C   UNK N   1      26.710  27.801  -4.899  0.00  0.00     0.128 C 
HETATM    7  C   UNK N   1      27.031  25.318  -3.974  0.00  0.00     0.045 C 
HETATM    8  C   UNK N   1      29.136  28.173  -5.222  0.00  0.00     0.009 C 
HETATM    9  C   UNK N   1      27.934  24.069  -4.174  0.00  0.00     0.124 C 
HETATM   10  C   UNK N   1      30.374  23.238  -4.727  0.00  0.00     0.004 C 
HETATM   11  C   UNK N   1      27.733  28.725  -5.577  0.00  0.00     0.047 C 
HETATM   12  C   UNK N   1      31.336  26.061  -4.342  0.00  0.00     0.010 C 
HETATM   13  C   UNK N   1      27.480  25.959  -6.358  0.00  0.00     0.019 C 
HETATM   14  C   UNK N   1      32.302  25.008  -4.896  0.00  0.00     0.036 C 
HETATM   15  C   UNK N   1      31.853  23.611  -4.558  0.00  0.00    -0.064 C 
HETATM   16  C   UNK N   1      30.137  23.142  -6.235  0.00  0.00     0.025 C 
HETATM   17  C   UNK N   1      30.035  21.859  -4.185  0.00  0.00    -0.009 C 
HETATM   18  C   UNK N   1      32.781  22.694  -4.253  0.00  0.00     0.058 C 
HETATM   19  C   UNK N   1      30.972  20.954  -3.877  0.00  0.00     0.052 C 
HETATM   20  C   UNK N   1      32.398  21.295  -3.996  0.00  0.00     0.171 C 
ENDROOT
BRANCH   6  21
HETATM   21  O   UNK N   1      25.556  27.675  -5.685  0.00  0.00    -0.381 OA
HETATM   22  H   UNK N   1      24.768  28.239  -5.662  0.00  0.00     0.211 HD
ENDBRANCH   6  21
BRANCH   6  23
HETATM   23  C   UNK N   1      26.301  28.499  -3.614  0.00  0.00     0.184 C 
HETATM   24  O   UNK N   1      25.442  27.978  -2.918  0.00  0.00    -0.292 OA
BRANCH  23  25
HETATM   25  C   UNK N   1      26.806  29.841  -3.212  0.00  0.00     0.245 C 
BRANCH  25  26
HETATM   26  O   UNK N   1      25.856  30.800  -3.576  0.00  0.00    -0.393 OA
HETATM   27  H   UNK N   1      25.698  31.578  -3.018  0.00  0.00     0.209 HD
ENDBRANCH  25  26
ENDBRANCH  23  25
ENDBRANCH   6  23
BRANCH   9  28
HETATM   28  O   UNK N   1      27.553  23.400  -5.339  0.00  0.00    -0.395 OA
HETATM   29  H   UNK N   1      27.376  23.594  -6.272  0.00  0.00     0.210 HD
ENDBRANCH   9  28
TORSDOF 5
ENDMDL
MODEL 5
REMARK VINA RESULT:      -6.7     11.625     15.056
REMARK  5 active torsions:
REMARK  status: ('A' for Active; 'I' for Inactive)
REMARK    1  A    between atoms: C_10  and  O_1 
REMARK    2  A    between atoms: C_13  and  O_2 
REMARK    3  A    between atoms: O_4  and  C_24 
REMARK    4  A    between atoms: C_10  and  C_20 
REMARK    5  A    between atoms: C_20  and  C_24 
ROOT
HETATM    1  O   UNK N   1      26.034  21.291   5.749  0.00  0.00    -0.289 OA
HETATM    2  C   UNK N   1      32.154  15.599   6.512  0.00  0.00     0.001 C 
HETATM    3  C   UNK N   1      31.792  16.443   7.731  0.00  0.00     0.002 C 
HETATM    4  C   UNK N   1      30.396  17.072   7.541  0.00  0.00    -0.002 C 
HETATM    5  C   UNK N   1      30.296  17.922   6.224  0.00  0.00     0.035 C 
HETATM    6  C   UNK N   1      33.346  14.732   6.998  0.00  0.00     0.128 C 
HETATM    7  C   UNK N   1      32.344  16.548   5.317  0.00  0.00     0.045 C 
HETATM    8  C   UNK N   1      31.914  15.445   8.887  0.00  0.00     0.009 C 
HETATM    9  C   UNK N   1      31.007  17.265   4.981  0.00  0.00     0.124 C 
HETATM   10  C   UNK N   1      28.774  18.246   5.983  0.00  0.00     0.004 C 
HETATM   11  C   UNK N   1      32.841  14.310   8.386  0.00  0.00     0.047 C 
HETATM   12  C   UNK N   1      29.970  17.950   8.726  0.00  0.00     0.010 C 
HETATM   13  C   UNK N   1      31.021  14.592   6.165  0.00  0.00     0.019 C 
HETATM   14  C   UNK N   1      28.494  18.337   8.588  0.00  0.00     0.036 C 
HETATM   15  C   UNK N   1      28.198  18.923   7.233  0.00  0.00    -0.064 C 
HETATM   16  C   UNK N   1      27.974  16.956   5.798  0.00  0.00     0.025 C 
HETATM   17  C   UNK N   1      28.543  19.041   4.707  0.00  0.00    -0.009 C 
HETATM   18  C   UNK N   1      27.324  19.935   7.147  0.00  0.00     0.058 C 
HETATM   19  C   UNK N   1      27.673  20.055   4.637  0.00  0.00     0.052 C 
HETATM   20  C   UNK N   1      26.940  20.487   5.837  0.00  0.00     0.171 C 
ENDROOT
BRANCH   6  21
HETATM   21  O   UNK N   1      33.500  13.615   6.164  0.00  0.00    -0.381 OA
HETATM   22  H   UNK N   1      33.006  12.782   6.204  0.00  0.00     0.211 HD
ENDBRANCH   6  21
BRANCH   6  23
HETATM   23  C   UNK N   1      34.728  15.322   7.215  0.00  0.00     0.184 C 
HETATM   24  O   UNK N   1      35.361  15.695   6.237  0.00  0.00    -0.292 OA
BRANCH  23  25
HETATM   25  C   UNK N   1      35.403  15.367   8.541  0.00  0.00     0.245 C 
BRANCH  25  26
HETATM   26  O   UNK N   1      35.259  16.653   9.069  0.00  0.00    -0.393 OA
HETATM   27  H   UNK N   1      34.500  16.875   9.632  0.00  0.00     0.209 HD
ENDBRANCH  25  26
ENDBRANCH  23  25
ENDBRANCH   6  23
BRANCH   9  28
HETATM   28  O   UNK N   1      30.182  16.399   4.261  0.00  0.00    -0.395 OA
HETATM   29  H   UNK N   1      30.184  15.486   3.934  0.00  0.00     0.210 HD
ENDBRANCH   9  28
TORSDOF 5
ENDMDL
MODEL 6
REMARK VINA RESULT:      -6.6      1.720      7.063
REMARK  5 active torsions:
REMARK  status: ('A' for Active; 'I' for Inactive)
REMARK    1  A    between atoms: C_10  and  O_1 
REMARK    2  A    between atoms: C_13  and  O_2 
REMARK    3  A    between atoms: O_4  and  C_24 
REMARK    4  A    between atoms: C_10  and  C_20 
REMARK    5  A    between atoms: C_20  and  C_24 
ROOT
HETATM    1  O   UNK N   1      25.631  28.749  -3.746  0.00  0.00    -0.289 OA
HETATM    2  C   UNK N   1      31.309  22.778  -5.346  0.00  0.00     0.001 C 
HETATM    3  C   UNK N   1      30.480  22.668  -4.069  0.00  0.00     0.002 C 
HETATM    4  C   UNK N   1      29.224  23.558  -4.177  0.00  0.00    -0.002 C 
HETATM    5  C   UNK N   1      29.577  25.057  -4.486  0.00  0.00     0.035 C 
HETATM    6  C   UNK N   1      32.278  21.569  -5.268  0.00  0.00     0.128 C 
HETATM    7  C   UNK N   1      31.881  24.204  -5.419  0.00  0.00     0.045 C 
HETATM    8  C   UNK N   1      30.215  21.163  -3.962  0.00  0.00     0.009 C 
HETATM    9  C   UNK N   1      30.729  25.240  -5.544  0.00  0.00     0.124 C 
HETATM   10  C   UNK N   1      28.238  25.788  -4.876  0.00  0.00     0.004 C 
HETATM   11  C   UNK N   1      31.317  20.467  -4.798  0.00  0.00     0.047 C 
HETATM   12  C   UNK N   1      28.347  23.508  -2.919  0.00  0.00     0.010 C 
HETATM   13  C   UNK N   1      30.437  22.533  -6.609  0.00  0.00     0.019 C 
HETATM   14  C   UNK N   1      27.009  24.207  -3.184  0.00  0.00     0.036 C 
HETATM   15  C   UNK N   1      27.207  25.584  -3.759  0.00  0.00    -0.064 C 
HETATM   16  C   UNK N   1      27.629  25.158  -6.129  0.00  0.00     0.025 C 
HETATM   17  C   UNK N   1      28.456  27.250  -5.235  0.00  0.00    -0.009 C 
HETATM   18  C   UNK N   1      26.378  26.565  -3.377  0.00  0.00     0.058 C 
HETATM   19  C   UNK N   1      27.625  28.221  -4.841  0.00  0.00     0.052 C 
HETATM   20  C   UNK N   1      26.479  27.909  -3.972  0.00  0.00     0.171 C 
ENDROOT
BRANCH   6  21
HETATM   21  O   UNK N   1      32.785  21.276  -6.542  0.00  0.00    -0.381 OA
HETATM   22  H   UNK N   1      32.462  21.611  -7.392  0.00  0.00     0.211 HD
ENDBRANCH   6  21
BRANCH   6  23
HETATM   23  C   UNK N   1      33.450  21.543  -4.304  0.00  0.00     0.184 C 
HETATM   24  O   UNK N   1      34.394  22.290  -4.517  0.00  0.00    -0.292 OA
BRANCH  23  25
HETATM   25  C   UNK N   1      33.565  20.578  -3.177  0.00  0.00     0.245 C 
BRANCH  25  26
HETATM   26  O   UNK N   1      33.074  21.186  -2.019  0.00  0.00    -0.393 OA
HETATM   27  H   UNK N   1      32.516  20.693  -1.397  0.00  0.00     0.209 HD
ENDBRANCH  25  26
ENDBRANCH  23  25
ENDBRANCH   6  23
BRANCH   9  28
HETATM   28  O   UNK N   1      30.273  25.272  -6.864  0.00  0.00    -0.395 OA
HETATM   29  H   UNK N   1      30.117  24.662  -7.601  0.00  0.00     0.210 HD
ENDBRANCH   9  28
TORSDOF 5
ENDMDL
MODEL 7
REMARK VINA RESULT:      -6.6     11.028     14.187
REMARK  5 active torsions:
REMARK  status: ('A' for Active; 'I' for Inactive)
REMARK    1  A    between atoms: C_10  and  O_1 
REMARK    2  A    between atoms: C_13  and  O_2 
REMARK    3  A    between atoms: O_4  and  C_24 
REMARK    4  A    between atoms: C_10  and  C_20 
REMARK    5  A    between atoms: C_20  and  C_24 
ROOT
HETATM    1  O   UNK N   1      25.630  14.578   1.901  0.00  0.00    -0.289 OA
HETATM    2  C   UNK N   1      32.531  16.708   6.177  0.00  0.00     0.001 C 
HETATM    3  C   UNK N   1      32.194  15.226   6.033  0.00  0.00     0.002 C 
HETATM    4  C   UNK N   1      31.199  15.021   4.872  0.00  0.00    -0.002 C 
HETATM    5  C   UNK N   1      29.892  15.876   5.046  0.00  0.00     0.035 C 
HETATM    6  C   UNK N   1      33.800  16.718   7.068  0.00  0.00     0.128 C 
HETATM    7  C   UNK N   1      31.264  17.437   6.654  0.00  0.00     0.045 C 
HETATM    8  C   UNK N   1      33.570  14.579   5.844  0.00  0.00     0.009 C 
HETATM    9  C   UNK N   1      30.148  17.336   5.577  0.00  0.00     0.124 C 
HETATM   10  C   UNK N   1      29.110  15.827   3.680  0.00  0.00     0.004 C 
HETATM   11  C   UNK N   1      34.602  15.573   6.432  0.00  0.00     0.047 C 
HETATM   12  C   UNK N   1      30.803  13.551   4.677  0.00  0.00     0.010 C 
HETATM   13  C   UNK N   1      32.971  17.322   4.818  0.00  0.00     0.019 C 
HETATM   14  C   UNK N   1      30.019  13.388   3.370  0.00  0.00     0.036 C 
HETATM   15  C   UNK N   1      28.876  14.364   3.283  0.00  0.00    -0.064 C 
HETATM   16  C   UNK N   1      29.951  16.437   2.558  0.00  0.00     0.025 C 
HETATM   17  C   UNK N   1      27.834  16.654   3.711  0.00  0.00    -0.009 C 
HETATM   18  C   UNK N   1      27.726  13.960   2.728  0.00  0.00     0.058 C 
HETATM   19  C   UNK N   1      26.689  16.235   3.159  0.00  0.00     0.052 C 
HETATM   20  C   UNK N   1      26.608  14.901   2.545  0.00  0.00     0.171 C 
ENDROOT
BRANCH   6  21
HETATM   21  O   UNK N   1      34.478  17.938   6.928  0.00  0.00    -0.381 OA
HETATM   22  H   UNK N   1      34.291  18.768   7.392  0.00  0.00     0.211 HD
ENDBRANCH   6  21
BRANCH   6  23
HETATM   23  C   UNK N   1      33.738  16.411   8.554  0.00  0.00     0.184 C 
HETATM   24  O   UNK N   1      32.639  16.330   9.085  0.00  0.00    -0.292 OA
BRANCH  23  25
HETATM   25  C   UNK N   1      34.941  16.316   9.425  0.00  0.00     0.245 C 
BRANCH  25  26
HETATM   26  O   UNK N   1      35.313  17.606   9.812  0.00  0.00    -0.393 OA
HETATM   27  H   UNK N   1      35.042  17.963  10.672  0.00  0.00     0.209 HD
ENDBRANCH  25  26
ENDBRANCH  23  25
ENDBRANCH   6  23
BRANCH   9  28
HETATM   28  O   UNK N   1      30.394  18.263   4.562  0.00  0.00    -0.395 OA
HETATM   29  H   UNK N   1      31.116  18.534   3.976  0.00  0.00     0.210 HD
ENDBRANCH   9  28
TORSDOF 5
ENDMDL
MODEL 8
REMARK VINA RESULT:      -6.5     24.727     27.479
REMARK  5 active torsions:
REMARK  status: ('A' for Active; 'I' for Inactive)
REMARK    1  A    between atoms: C_10  and  O_1 
REMARK    2  A    between atoms: C_13  and  O_2 
REMARK    3  A    between atoms: O_4  and  C_24 
REMARK    4  A    between atoms: C_10  and  C_20 
REMARK    5  A    between atoms: C_20  and  C_24 
ROOT
HETATM    1  O   UNK N   1      36.446  13.674  12.130  0.00  0.00    -0.289 OA
HETATM    2  C   UNK N   1      35.603   9.211  19.188  0.00  0.00     0.001 C 
HETATM    3  C   UNK N   1      35.608  10.735  19.289  0.00  0.00     0.002 C 
HETATM    4  C   UNK N   1      35.313  11.356  17.908  0.00  0.00    -0.002 C 
HETATM    5  C   UNK N   1      36.316  10.865  16.803  0.00  0.00     0.035 C 
HETATM    6  C   UNK N   1      35.505   8.740  20.663  0.00  0.00     0.128 C 
HETATM    7  C   UNK N   1      36.810   8.788  18.335  0.00  0.00     0.045 C 
HETATM    8  C   UNK N   1      34.562  11.010  20.373  0.00  0.00     0.009 C 
HETATM    9  C   UNK N   1      36.661   9.330  16.886  0.00  0.00     0.124 C 
HETATM   10  C   UNK N   1      35.738  11.308  15.407  0.00  0.00     0.004 C 
HETATM   11  C   UNK N   1      34.438   9.705  21.199  0.00  0.00     0.047 C 
HETATM   12  C   UNK N   1      35.316  12.890  17.930  0.00  0.00     0.010 C 
HETATM   13  C   UNK N   1      34.308   8.695  18.499  0.00  0.00     0.019 C 
HETATM   14  C   UNK N   1      34.777  13.435  16.603  0.00  0.00     0.036 C 
HETATM   15  C   UNK N   1      35.483  12.821  15.423  0.00  0.00    -0.064 C 
HETATM   16  C   UNK N   1      34.377  10.657  15.160  0.00  0.00     0.025 C 
HETATM   17  C   UNK N   1      36.609  10.856  14.246  0.00  0.00    -0.009 C 
HETATM   18  C   UNK N   1      35.744  13.591  14.357  0.00  0.00     0.058 C 
HETATM   19  C   UNK N   1      36.868  11.638  13.191  0.00  0.00     0.052 C 
HETATM   20  C   UNK N   1      36.357  13.017  13.148  0.00  0.00     0.171 C 
ENDROOT
BRANCH   6  21
HETATM   21  O   UNK N   1      35.048   7.415  20.716  0.00  0.00    -0.381 OA
HETATM   22  H   UNK N   1      34.424   7.036  21.353  0.00  0.00     0.211 HD
ENDBRANCH   6  21
BRANCH   6  23
HETATM   23  C   UNK N   1      36.682   8.845  21.616  0.00  0.00     0.184 C 
HETATM   24  O   UNK N   1      37.654   8.128  21.420  0.00  0.00    -0.292 OA
BRANCH  23  25
HETATM   25  C   UNK N   1      36.674   9.688  22.842  0.00  0.00     0.245 C 
BRANCH  25  26
HETATM   26  O   UNK N   1      37.557  10.755  22.654  0.00  0.00    -0.393 OA
HETATM   27  H   UNK N   1      37.355  11.635  23.009  0.00  0.00     0.209 HD
ENDBRANCH  25  26
ENDBRANCH  23  25
ENDBRANCH   6  23
BRANCH   9  28
HETATM   28  O   UNK N   1      35.775   8.521  16.174  0.00  0.00    -0.395 OA
HETATM   29  H   UNK N   1      34.997   8.611  15.601  0.00  0.00     0.210 HD
ENDBRANCH   9  28
TORSDOF 5
ENDMDL
MODEL 9
REMARK VINA RESULT:      -6.5     11.941     14.255
REMARK  5 active torsions:
REMARK  status: ('A' for Active; 'I' for Inactive)
REMARK    1  A    between atoms: C_10  and  O_1 
REMARK    2  A    between atoms: C_13  and  O_2 
REMARK    3  A    between atoms: O_4  and  C_24 
REMARK    4  A    between atoms: C_10  and  C_20 
REMARK    5  A    between atoms: C_20  and  C_24 
ROOT
HETATM    1  O   UNK N   1      36.370  15.691  10.172  0.00  0.00    -0.289 OA
HETATM    2  C   UNK N   1      29.748  16.151   5.035  0.00  0.00     0.001 C 
HETATM    3  C   UNK N   1      29.683  16.886   6.371  0.00  0.00     0.002 C 
HETATM    4  C   UNK N   1      31.103  17.067   6.944  0.00  0.00    -0.002 C 
HETATM    5  C   UNK N   1      31.867  15.702   7.094  0.00  0.00     0.035 C 
HETATM    6  C   UNK N   1      28.352  16.396   4.404  0.00  0.00     0.128 C 
HETATM    7  C   UNK N   1      30.215  14.711   5.307  0.00  0.00     0.045 C 
HETATM    8  C   UNK N   1      28.945  18.180   6.014  0.00  0.00     0.009 C 
HETATM    9  C   UNK N   1      31.657  14.713   5.886  0.00  0.00     0.124 C 
HETATM   10  C   UNK N   1      33.379  16.034   7.383  0.00  0.00     0.004 C 
HETATM   11  C   UNK N   1      28.162  17.889   4.710  0.00  0.00     0.047 C 
HETATM   12  C   UNK N   1      31.114  17.788   8.299  0.00  0.00     0.010 C 
HETATM   13  C   UNK N   1      30.765  16.823   4.069  0.00  0.00     0.019 C 
HETATM   14  C   UNK N   1      32.551  18.153   8.688  0.00  0.00     0.036 C 
HETATM   15  C   UNK N   1      33.468  16.962   8.602  0.00  0.00    -0.064 C 
HETATM   16  C   UNK N   1      33.989  16.814   6.217  0.00  0.00     0.025 C 
HETATM   17  C   UNK N   1      34.235  14.784   7.513  0.00  0.00    -0.009 C 
HETATM   18  C   UNK N   1      34.432  16.825   9.522  0.00  0.00     0.058 C 
HETATM   19  C   UNK N   1      35.190  14.657   8.443  0.00  0.00     0.052 C 
HETATM   20  C   UNK N   1      35.405  15.723   9.433  0.00  0.00     0.171 C 
ENDROOT
BRANCH   6  21
HETATM   21  O   UNK N   1      28.403  16.175   3.020  0.00  0.00    -0.381 OA
HETATM   22  H   UNK N   1      29.195  16.046   2.477  0.00  0.00     0.211 HD
ENDBRANCH   6  21
BRANCH   6  23
HETATM   23  C   UNK N   1      27.107  15.699   4.922  0.00  0.00     0.184 C 
HETATM   24  O   UNK N   1      26.935  14.524   4.633  0.00  0.00    -0.292 OA
BRANCH  23  25
HETATM   25  C   UNK N   1      26.024  16.399   5.668  0.00  0.00     0.245 C 
BRANCH  25  26
HETATM   26  O   UNK N   1      26.129  16.064   7.021  0.00  0.00    -0.393 OA
HETATM   27  H   UNK N   1      26.635  16.622   7.632  0.00  0.00     0.209 HD
ENDBRANCH  25  26
ENDBRANCH  23  25
ENDBRANCH   6  23
BRANCH   9  28
HETATM   28  O   UNK N   1      32.574  14.897   4.850  0.00  0.00    -0.395 OA
HETATM   29  H   UNK N   1      32.915  15.611   4.289  0.00  0.00     0.210 HD
ENDBRANCH   9  28
TORSDOF 5
ENDMDL
