REMARK  5 active torsions:
REMARK  status: ('A' for Active; 'I' for Inactive)
REMARK    1  A    between atoms: C_10  and  O_1 
REMARK    2  A    between atoms: C_13  and  O_2 
REMARK    3  A    between atoms: O_4  and  C_24 
REMARK    4  A    between atoms: C_10  and  C_20 
REMARK    5  A    between atoms: C_20  and  C_24 
ROOT
HETATM    1  O   UNK N   1      -0.078  -3.323   0.992  0.00  0.00    -0.289 OA
HETATM    2  C   UNK N   1       6.783   1.313  -0.379  0.00  0.00     0.001 C 
HETATM    3  C   UNK N   1       6.953  -0.188  -0.159  0.00  0.00     0.002 C 
HETATM    4  C   UNK N   1       5.608  -0.910  -0.382  0.00  0.00    -0.002 C 
HETATM    5  C   UNK N   1       4.463  -0.338   0.529  0.00  0.00     0.035 C 
HETATM    6  C   UNK N   1       8.236   1.837  -0.523  0.00  0.00     0.128 C 
HETATM    7  C   UNK N   1       5.888   1.859   0.746  0.00  0.00     0.045 C 
HETATM    8  C   UNK N   1       8.069  -0.554  -1.142  0.00  0.00     0.009 C 
HETATM    9  C   UNK N   1       4.469   1.232   0.657  0.00  0.00     0.124 C 
HETATM   10  C   UNK N   1       3.100  -0.924   0.001  0.00  0.00     0.004 C 
HETATM   11  C   UNK N   1       8.836   0.759  -1.438  0.00  0.00     0.047 C 
HETATM   12  C   UNK N   1       5.700  -2.426  -0.163  0.00  0.00     0.010 C 
HETATM   13  C   UNK N   1       6.096   1.610  -1.742  0.00  0.00     0.019 C 
HETATM   14  C   UNK N   1       4.410  -3.104  -0.637  0.00  0.00     0.036 C 
HETATM   15  C   UNK N   1       3.190  -2.455  -0.039  0.00  0.00    -0.064 C 
HETATM   16  C   UNK N   1       2.849  -0.481  -1.441  0.00  0.00     0.025 C 
HETATM   17  C   UNK N   1       1.903  -0.411   0.786  0.00  0.00    -0.009 C 
HETATM   18  C   UNK N   1       2.156  -3.231   0.313  0.00  0.00     0.058 C 
HETATM   19  C   UNK N   1       0.880  -1.199   1.138  0.00  0.00     0.052 C 
HETATM   20  C   UNK N   1       0.910  -2.636   0.825  0.00  0.00     0.171 C 
ENDROOT
BRANCH   6  21
HETATM   21  O   UNK N   1       8.237   3.086  -1.160  0.00  0.00    -0.381 OA
HETATM   22  H   UNK N   1       8.985   3.518  -1.600  0.00  0.00     0.211 HD
ENDBRANCH   6  21
BRANCH   6  23
HETATM   23  C   UNK N   1       9.170   1.943   0.669  0.00  0.00     0.184 C 
HETATM   24  O   UNK N   1      10.209   2.575   0.539  0.00  0.00    -0.292 OA
BRANCH  23  25
HETATM   25  C   UNK N   1       8.947   1.225   1.954  0.00  0.00     0.245 C 
BRANCH  25  26
HETATM   26  O   UNK N   1      10.010   0.341   2.159  0.00  0.00    -0.393 OA
HETATM   27  H   UNK N   1       9.848  -0.605   2.302  0.00  0.00     0.209 HD
ENDBRANCH  25  26
ENDBRANCH  23  25
ENDBRANCH   6  23
BRANCH   9  28
HETATM   28  O   UNK N   1       3.737   1.875  -0.343  0.00  0.00    -0.395 OA
HETATM   29  H   UNK N   1       3.869   2.539  -1.037  0.00  0.00     0.210 HD
ENDBRANCH   9  28
TORSDOF 5
