MODEL 1
REMARK VINA RESULT:      -6.4      0.000      0.000
REMARK  4 active torsions:
REMARK  status: ('A' for Active; 'I' for Inactive)
REMARK    1  A    between atoms: O_3  and  C_13 
REMARK    2  A    between atoms: O_4  and  C_18 
REMARK    3  A    between atoms: C_6  and  C_7 
REMARK    4  A    between atoms: C_10  and  C_18 
ROOT
HETATM    1  C   UNK N   1      21.129  14.210   8.539  0.00  0.00    -0.022 A 
HETATM    2  C   UNK N   1      20.965  15.592   8.691  0.00  0.00     0.033 A 
HETATM    3  C   UNK N   1      20.828  13.629   7.297  0.00  0.00     0.015 A 
HETATM    4  C   UNK N   1      20.515  16.400   7.650  0.00  0.00     0.071 A 
HETATM    5  C   UNK N   1      20.215  15.807   6.404  0.00  0.00     0.082 A 
HETATM    6  C   UNK N   1      20.375  14.424   6.237  0.00  0.00     0.038 A 
ENDROOT
BRANCH   1   7
HETATM    7  C   UNK N   1      21.614  13.416   9.701  0.00  0.00     0.013 A 
HETATM    8  C   UNK N   1      22.983  13.154   9.943  0.00  0.00     0.130 A 
HETATM    9  F   UNK N   1      23.950  13.619   9.114  0.00  0.00    -0.205 F 
HETATM   10  C   UNK N   1      23.363  12.398  11.060  0.00  0.00     0.085 A 
HETATM   11  C   UNK N   1      22.398  11.900  11.939  0.00  0.00     0.119 A 
HETATM   12  F   UNK N   1      22.770  11.170  13.017  0.00  0.00    -0.206 F 
HETATM   13  C   UNK N   1      21.049  12.153  11.710  0.00  0.00     0.043 A 
HETATM   14  C   UNK N   1      20.663  12.903  10.603  0.00  0.00     0.018 A 
ENDBRANCH   1   7
BRANCH   4  15
HETATM   15  C   UNK N   1      20.374  17.853   7.910  0.00  0.00     0.178 C 
HETATM   16  O   UNK N   1      19.774  18.263   8.887  0.00  0.00    -0.646 OA
BRANCH  15  17
HETATM   17  O   UNK N   1      20.920  18.740   7.049  0.00  0.00    -0.773 OA
HETATM   18  H   UNK N   1      21.398  19.476   7.377  0.00  0.00     0.167 HD
ENDBRANCH  15  17
ENDBRANCH   4  15
BRANCH   5  19
HETATM   19  O   UNK N   1      19.778  16.546   5.371  0.00  0.00    -0.360 OA
HETATM   20  H   UNK N   1      20.391  16.907   4.760  0.00  0.00     0.217 HD
ENDBRANCH   5  19
TORSDOF 4
ENDMDL
MODEL 2
REMARK VINA RESULT:      -6.4      6.528      8.349
REMARK  4 active torsions:
REMARK  status: ('A' for Active; 'I' for Inactive)
REMARK    1  A    between atoms: O_3  and  C_13 
REMARK    2  A    between atoms: O_4  and  C_18 
REMARK    3  A    between atoms: C_6  and  C_7 
REMARK    4  A    between atoms: C_10  and  C_18 
ROOT
HETATM    1  C   UNK N   1      22.429  19.425   3.248  0.00  0.00    -0.022 A 
HETATM    2  C   UNK N   1      21.823  18.196   3.537  0.00  0.00     0.033 A 
HETATM    3  C   UNK N   1      21.646  20.446   2.686  0.00  0.00     0.015 A 
HETATM    4  C   UNK N   1      20.475  17.962   3.282  0.00  0.00     0.071 A 
HETATM    5  C   UNK N   1      19.695  18.994   2.716  0.00  0.00     0.082 A 
HETATM    6  C   UNK N   1      20.288  20.230   2.422  0.00  0.00     0.038 A 
ENDROOT
BRANCH   1   7
HETATM    7  C   UNK N   1      23.877  19.596   3.550  0.00  0.00     0.013 A 
HETATM    8  C   UNK N   1      24.526  18.947   4.626  0.00  0.00     0.130 A 
HETATM    9  F   UNK N   1      23.853  18.115   5.460  0.00  0.00    -0.205 F 
HETATM   10  C   UNK N   1      25.893  19.158   4.848  0.00  0.00     0.085 A 
HETATM   11  C   UNK N   1      26.623  20.008   4.011  0.00  0.00     0.119 A 
HETATM   12  F   UNK N   1      27.944  20.209   4.229  0.00  0.00    -0.206 F 
HETATM   13  C   UNK N   1      25.993  20.651   2.951  0.00  0.00     0.043 A 
HETATM   14  C   UNK N   1      24.635  20.447   2.723  0.00  0.00     0.018 A 
ENDBRANCH   1   7
BRANCH   4  15
HETATM   15  C   UNK N   1      19.926  16.627   3.623  0.00  0.00     0.178 C 
HETATM   16  O   UNK N   1      20.485  15.606   3.265  0.00  0.00    -0.646 OA
BRANCH  15  17
HETATM   17  O   UNK N   1      18.785  16.538   4.342  0.00  0.00    -0.773 OA
HETATM   18  H   UNK N   1      18.825  16.447   5.273  0.00  0.00     0.167 HD
ENDBRANCH  15  17
ENDBRANCH   4  15
BRANCH   5  19
HETATM   19  O   UNK N   1      18.390  18.814   2.453  0.00  0.00    -0.360 OA
HETATM   20  H   UNK N   1      17.916  19.459   1.966  0.00  0.00     0.217 HD
ENDBRANCH   5  19
TORSDOF 4
ENDMDL
MODEL 3
REMARK VINA RESULT:      -6.4     14.548     16.389
REMARK  4 active torsions:
REMARK  status: ('A' for Active; 'I' for Inactive)
REMARK    1  A    between atoms: O_3  and  C_13 
REMARK    2  A    between atoms: O_4  and  C_18 
REMARK    3  A    between atoms: C_6  and  C_7 
REMARK    4  A    between atoms: C_10  and  C_18 
ROOT
HETATM    1  C   UNK N   1      35.240  11.518  15.978  0.00  0.00    -0.022 A 
HETATM    2  C   UNK N   1      35.921  12.516  15.271  0.00  0.00     0.033 A 
HETATM    3  C   UNK N   1      34.285  10.745  15.299  0.00  0.00     0.015 A 
HETATM    4  C   UNK N   1      35.679  12.759  13.922  0.00  0.00     0.071 A 
HETATM    5  C   UNK N   1      34.717  11.976  13.246  0.00  0.00     0.082 A 
HETATM    6  C   UNK N   1      34.027  10.974  13.942  0.00  0.00     0.038 A 
ENDROOT
BRANCH   1   7
HETATM    7  C   UNK N   1      35.557  11.321  17.419  0.00  0.00     0.013 A 
HETATM    8  C   UNK N   1      35.252  12.275  18.418  0.00  0.00     0.130 A 
HETATM    9  F   UNK N   1      34.641  13.447  18.113  0.00  0.00    -0.205 F 
HETATM   10  C   UNK N   1      35.582  12.017  19.755  0.00  0.00     0.085 A 
HETATM   11  C   UNK N   1      36.212  10.821  20.110  0.00  0.00     0.119 A 
HETATM   12  F   UNK N   1      36.529  10.577  21.404  0.00  0.00    -0.206 F 
HETATM   13  C   UNK N   1      36.516   9.877  19.135  0.00  0.00     0.043 A 
HETATM   14  C   UNK N   1      36.192  10.125  17.805  0.00  0.00     0.018 A 
ENDBRANCH   1   7
BRANCH   4  15
HETATM   15  C   UNK N   1      36.452  13.839  13.261  0.00  0.00     0.178 C 
HETATM   16  O   UNK N   1      36.377  14.992  13.644  0.00  0.00    -0.646 OA
BRANCH  15  17
HETATM   17  O   UNK N   1      37.255  13.540  12.216  0.00  0.00    -0.773 OA
HETATM   18  H   UNK N   1      37.354  14.151  11.513  0.00  0.00     0.167 HD
ENDBRANCH  15  17
ENDBRANCH   4  15
BRANCH   5  19
HETATM   19  O   UNK N   1      34.449  12.175  11.945  0.00  0.00    -0.360 OA
HETATM   20  H   UNK N   1      34.671  11.518  11.315  0.00  0.00     0.217 HD
ENDBRANCH   5  19
TORSDOF 4
ENDMDL
MODEL 4
REMARK VINA RESULT:      -6.3      6.882      8.533
REMARK  4 active torsions:
REMARK  status: ('A' for Active; 'I' for Inactive)
REMARK    1  A    between atoms: O_3  and  C_13 
REMARK    2  A    between atoms: O_4  and  C_18 
REMARK    3  A    between atoms: C_6  and  C_7 
REMARK    4  A    between atoms: C_10  and  C_18 
ROOT
HETATM    1  C   UNK N   1      23.010  19.307   3.546  0.00  0.00    -0.022 A 
HETATM    2  C   UNK N   1      22.530  20.079   2.481  0.00  0.00     0.033 A 
HETATM    3  C   UNK N   1      22.103  18.512   4.264  0.00  0.00     0.015 A 
HETATM    4  C   UNK N   1      21.186  20.079   2.118  0.00  0.00     0.071 A 
HETATM    5  C   UNK N   1      20.280  19.276   2.846  0.00  0.00     0.082 A 
HETATM    6  C   UNK N   1      20.747  18.498   3.915  0.00  0.00     0.038 A 
ENDROOT
BRANCH   1   7
HETATM    7  C   UNK N   1      24.462  19.362   3.870  0.00  0.00     0.013 A 
HETATM    8  C   UNK N   1      25.097  18.450   4.744  0.00  0.00     0.130 A 
HETATM    9  F   UNK N   1      24.405  17.452   5.350  0.00  0.00    -0.205 F 
HETATM   10  C   UNK N   1      26.469  18.567   5.001  0.00  0.00     0.085 A 
HETATM   11  C   UNK N   1      27.218  19.581   4.397  0.00  0.00     0.119 A 
HETATM   12  F   UNK N   1      28.544  19.689   4.648  0.00  0.00    -0.206 F 
HETATM   13  C   UNK N   1      26.603  20.483   3.536  0.00  0.00     0.043 A 
HETATM   14  C   UNK N   1      25.240  20.374   3.275  0.00  0.00     0.018 A 
ENDBRANCH   1   7
BRANCH   4  15
HETATM   15  C   UNK N   1      20.775  20.930   0.976  0.00  0.00     0.178 C 
HETATM   16  O   UNK N   1      20.688  22.139   1.091  0.00  0.00    -0.646 OA
BRANCH  15  17
HETATM   17  O   UNK N   1      20.491  20.357  -0.215  0.00  0.00    -0.773 OA
HETATM   18  H   UNK N   1      19.702  20.584  -0.667  0.00  0.00     0.167 HD
ENDBRANCH  15  17
ENDBRANCH   4  15
BRANCH   5  19
HETATM   19  O   UNK N   1      18.974  19.244   2.533  0.00  0.00    -0.360 OA
HETATM   20  H   UNK N   1      18.536  18.421   2.432  0.00  0.00     0.217 HD
ENDBRANCH   5  19
TORSDOF 4
ENDMDL
MODEL 5
REMARK VINA RESULT:      -6.3     17.272     18.870
REMARK  4 active torsions:
REMARK  status: ('A' for Active; 'I' for Inactive)
REMARK    1  A    between atoms: O_3  and  C_13 
REMARK    2  A    between atoms: O_4  and  C_18 
REMARK    3  A    between atoms: C_6  and  C_7 
REMARK    4  A    between atoms: C_10  and  C_18 
ROOT
HETATM    1  C   UNK N   1      28.521  23.468  -5.155  0.00  0.00    -0.022 A 
HETATM    2  C   UNK N   1      29.268  23.387  -3.973  0.00  0.00     0.033 A 
HETATM    3  C   UNK N   1      28.752  22.520  -6.164  0.00  0.00     0.015 A 
HETATM    4  C   UNK N   1      30.227  22.397  -3.774  0.00  0.00     0.071 A 
HETATM    5  C   UNK N   1      30.453  21.447  -4.795  0.00  0.00     0.082 A 
HETATM    6  C   UNK N   1      29.712  21.517  -5.983  0.00  0.00     0.038 A 
ENDROOT
BRANCH   1   7
HETATM    7  C   UNK N   1      27.515  24.557  -5.290  0.00  0.00     0.013 A 
HETATM    8  C   UNK N   1      26.142  24.318  -5.530  0.00  0.00     0.130 A 
HETATM    9  F   UNK N   1      25.654  23.058  -5.653  0.00  0.00    -0.205 F 
HETATM   10  C   UNK N   1      25.254  25.396  -5.645  0.00  0.00     0.085 A 
HETATM   11  C   UNK N   1      25.716  26.709  -5.524  0.00  0.00     0.119 A 
HETATM   12  F   UNK N   1      24.855  27.748  -5.636  0.00  0.00    -0.206 F 
HETATM   13  C   UNK N   1      27.065  26.954  -5.288  0.00  0.00     0.043 A 
HETATM   14  C   UNK N   1      27.954  25.890  -5.172  0.00  0.00     0.018 A 
ENDBRANCH   1   7
BRANCH   4  15
HETATM   15  C   UNK N   1      30.966  22.395  -2.489  0.00  0.00     0.178 C 
HETATM   16  O   UNK N   1      32.040  21.831  -2.381  0.00  0.00    -0.646 OA
BRANCH  15  17
HETATM   17  O   UNK N   1      30.442  23.028  -1.416  0.00  0.00    -0.773 OA
HETATM   18  H   UNK N   1      30.748  23.881  -1.180  0.00  0.00     0.167 HD
ENDBRANCH  15  17
ENDBRANCH   4  15
BRANCH   5  19
HETATM   19  O   UNK N   1      31.367  20.474  -4.648  0.00  0.00    -0.360 OA
HETATM   20  H   UNK N   1      32.024  20.345  -5.304  0.00  0.00     0.217 HD
ENDBRANCH   5  19
TORSDOF 4
ENDMDL
MODEL 6
REMARK VINA RESULT:      -6.2     16.730     18.938
REMARK  4 active torsions:
REMARK  status: ('A' for Active; 'I' for Inactive)
REMARK    1  A    between atoms: O_3  and  C_13 
REMARK    2  A    between atoms: O_4  and  C_18 
REMARK    3  A    between atoms: C_6  and  C_7 
REMARK    4  A    between atoms: C_10  and  C_18 
ROOT
HETATM    1  C   UNK N   1      28.213  24.446  -3.646  0.00  0.00    -0.022 A 
HETATM    2  C   UNK N   1      29.495  24.562  -4.197  0.00  0.00     0.033 A 
HETATM    3  C   UNK N   1      28.032  23.611  -2.533  0.00  0.00     0.015 A 
HETATM    4  C   UNK N   1      30.587  23.876  -3.672  0.00  0.00     0.071 A 
HETATM    5  C   UNK N   1      30.396  23.039  -2.550  0.00  0.00     0.082 A 
HETATM    6  C   UNK N   1      29.117  22.913  -1.989  0.00  0.00     0.038 A 
ENDROOT
BRANCH   1   7
HETATM    7  C   UNK N   1      27.098  25.212  -4.267  0.00  0.00     0.013 A 
HETATM    8  C   UNK N   1      26.332  24.725  -5.352  0.00  0.00     0.130 A 
HETATM    9  F   UNK N   1      26.575  23.509  -5.900  0.00  0.00    -0.205 F 
HETATM   10  C   UNK N   1      25.297  25.506  -5.883  0.00  0.00     0.085 A 
HETATM   11  C   UNK N   1      25.014  26.766  -5.347  0.00  0.00     0.119 A 
HETATM   12  F   UNK N   1      24.013  27.517  -5.864  0.00  0.00    -0.206 F 
HETATM   13  C   UNK N   1      25.762  27.253  -4.280  0.00  0.00     0.043 A 
HETATM   14  C   UNK N   1      26.792  26.484  -3.746  0.00  0.00     0.018 A 
ENDBRANCH   1   7
BRANCH   4  15
HETATM   15  C   UNK N   1      31.905  24.065  -4.325  0.00  0.00     0.178 C 
HETATM   16  O   UNK N   1      32.618  23.114  -4.591  0.00  0.00    -0.646 OA
BRANCH  15  17
HETATM   17  O   UNK N   1      32.326  25.312  -4.632  0.00  0.00    -0.773 OA
HETATM   18  H   UNK N   1      33.195  25.581  -4.408  0.00  0.00     0.167 HD
ENDBRANCH  15  17
ENDBRANCH   4  15
BRANCH   5  19
HETATM   19  O   UNK N   1      31.420  22.358  -2.009  0.00  0.00    -0.360 OA
HETATM   20  H   UNK N   1      31.261  21.550  -1.561  0.00  0.00     0.217 HD
ENDBRANCH   5  19
TORSDOF 4
ENDMDL
MODEL 7
REMARK VINA RESULT:      -6.2      8.220     10.117
REMARK  4 active torsions:
REMARK  status: ('A' for Active; 'I' for Inactive)
REMARK    1  A    between atoms: O_3  and  C_13 
REMARK    2  A    between atoms: O_4  and  C_18 
REMARK    3  A    between atoms: C_6  and  C_7 
REMARK    4  A    between atoms: C_10  and  C_18 
ROOT
HETATM    1  C   UNK N   1      28.371  18.198   5.621  0.00  0.00    -0.022 A 
HETATM    2  C   UNK N   1      28.188  18.222   7.009  0.00  0.00     0.033 A 
HETATM    3  C   UNK N   1      29.553  17.642   5.107  0.00  0.00     0.015 A 
HETATM    4  C   UNK N   1      29.142  17.711   7.886  0.00  0.00     0.071 A 
HETATM    5  C   UNK N   1      30.328  17.153   7.360  0.00  0.00     0.082 A 
HETATM    6  C   UNK N   1      30.524  17.123   5.972  0.00  0.00     0.038 A 
ENDROOT
BRANCH   1   7
HETATM    7  C   UNK N   1      27.304  18.764   4.751  0.00  0.00     0.013 A 
HETATM    8  C   UNK N   1      26.070  18.114   4.514  0.00  0.00     0.130 A 
HETATM    9  F   UNK N   1      25.784  16.913   5.077  0.00  0.00    -0.205 F 
HETATM   10  C   UNK N   1      25.114  18.710   3.682  0.00  0.00     0.085 A 
HETATM   11  C   UNK N   1      25.370  19.946   3.082  0.00  0.00     0.119 A 
HETATM   12  F   UNK N   1      24.442  20.519   2.278  0.00  0.00    -0.206 F 
HETATM   13  C   UNK N   1      26.580  20.594   3.309  0.00  0.00     0.043 A 
HETATM   14  C   UNK N   1      27.536  20.009   4.134  0.00  0.00     0.018 A 
ENDBRANCH   1   7
BRANCH   4  15
HETATM   15  C   UNK N   1      28.856  17.782   9.339  0.00  0.00     0.178 C 
HETATM   16  O   UNK N   1      27.828  17.322   9.803  0.00  0.00    -0.646 OA
BRANCH  15  17
HETATM   17  O   UNK N   1      29.750  18.367  10.167  0.00  0.00    -0.773 OA
HETATM   18  H   UNK N   1      29.562  19.204  10.543  0.00  0.00     0.167 HD
ENDBRANCH  15  17
ENDBRANCH   4  15
BRANCH   5  19
HETATM   19  O   UNK N   1      31.275  16.649   8.167  0.00  0.00    -0.360 OA
HETATM   20  H   UNK N   1      31.151  15.812   8.570  0.00  0.00     0.217 HD
ENDBRANCH   5  19
TORSDOF 4
ENDMDL
MODEL 8
REMARK VINA RESULT:      -6.1      9.736     10.671
REMARK  4 active torsions:
REMARK  status: ('A' for Active; 'I' for Inactive)
REMARK    1  A    between atoms: O_3  and  C_13 
REMARK    2  A    between atoms: O_4  and  C_18 
REMARK    3  A    between atoms: C_6  and  C_7 
REMARK    4  A    between atoms: C_10  and  C_18 
ROOT
HETATM    1  C   UNK N   1      31.376  16.938   7.643  0.00  0.00    -0.022 A 
HETATM    2  C   UNK N   1      30.300  17.622   8.221  0.00  0.00     0.033 A 
HETATM    3  C   UNK N   1      31.313  16.611   6.280  0.00  0.00     0.015 A 
HETATM    4  C   UNK N   1      29.176  17.984   7.483  0.00  0.00     0.071 A 
HETATM    5  C   UNK N   1      29.122  17.652   6.111  0.00  0.00     0.082 A 
HETATM    6  C   UNK N   1      30.192  16.967   5.520  0.00  0.00     0.038 A 
ENDROOT
BRANCH   1   7
HETATM    7  C   UNK N   1      32.541  16.586   8.502  0.00  0.00     0.013 A 
HETATM    8  C   UNK N   1      33.651  17.442   8.691  0.00  0.00     0.130 A 
HETATM    9  F   UNK N   1      33.718  18.656   8.090  0.00  0.00    -0.205 F 
HETATM   10  C   UNK N   1      34.711  17.041   9.515  0.00  0.00     0.085 A 
HETATM   11  C   UNK N   1      34.680  15.798  10.153  0.00  0.00     0.119 A 
HETATM   12  F   UNK N   1      35.707  15.414  10.948  0.00  0.00    -0.206 F 
HETATM   13  C   UNK N   1      33.593  14.949   9.972  0.00  0.00     0.043 A 
HETATM   14  C   UNK N   1      32.536  15.339   9.156  0.00  0.00     0.018 A 
ENDBRANCH   1   7
BRANCH   4  15
HETATM   15  C   UNK N   1      28.088  18.707   8.184  0.00  0.00     0.178 C 
HETATM   16  O   UNK N   1      27.636  19.748   7.742  0.00  0.00    -0.646 OA
BRANCH  15  17
HETATM   17  O   UNK N   1      27.586  18.205   9.333  0.00  0.00    -0.773 OA
HETATM   18  H   UNK N   1      28.047  18.331  10.139  0.00  0.00     0.167 HD
ENDBRANCH  15  17
ENDBRANCH   4  15
BRANCH   5  19
HETATM   19  O   UNK N   1      28.058  17.981   5.359  0.00  0.00    -0.360 OA
HETATM   20  H   UNK N   1      28.157  18.577   4.642  0.00  0.00     0.217 HD
ENDBRANCH   5  19
TORSDOF 4
ENDMDL
MODEL 9
REMARK VINA RESULT:      -6.1     10.540     12.042
REMARK  4 active torsions:
REMARK  status: ('A' for Active; 'I' for Inactive)
REMARK    1  A    between atoms: O_3  and  C_13 
REMARK    2  A    between atoms: O_4  and  C_18 
REMARK    3  A    between atoms: C_6  and  C_7 
REMARK    4  A    between atoms: C_10  and  C_18 
ROOT
HETATM    1  C   UNK N   1      31.491  16.843   7.485  0.00  0.00    -0.022 A 
HETATM    2  C   UNK N   1      32.529  17.636   7.992  0.00  0.00     0.033 A 
HETATM    3  C   UNK N   1      31.709  15.465   7.334  0.00  0.00     0.015 A 
HETATM    4  C   UNK N   1      33.761  17.095   8.348  0.00  0.00     0.071 A 
HETATM    5  C   UNK N   1      33.972  15.707   8.193  0.00  0.00     0.082 A 
HETATM    6  C   UNK N   1      32.942  14.902   7.686  0.00  0.00     0.038 A 
ENDROOT
BRANCH   1   7
HETATM    7  C   UNK N   1      30.203  17.498   7.128  0.00  0.00     0.013 A 
HETATM    8  C   UNK N   1      29.381  18.157   8.071  0.00  0.00     0.130 A 
HETATM    9  F   UNK N   1      29.726  18.232   9.380  0.00  0.00    -0.205 F 
HETATM   10  C   UNK N   1      28.180  18.750   7.658  0.00  0.00     0.085 A 
HETATM   11  C   UNK N   1      27.788  18.695   6.318  0.00  0.00     0.119 A 
HETATM   12  F   UNK N   1      26.627  19.270   5.924  0.00  0.00    -0.206 F 
HETATM   13  C   UNK N   1      28.590  18.049   5.383  0.00  0.00     0.043 A 
HETATM   14  C   UNK N   1      29.784  17.457   5.784  0.00  0.00     0.018 A 
ENDBRANCH   1   7
BRANCH   4  15
HETATM   15  C   UNK N   1      34.797  18.016   8.876  0.00  0.00     0.178 C 
HETATM   16  O   UNK N   1      35.037  19.076   8.325  0.00  0.00    -0.646 OA
BRANCH  15  17
HETATM   17  O   UNK N   1      35.488  17.677   9.986  0.00  0.00    -0.773 OA
HETATM   18  H   UNK N   1      35.407  16.814  10.342  0.00  0.00     0.167 HD
ENDBRANCH  15  17
ENDBRANCH   4  15
BRANCH   5  19
HETATM   19  O   UNK N   1      35.144  15.141   8.523  0.00  0.00    -0.360 OA
HETATM   20  H   UNK N   1      35.778  15.628   9.012  0.00  0.00     0.217 HD
ENDBRANCH   5  19
TORSDOF 4
ENDMDL
