REMARK  4 active torsions:
REMARK  status: ('A' for Active; 'I' for Inactive)
REMARK    1  A    between atoms: O_3  and  C_13 
REMARK    2  A    between atoms: O_4  and  C_18 
REMARK    3  A    between atoms: C_6  and  C_7 
REMARK    4  A    between atoms: C_10  and  C_18 
ROOT
HETATM    1  C   UNK N   1       4.396  -0.460   0.000  0.00  0.00    -0.022 A 
HETATM    2  C   UNK N   1       3.167  -1.131  -0.000  0.00  0.00     0.033 A 
HETATM    3  C   UNK N   1       5.577  -1.218   0.000  0.00  0.00     0.015 A 
HETATM    4  C   UNK N   1       3.087  -2.521  -0.000  0.00  0.00     0.071 A 
HETATM    5  C   UNK N   1       4.281  -3.276   0.000  0.00  0.00     0.082 A 
HETATM    6  C   UNK N   1       5.518  -2.617   0.000  0.00  0.00     0.038 A 
ENDROOT
BRANCH   1   7
HETATM    7  C   UNK N   1       4.396   1.029  -0.000  0.00  0.00     0.013 A 
HETATM    8  C   UNK N   1       5.579   1.804   0.000  0.00  0.00     0.130 A 
HETATM    9  F   UNK N   1       6.805   1.224   0.000  0.00  0.00    -0.205 F 
HETATM   10  C   UNK N   1       5.498   3.203   0.000  0.00  0.00     0.085 A 
HETATM   11  C   UNK N   1       4.254   3.840  -0.000  0.00  0.00     0.119 A 
HETATM   12  F   UNK N   1       4.181   5.192  -0.000  0.00  0.00    -0.206 F 
HETATM   13  C   UNK N   1       3.085   3.086  -0.000  0.00  0.00     0.043 A 
HETATM   14  C   UNK N   1       3.156   1.696  -0.000  0.00  0.00     0.018 A 
ENDBRANCH   1   7
BRANCH   4  15
HETATM   15  C   UNK N   1       1.739  -3.139  -0.000  0.00  0.00     0.178 C 
HETATM   16  O   UNK N   1       1.601  -4.349  -0.000  0.00  0.00    -0.646 OA
BRANCH  15  17
HETATM   17  O   UNK N   1       0.643  -2.349  -0.000  0.00  0.00    -0.773 OA
HETATM   18  H   UNK N   1       0.738  -1.417  -0.000  0.00  0.00     0.167 HD
ENDBRANCH  15  17
ENDBRANCH   4  15
BRANCH   5  19
HETATM   19  O   UNK N   1       4.253  -4.619   0.000  0.00  0.00    -0.360 OA
HETATM   20  H   UNK N   1       3.432  -5.071   0.000  0.00  0.00     0.217 HD
ENDBRANCH   5  19
TORSDOF 4
