MODEL 1
REMARK VINA RESULT:      -7.6      0.000      0.000
REMARK  8 active torsions:
REMARK  status: ('A' for Active; 'I' for Inactive)
REMARK    1  A    between atoms: S_1  and  N_6 
REMARK    2  A    between atoms: S_1  and  C_19 
REMARK    3  A    between atoms: O_4  and  C_24 
REMARK    4  A    between atoms: O_4  and  C_35 
REMARK    5  A    between atoms: N_7  and  C_18 
REMARK    6  A    between atoms: C_23  and  C_25 
REMARK    7  A    between atoms: C_27  and  C_29 
REMARK    8  A    between atoms: C_29  and  C_32 
ROOT
HETATM    1  C   UNK N   1      20.717  15.615   4.973  0.00  0.00     0.075 A 
HETATM    2  C   UNK N   1      22.069  15.839   4.680  0.00  0.00     0.042 A 
HETATM    3  C   UNK N   1      19.781  16.548   4.516  0.00  0.00     0.027 A 
HETATM    4  C   UNK N   1      22.521  16.918   3.945  0.00  0.00     0.044 A 
HETATM    5  C   UNK N   1      21.583  17.871   3.490  0.00  0.00     0.082 A 
HETATM    6  C   UNK N   1      20.209  17.664   3.775  0.00  0.00     0.039 A 
ENDROOT
BRANCH   4   7
HETATM    7  C   UNK N   1      23.991  16.988   3.781  0.00  0.00     0.136 A 
HETATM    8  N   UNK N   1      24.693  18.154   3.906  0.00  0.00    -0.276 N 
HETATM    9  N   UNK N   1      26.027  18.097   3.846  0.00  0.00    -0.235 N 
HETATM   10  H   UNK N   1      24.228  19.012   4.036  0.00  0.00     0.189 HD
HETATM   11  C   UNK N   1      26.933  19.081   3.963  0.00  0.00     0.104 A 
HETATM   12  C   UNK N   1      26.711  16.967   3.669  0.00  0.00     0.148 A 
HETATM   13  N   UNK N   1      28.201  18.601   3.873  0.00  0.00    -0.346 N 
HETATM   14  C   UNK N   1      28.055  17.267   3.688  0.00  0.00     0.041 A 
ATOM     15  HN  UNK N   1      29.072  19.129   3.931  1.00  0.00     0.167 HD
HETATM   16  C   UNK N   1      29.187  16.309   3.551  0.00  0.00     0.071 C 
HETATM   17  C   UNK N   1      26.033  15.775   3.509  0.00  0.00     0.277 A 
HETATM   18  O   UNK N   1      26.616  14.720   3.333  0.00  0.00    -0.265 OA
HETATM   19  N   UNK N   1      24.670  15.813   3.573  0.00  0.00    -0.306 N 
ATOM     20  HN  UNK N   1      24.143  14.946   3.464  1.00  0.00     0.170 HD
BRANCH  11  21
HETATM   21  C   UNK N   1      26.609  20.523   4.157  0.00  0.00     0.078 C 
BRANCH  21  22
HETATM   22  C   UNK N   1      26.308  20.813   5.612  0.00  0.00     0.003 C 
HETATM   23  C   UNK N   1      27.567  21.317   6.284  0.00  0.00     0.005 C 
ENDBRANCH  21  22
ENDBRANCH  11  21
ENDBRANCH   4   7
BRANCH   5  24
HETATM   24  O   UNK N   1      21.999  18.976   2.824  0.00  0.00    -0.351 OA
BRANCH  24  25
HETATM   25  C   UNK N   1      21.280  20.152   2.807  0.00  0.00     0.171 C 
HETATM   26  C   UNK N   1      20.895  20.496   1.385  0.00  0.00     0.034 C 
ENDBRANCH  24  25
ENDBRANCH   5  24
BRANCH   1  27
HETATM   27  S   UNK N   1      20.237  14.247   6.104  0.00  0.00     0.243 S 
HETATM   28  O   UNK N   1      19.290  15.213   6.844  0.00  0.00    -0.206 OA
HETATM   29  O   UNK N   1      21.547  14.896   6.590  0.00  0.00    -0.206 OA
BRANCH  27  30
HETATM   30  N   UNK N   1      20.749  13.424   7.616  0.00  0.00    -0.203 NA
HETATM   31  C   UNK N   1      20.553  14.325   8.745  0.00  0.00     0.138 C 
HETATM   32  C   UNK N   1      20.805  13.552  10.041  0.00  0.00     0.287 C 
HETATM   33  N   UNK N   1      22.177  13.027  10.069  0.00  0.00     0.090 N 
HETATM   34  C   UNK N   1      22.393  12.160   8.914  0.00  0.00     0.287 C 
HETATM   35  C   UNK N   1      22.142  12.939   7.633  0.00  0.00     0.138 C 
BRANCH  33  36
HETATM   36  C   UNK N   1      22.309  12.177  11.242  0.00  0.00     0.268 C 
HETATM   37  C   UNK N   1      23.772  11.987  11.604  0.00  0.00     0.037 C 
ENDBRANCH  33  36
ENDBRANCH  27  30
ENDBRANCH   1  27
TORSDOF 8
ENDMDL
MODEL 2
REMARK VINA RESULT:      -7.4      3.111      7.364
REMARK  8 active torsions:
REMARK  status: ('A' for Active; 'I' for Inactive)
REMARK    1  A    between atoms: S_1  and  N_6 
REMARK    2  A    between atoms: S_1  and  C_19 
REMARK    3  A    between atoms: O_4  and  C_24 
REMARK    4  A    between atoms: O_4  and  C_35 
REMARK    5  A    between atoms: N_7  and  C_18 
REMARK    6  A    between atoms: C_23  and  C_25 
REMARK    7  A    between atoms: C_27  and  C_29 
REMARK    8  A    between atoms: C_29  and  C_32 
ROOT
HETATM    1  C   UNK N   1      25.436  19.361   4.109  0.00  0.00     0.075 A 
HETATM    2  C   UNK N   1      24.619  18.532   4.890  0.00  0.00     0.042 A 
HETATM    3  C   UNK N   1      24.822  20.183   3.159  0.00  0.00     0.027 A 
HETATM    4  C   UNK N   1      23.241  18.502   4.786  0.00  0.00     0.044 A 
HETATM    5  C   UNK N   1      22.615  19.321   3.821  0.00  0.00     0.082 A 
HETATM    6  C   UNK N   1      23.422  20.169   3.020  0.00  0.00     0.039 A 
ENDROOT
BRANCH   4   7
HETATM    7  C   UNK N   1      22.571  17.529   5.677  0.00  0.00     0.136 A 
HETATM    8  N   UNK N   1      23.062  16.273   5.900  0.00  0.00    -0.276 N 
HETATM    9  N   UNK N   1      22.444  15.505   6.803  0.00  0.00    -0.235 N 
HETATM   10  H   UNK N   1      23.848  15.943   5.409  0.00  0.00     0.189 HD
HETATM   11  C   UNK N   1      22.739  14.261   7.217  0.00  0.00     0.104 A 
HETATM   12  C   UNK N   1      21.375  15.895   7.497  0.00  0.00     0.148 A 
HETATM   13  N   UNK N   1      21.877  13.842   8.179  0.00  0.00    -0.346 N 
HETATM   14  C   UNK N   1      21.019  14.876   8.353  0.00  0.00     0.041 A 
ATOM     15  HN  UNK N   1      21.876  12.944   8.664  1.00  0.00     0.167 HD
HETATM   16  C   UNK N   1      19.897  14.882   9.333  0.00  0.00     0.071 C 
HETATM   17  C   UNK N   1      20.835  17.146   7.277  0.00  0.00     0.277 A 
HETATM   18  O   UNK N   1      19.852  17.539   7.878  0.00  0.00    -0.265 OA
HETATM   19  N   UNK N   1      21.456  17.947   6.361  0.00  0.00    -0.306 N 
ATOM     20  HN  UNK N   1      21.082  18.879   6.181  1.00  0.00     0.170 HD
BRANCH  11  21
HETATM   21  C   UNK N   1      23.858  13.429   6.691  0.00  0.00     0.078 C 
BRANCH  21  22
HETATM   22  C   UNK N   1      25.087  13.573   7.562  0.00  0.00     0.003 C 
HETATM   23  C   UNK N   1      25.931  14.715   7.039  0.00  0.00     0.005 C 
ENDBRANCH  21  22
ENDBRANCH  11  21
ENDBRANCH   4   7
BRANCH   5  24
HETATM   24  O   UNK N   1      21.272  19.267   3.646  0.00  0.00    -0.351 OA
BRANCH  24  25
HETATM   25  C   UNK N   1      20.685  18.678   2.547  0.00  0.00     0.171 C 
HETATM   26  C   UNK N   1      20.006  17.390   2.958  0.00  0.00     0.034 C 
ENDBRANCH  24  25
ENDBRANCH   5  24
BRANCH   1  27
HETATM   27  S   UNK N   1      27.265  19.199   4.203  0.00  0.00     0.243 S 
HETATM   28  O   UNK N   1      27.165  17.844   3.472  0.00  0.00    -0.206 OA
HETATM   29  O   UNK N   1      26.626  18.723   5.521  0.00  0.00    -0.206 OA
BRANCH  27  30
HETATM   30  N   UNK N   1      28.575  18.634   5.294  0.00  0.00    -0.203 NA
HETATM   31  C   UNK N   1      29.318  17.564   4.639  0.00  0.00     0.138 C 
HETATM   32  C   UNK N   1      30.544  17.226   5.489  0.00  0.00     0.287 C 
HETATM   33  N   UNK N   1      30.137  16.787   6.830  0.00  0.00     0.090 N 
HETATM   34  C   UNK N   1      29.352  17.838   7.472  0.00  0.00     0.287 C 
HETATM   35  C   UNK N   1      28.136  18.164   6.621  0.00  0.00     0.138 C 
BRANCH  33  36
HETATM   36  C   UNK N   1      31.337  16.629   7.636  0.00  0.00     0.268 C 
HETATM   37  C   UNK N   1      31.626  17.897   8.421  0.00  0.00     0.037 C 
ENDBRANCH  33  36
ENDBRANCH  27  30
ENDBRANCH   1  27
TORSDOF 8
ENDMDL
MODEL 3
REMARK VINA RESULT:      -7.4      3.472      5.358
REMARK  8 active torsions:
REMARK  status: ('A' for Active; 'I' for Inactive)
REMARK    1  A    between atoms: S_1  and  N_6 
REMARK    2  A    between atoms: S_1  and  C_19 
REMARK    3  A    between atoms: O_4  and  C_24 
REMARK    4  A    between atoms: O_4  and  C_35 
REMARK    5  A    between atoms: N_7  and  C_18 
REMARK    6  A    between atoms: C_23  and  C_25 
REMARK    7  A    between atoms: C_27  and  C_29 
REMARK    8  A    between atoms: C_29  and  C_32 
ROOT
HETATM    1  C   UNK N   1      25.296  15.995   5.553  0.00  0.00     0.075 A 
HETATM    2  C   UNK N   1      26.649  16.112   5.899  0.00  0.00     0.042 A 
HETATM    3  C   UNK N   1      24.700  17.053   4.859  0.00  0.00     0.027 A 
HETATM    4  C   UNK N   1      27.429  17.205   5.570  0.00  0.00     0.044 A 
HETATM    5  C   UNK N   1      26.831  18.283   4.881  0.00  0.00     0.082 A 
HETATM    6  C   UNK N   1      25.462  18.185   4.519  0.00  0.00     0.039 A 
ENDROOT
BRANCH   4   7
HETATM    7  C   UNK N   1      28.823  17.146   6.063  0.00  0.00     0.136 A 
HETATM    8  N   UNK N   1      29.904  17.260   5.234  0.00  0.00    -0.276 N 
HETATM    9  N   UNK N   1      31.121  17.301   5.785  0.00  0.00    -0.235 N 
HETATM   10  H   UNK N   1      29.789  17.310   4.257  0.00  0.00     0.189 HD
HETATM   11  C   UNK N   1      32.323  17.432   5.200  0.00  0.00     0.104 A 
HETATM   12  C   UNK N   1      31.339  17.235   7.098  0.00  0.00     0.148 A 
HETATM   13  N   UNK N   1      33.321  17.460   6.121  0.00  0.00    -0.346 N 
HETATM   14  C   UNK N   1      32.695  17.336   7.316  0.00  0.00     0.041 A 
ATOM     15  HN  UNK N   1      34.323  17.553   5.950  1.00  0.00     0.167 HD
HETATM   16  C   UNK N   1      33.392  17.334   8.633  0.00  0.00     0.071 C 
HETATM   17  C   UNK N   1      30.274  17.090   7.963  0.00  0.00     0.277 A 
HETATM   18  O   UNK N   1      30.427  17.014   9.169  0.00  0.00    -0.265 OA
HETATM   19  N   UNK N   1      29.022  17.051   7.418  0.00  0.00    -0.306 N 
ATOM     20  HN  UNK N   1      28.215  16.951   8.034  1.00  0.00     0.170 HD
BRANCH  11  21
HETATM   21  C   UNK N   1      32.553  17.524   3.731  0.00  0.00     0.078 C 
BRANCH  21  22
HETATM   22  C   UNK N   1      32.283  16.192   3.063  0.00  0.00     0.003 C 
HETATM   23  C   UNK N   1      33.576  15.410   2.982  0.00  0.00     0.005 C 
ENDBRANCH  21  22
ENDBRANCH  11  21
ENDBRANCH   4   7
BRANCH   5  24
HETATM   24  O   UNK N   1      27.548  19.398   4.602  0.00  0.00    -0.351 OA
BRANCH  24  25
HETATM   25  C   UNK N   1      27.168  20.655   5.022  0.00  0.00     0.171 C 
HETATM   26  C   UNK N   1      27.468  20.814   6.496  0.00  0.00     0.034 C 
ENDBRANCH  24  25
ENDBRANCH   5  24
BRANCH   1  27
HETATM   27  S   UNK N   1      24.305  14.583   6.187  0.00  0.00     0.243 S 
HETATM   28  O   UNK N   1      23.250  15.579   6.710  0.00  0.00    -0.206 OA
HETATM   29  O   UNK N   1      25.401  14.955   7.204  0.00  0.00    -0.206 OA
BRANCH  27  30
HETATM   30  N   UNK N   1      24.144  13.502   7.614  0.00  0.00    -0.203 NA
HETATM   31  C   UNK N   1      22.793  13.612   8.150  0.00  0.00     0.138 C 
HETATM   32  C   UNK N   1      22.608  12.550   9.236  0.00  0.00     0.287 C 
HETATM   33  N   UNK N   1      23.580  12.746  10.319  0.00  0.00     0.090 N 
HETATM   34  C   UNK N   1      24.935  12.684   9.779  0.00  0.00     0.287 C 
HETATM   35  C   UNK N   1      25.108  13.744   8.703  0.00  0.00     0.138 C 
BRANCH  33  36
HETATM   36  C   UNK N   1      23.460  11.626  11.239  0.00  0.00     0.268 C 
HETATM   37  C   UNK N   1      22.762  12.054  12.518  0.00  0.00     0.037 C 
ENDBRANCH  33  36
ENDBRANCH  27  30
ENDBRANCH   1  27
TORSDOF 8
ENDMDL
MODEL 4
REMARK VINA RESULT:      -7.4      3.286      8.072
REMARK  8 active torsions:
REMARK  status: ('A' for Active; 'I' for Inactive)
REMARK    1  A    between atoms: S_1  and  N_6 
REMARK    2  A    between atoms: S_1  and  C_19 
REMARK    3  A    between atoms: O_4  and  C_24 
REMARK    4  A    between atoms: O_4  and  C_35 
REMARK    5  A    between atoms: N_7  and  C_18 
REMARK    6  A    between atoms: C_23  and  C_25 
REMARK    7  A    between atoms: C_27  and  C_29 
REMARK    8  A    between atoms: C_29  and  C_32 
ROOT
HETATM    1  C   UNK N   1      26.307  17.020   4.026  0.00  0.00     0.075 A 
HETATM    2  C   UNK N   1      25.153  17.027   4.822  0.00  0.00     0.042 A 
HETATM    3  C   UNK N   1      26.334  16.173   2.914  0.00  0.00     0.027 A 
HETATM    4  C   UNK N   1      24.036  16.259   4.553  0.00  0.00     0.044 A 
HETATM    5  C   UNK N   1      24.061  15.392   3.438  0.00  0.00     0.082 A 
HETATM    6  C   UNK N   1      25.218  15.370   2.618  0.00  0.00     0.039 A 
ENDROOT
BRANCH   4   7
HETATM    7  C   UNK N   1      22.940  16.386   5.539  0.00  0.00     0.136 A 
HETATM    8  N   UNK N   1      22.570  15.364   6.367  0.00  0.00    -0.276 N 
HETATM    9  N   UNK N   1      21.642  15.608   7.297  0.00  0.00    -0.235 N 
HETATM   10  H   UNK N   1      22.975  14.471   6.279  0.00  0.00     0.189 HD
HETATM   11  C   UNK N   1      21.129  14.793   8.233  0.00  0.00     0.104 A 
HETATM   12  C   UNK N   1      21.055  16.794   7.461  0.00  0.00     0.148 A 
HETATM   13  N   UNK N   1      20.222  15.439   9.011  0.00  0.00    -0.346 N 
HETATM   14  C   UNK N   1      20.180  16.701   8.520  0.00  0.00     0.041 A 
ATOM     15  HN  UNK N   1      19.689  15.057   9.792  1.00  0.00     0.167 HD
HETATM   16  C   UNK N   1      19.327  17.790   9.074  0.00  0.00     0.071 C 
HETATM   17  C   UNK N   1      21.384  17.842   6.625  0.00  0.00     0.277 A 
HETATM   18  O   UNK N   1      20.866  18.939   6.730  0.00  0.00    -0.265 OA
HETATM   19  N   UNK N   1      22.335  17.612   5.671  0.00  0.00    -0.306 N 
ATOM     20  HN  UNK N   1      22.602  18.369   5.043  1.00  0.00     0.170 HD
BRANCH  11  21
HETATM   21  C   UNK N   1      21.489  13.357   8.405  0.00  0.00     0.078 C 
BRANCH  21  22
HETATM   22  C   UNK N   1      22.317  13.159   9.656  0.00  0.00     0.003 C 
HETATM   23  C   UNK N   1      21.498  12.392  10.673  0.00  0.00     0.005 C 
ENDBRANCH  21  22
ENDBRANCH  11  21
ENDBRANCH   4   7
BRANCH   5  24
HETATM   24  O   UNK N   1      23.009  14.576   3.183  0.00  0.00    -0.351 OA
BRANCH  24  25
HETATM   25  C   UNK N   1      22.134  14.790   2.140  0.00  0.00     0.171 C 
HETATM   26  C   UNK N   1      20.829  15.342   2.671  0.00  0.00     0.034 C 
ENDBRANCH  24  25
ENDBRANCH   5  24
BRANCH   1  27
HETATM   27  S   UNK N   1      27.801  17.944   4.567  0.00  0.00     0.243 S 
HETATM   28  O   UNK N   1      28.624  17.212   3.488  0.00  0.00    -0.206 OA
HETATM   29  O   UNK N   1      27.586  16.716   5.472  0.00  0.00    -0.206 OA
BRANCH  27  30
HETATM   30  N   UNK N   1      29.133  17.889   5.771  0.00  0.00    -0.203 NA
HETATM   31  C   UNK N   1      30.149  16.945   5.321  0.00  0.00     0.138 C 
HETATM   32  C   UNK N   1      31.362  17.050   6.248  0.00  0.00     0.287 C 
HETATM   33  N   UNK N   1      30.982  16.734   7.631  0.00  0.00     0.090 N 
HETATM   34  C   UNK N   1      29.931  17.647   8.071  0.00  0.00     0.287 C 
HETATM   35  C   UNK N   1      28.731  17.533   7.145  0.00  0.00     0.138 C 
BRANCH  33  36
HETATM   36  C   UNK N   1      32.130  16.999   8.484  0.00  0.00     0.268 C 
HETATM   37  C   UNK N   1      33.071  17.992   7.825  0.00  0.00     0.037 C 
ENDBRANCH  33  36
ENDBRANCH  27  30
ENDBRANCH   1  27
TORSDOF 8
ENDMDL
MODEL 5
REMARK VINA RESULT:      -7.3      8.718     12.073
REMARK  8 active torsions:
REMARK  status: ('A' for Active; 'I' for Inactive)
REMARK    1  A    between atoms: S_1  and  N_6 
REMARK    2  A    between atoms: S_1  and  C_19 
REMARK    3  A    between atoms: O_4  and  C_24 
REMARK    4  A    between atoms: O_4  and  C_35 
REMARK    5  A    between atoms: N_7  and  C_18 
REMARK    6  A    between atoms: C_23  and  C_25 
REMARK    7  A    between atoms: C_27  and  C_29 
REMARK    8  A    between atoms: C_29  and  C_32 
ROOT
HETATM    1  C   UNK N   1      35.130  14.933   9.924  0.00  0.00     0.075 A 
HETATM    2  C   UNK N   1      33.992  15.607   9.461  0.00  0.00     0.042 A 
HETATM    3  C   UNK N   1      35.844  14.146   9.015  0.00  0.00     0.027 A 
HETATM    4  C   UNK N   1      33.553  15.553   8.152  0.00  0.00     0.044 A 
HETATM    5  C   UNK N   1      34.262  14.751   7.231  0.00  0.00     0.082 A 
HETATM    6  C   UNK N   1      35.418  14.060   7.677  0.00  0.00     0.039 A 
ENDROOT
BRANCH   4   7
HETATM    7  C   UNK N   1      32.309  16.308   7.880  0.00  0.00     0.136 A 
HETATM    8  N   UNK N   1      31.478  16.010   6.837  0.00  0.00    -0.276 N 
HETATM    9  N   UNK N   1      30.325  16.678   6.737  0.00  0.00    -0.235 N 
HETATM   10  H   UNK N   1      31.722  15.322   6.177  0.00  0.00     0.189 HD
HETATM   11  C   UNK N   1      29.339  16.559   5.832  0.00  0.00     0.104 A 
HETATM   12  C   UNK N   1      29.941  17.621   7.598  0.00  0.00     0.148 A 
HETATM   13  N   UNK N   1      28.314  17.408   6.101  0.00  0.00    -0.346 N 
HETATM   14  C   UNK N   1      28.698  18.076   7.216  0.00  0.00     0.041 A 
ATOM     15  HN  UNK N   1      27.445  17.520   5.578  1.00  0.00     0.167 HD
HETATM   16  C   UNK N   1      27.876  19.112   7.900  0.00  0.00     0.071 C 
HETATM   17  C   UNK N   1      30.768  17.968   8.647  0.00  0.00     0.277 A 
HETATM   18  O   UNK N   1      30.464  18.831   9.450  0.00  0.00    -0.265 OA
HETATM   19  N   UNK N   1      31.949  17.292   8.768  0.00  0.00    -0.306 N 
ATOM     20  HN  UNK N   1      32.578  17.523   9.537  1.00  0.00     0.170 HD
BRANCH  11  21
HETATM   21  C   UNK N   1      29.356  15.626   4.670  0.00  0.00     0.078 C 
BRANCH  21  22
HETATM   22  C   UNK N   1      29.597  16.383   3.381  0.00  0.00     0.003 C 
HETATM   23  C   UNK N   1      31.089  16.547   3.178  0.00  0.00     0.005 C 
ENDBRANCH  21  22
ENDBRANCH  11  21
ENDBRANCH   4   7
BRANCH   5  24
HETATM   24  O   UNK N   1      33.821  14.622   5.955  0.00  0.00    -0.351 OA
BRANCH  24  25
HETATM   25  C   UNK N   1      34.461  15.204   4.882  0.00  0.00     0.171 C 
HETATM   26  C   UNK N   1      34.165  14.419   3.623  0.00  0.00     0.034 C 
ENDBRANCH  24  25
ENDBRANCH   5  24
BRANCH   1  27
HETATM   27  S   UNK N   1      35.529  14.929  11.719  0.00  0.00     0.243 S 
HETATM   28  O   UNK N   1      36.842  14.182  11.408  0.00  0.00    -0.206 OA
HETATM   29  O   UNK N   1      34.588  13.755  11.386  0.00  0.00    -0.206 OA
BRANCH  27  30
HETATM   30  N   UNK N   1      35.232  13.998  13.226  0.00  0.00    -0.203 NA
HETATM   31  C   UNK N   1      36.392  14.116  14.101  0.00  0.00     0.138 C 
HETATM   32  C   UNK N   1      36.053  13.487  15.454  0.00  0.00     0.287 C 
HETATM   33  N   UNK N   1      35.709  12.068  15.290  0.00  0.00     0.090 N 
HETATM   34  C   UNK N   1      34.577  11.941  14.377  0.00  0.00     0.287 C 
HETATM   35  C   UNK N   1      34.925  12.567  13.036  0.00  0.00     0.138 C 
BRANCH  33  36
HETATM   36  C   UNK N   1      35.250  11.566  16.575  0.00  0.00     0.268 C 
HETATM   37  C   UNK N   1      35.148  12.693  17.587  0.00  0.00     0.037 C 
ENDBRANCH  33  36
ENDBRANCH  27  30
ENDBRANCH   1  27
TORSDOF 8
ENDMDL
MODEL 6
REMARK VINA RESULT:      -7.2      7.592     10.822
REMARK  8 active torsions:
REMARK  status: ('A' for Active; 'I' for Inactive)
REMARK    1  A    between atoms: S_1  and  N_6 
REMARK    2  A    between atoms: S_1  and  C_19 
REMARK    3  A    between atoms: O_4  and  C_24 
REMARK    4  A    between atoms: O_4  and  C_35 
REMARK    5  A    between atoms: N_7  and  C_18 
REMARK    6  A    between atoms: C_23  and  C_25 
REMARK    7  A    between atoms: C_27  and  C_29 
REMARK    8  A    between atoms: C_29  and  C_32 
ROOT
HETATM    1  C   UNK N   1      33.891  15.928   8.486  0.00  0.00     0.075 A 
HETATM    2  C   UNK N   1      32.571  16.007   8.022  0.00  0.00     0.042 A 
HETATM    3  C   UNK N   1      34.907  15.727   7.547  0.00  0.00     0.027 A 
HETATM    4  C   UNK N   1      32.224  15.919   6.687  0.00  0.00     0.044 A 
HETATM    5  C   UNK N   1      33.244  15.703   5.734  0.00  0.00     0.082 A 
HETATM    6  C   UNK N   1      34.588  15.622   6.181  0.00  0.00     0.039 A 
ENDROOT
BRANCH   4   7
HETATM    7  C   UNK N   1      30.771  15.989   6.415  0.00  0.00     0.136 A 
HETATM    8  N   UNK N   1      30.018  17.090   6.712  0.00  0.00    -0.276 N 
HETATM    9  N   UNK N   1      28.736  17.099   6.331  0.00  0.00    -0.235 N 
HETATM   10  H   UNK N   1      30.407  17.854   7.193  0.00  0.00     0.189 HD
HETATM   11  C   UNK N   1      27.804  18.055   6.479  0.00  0.00     0.104 A 
HETATM   12  C   UNK N   1      28.152  16.093   5.680  0.00  0.00     0.148 A 
HETATM   13  N   UNK N   1      26.622  17.685   5.922  0.00  0.00    -0.346 N 
HETATM   14  C   UNK N   1      26.847  16.447   5.418  0.00  0.00     0.041 A 
ATOM     15  HN  UNK N   1      25.754  18.221   5.890  1.00  0.00     0.167 HD
HETATM   16  C   UNK N   1      25.830  15.638   4.690  0.00  0.00     0.071 C 
HETATM   17  C   UNK N   1      28.876  14.954   5.389  0.00  0.00     0.277 A 
HETATM   18  O   UNK N   1      28.381  14.007   4.806  0.00  0.00    -0.265 OA
HETATM   19  N   UNK N   1      30.188  14.929   5.766  0.00  0.00    -0.306 N 
ATOM     20  HN  UNK N   1      30.749  14.102   5.559  1.00  0.00     0.170 HD
BRANCH  11  21
HETATM   21  C   UNK N   1      28.019  19.357   7.172  0.00  0.00     0.078 C 
BRANCH  21  22
HETATM   22  C   UNK N   1      27.693  20.513   6.251  0.00  0.00     0.003 C 
HETATM   23  C   UNK N   1      26.498  21.261   6.804  0.00  0.00     0.005 C 
ENDBRANCH  21  22
ENDBRANCH  11  21
ENDBRANCH   4   7
BRANCH   5  24
HETATM   24  O   UNK N   1      32.933  15.546   4.424  0.00  0.00    -0.351 OA
BRANCH  24  25
HETATM   25  C   UNK N   1      33.086  16.552   3.495  0.00  0.00     0.171 C 
HETATM   26  C   UNK N   1      31.737  16.926   2.920  0.00  0.00     0.034 C 
ENDBRANCH  24  25
ENDBRANCH   5  24
BRANCH   1  27
HETATM   27  S   UNK N   1      34.229  15.882  10.292  0.00  0.00     0.243 S 
HETATM   28  O   UNK N   1      35.679  16.330  10.016  0.00  0.00    -0.206 OA
HETATM   29  O   UNK N   1      34.376  14.470   9.693  0.00  0.00    -0.206 OA
BRANCH  27  30
HETATM   30  N   UNK N   1      34.716  14.757  11.606  0.00  0.00    -0.203 NA
HETATM   31  C   UNK N   1      35.938  15.248  12.231  0.00  0.00     0.138 C 
HETATM   32  C   UNK N   1      36.233  14.396  13.467  0.00  0.00     0.287 C 
HETATM   33  N   UNK N   1      36.410  12.987  13.092  0.00  0.00     0.090 N 
HETATM   34  C   UNK N   1      35.205  12.504  12.423  0.00  0.00     0.287 C 
HETATM   35  C   UNK N   1      34.922  13.355  11.196  0.00  0.00     0.138 C 
BRANCH  33  36
HETATM   36  C   UNK N   1      36.533  12.208  14.314  0.00  0.00     0.268 C 
HETATM   37  C   UNK N   1      36.359  13.094  15.535  0.00  0.00     0.037 C 
ENDBRANCH  33  36
ENDBRANCH  27  30
ENDBRANCH   1  27
TORSDOF 8
ENDMDL
MODEL 7
REMARK VINA RESULT:      -7.2      6.330      9.833
REMARK  8 active torsions:
REMARK  status: ('A' for Active; 'I' for Inactive)
REMARK    1  A    between atoms: S_1  and  N_6 
REMARK    2  A    between atoms: S_1  and  C_19 
REMARK    3  A    between atoms: O_4  and  C_24 
REMARK    4  A    between atoms: O_4  and  C_35 
REMARK    5  A    between atoms: N_7  and  C_18 
REMARK    6  A    between atoms: C_23  and  C_25 
REMARK    7  A    between atoms: C_27  and  C_29 
REMARK    8  A    between atoms: C_29  and  C_32 
ROOT
HETATM    1  C   UNK N   1      32.634  17.265   7.030  0.00  0.00     0.075 A 
HETATM    2  C   UNK N   1      31.244  17.207   6.860  0.00  0.00     0.042 A 
HETATM    3  C   UNK N   1      33.439  17.213   5.888  0.00  0.00     0.027 A 
HETATM    4  C   UNK N   1      30.629  17.125   5.625  0.00  0.00     0.044 A 
HETATM    5  C   UNK N   1      31.436  17.060   4.468  0.00  0.00     0.082 A 
HETATM    6  C   UNK N   1      32.845  17.118   4.616  0.00  0.00     0.039 A 
ENDROOT
BRANCH   4   7
HETATM    7  C   UNK N   1      29.152  17.036   5.670  0.00  0.00     0.136 A 
HETATM    8  N   UNK N   1      28.341  18.098   5.382  0.00  0.00    -0.276 N 
HETATM    9  N   UNK N   1      27.021  17.892   5.345  0.00  0.00    -0.235 N 
HETATM   10  H   UNK N   1      28.718  18.990   5.208  0.00  0.00     0.189 HD
HETATM   11  C   UNK N   1      26.025  18.751   5.068  0.00  0.00     0.104 A 
HETATM   12  C   UNK N   1      26.451  16.709   5.575  0.00  0.00     0.148 A 
HETATM   13  N   UNK N   1      24.815  18.136   5.106  0.00  0.00    -0.346 N 
HETATM   14  C   UNK N   1      25.089  16.848   5.426  0.00  0.00     0.041 A 
ATOM     15  HN  UNK N   1      23.900  18.552   4.933  1.00  0.00     0.167 HD
HETATM   16  C   UNK N   1      24.060  15.779   5.565  0.00  0.00     0.071 C 
HETATM   17  C   UNK N   1      27.238  15.621   5.897  0.00  0.00     0.277 A 
HETATM   18  O   UNK N   1      26.761  14.525   6.126  0.00  0.00    -0.265 OA
HETATM   19  N   UNK N   1      28.590  15.812   5.934  0.00  0.00    -0.306 N 
ATOM     20  HN  UNK N   1      29.197  15.025   6.163  1.00  0.00     0.170 HD
BRANCH  11  21
HETATM   21  C   UNK N   1      26.207  20.199   4.766  0.00  0.00     0.078 C 
BRANCH  21  22
HETATM   22  C   UNK N   1      26.212  21.015   6.041  0.00  0.00     0.003 C 
HETATM   23  C   UNK N   1      27.614  21.528   6.291  0.00  0.00     0.005 C 
ENDBRANCH  21  22
ENDBRANCH  11  21
ENDBRANCH   4   7
BRANCH   5  24
HETATM   24  O   UNK N   1      30.868  16.912   3.246  0.00  0.00    -0.351 OA
BRANCH  24  25
HETATM   25  C   UNK N   1      30.538  15.681   2.721  0.00  0.00     0.171 C 
HETATM   26  C   UNK N   1      29.062  15.645   2.391  0.00  0.00     0.034 C 
ENDBRANCH  24  25
ENDBRANCH   5  24
BRANCH   1  27
HETATM   27  S   UNK N   1      33.356  17.196   8.719  0.00  0.00     0.243 S 
HETATM   28  O   UNK N   1      34.701  17.689   8.146  0.00  0.00    -0.206 OA
HETATM   29  O   UNK N   1      33.402  15.800   8.071  0.00  0.00    -0.206 OA
BRANCH  27  30
HETATM   30  N   UNK N   1      34.142  16.064   9.871  0.00  0.00    -0.203 NA
HETATM   31  C   UNK N   1      35.346  16.684  10.410  0.00  0.00     0.138 C 
HETATM   32  C   UNK N   1      35.897  15.797  11.528  0.00  0.00     0.287 C 
HETATM   33  N   UNK N   1      36.225  14.462  11.012  0.00  0.00     0.090 N 
HETATM   34  C   UNK N   1      35.032  13.855  10.429  0.00  0.00     0.287 C 
HETATM   35  C   UNK N   1      34.495  14.742   9.318  0.00  0.00     0.138 C 
BRANCH  33  36
HETATM   36  C   UNK N   1      36.595  13.622  12.141  0.00  0.00     0.268 C 
HETATM   37  C   UNK N   1      35.485  13.597  13.177  0.00  0.00     0.037 C 
ENDBRANCH  33  36
ENDBRANCH  27  30
ENDBRANCH   1  27
TORSDOF 8
ENDMDL
MODEL 8
REMARK VINA RESULT:      -7.1      3.882      8.061
REMARK  8 active torsions:
REMARK  status: ('A' for Active; 'I' for Inactive)
REMARK    1  A    between atoms: S_1  and  N_6 
REMARK    2  A    between atoms: S_1  and  C_19 
REMARK    3  A    between atoms: O_4  and  C_24 
REMARK    4  A    between atoms: O_4  and  C_35 
REMARK    5  A    between atoms: N_7  and  C_18 
REMARK    6  A    between atoms: C_23  and  C_25 
REMARK    7  A    between atoms: C_27  and  C_29 
REMARK    8  A    between atoms: C_29  and  C_32 
ROOT
HETATM    1  C   UNK N   1      26.389  19.054   4.866  0.00  0.00     0.075 A 
HETATM    2  C   UNK N   1      25.091  18.525   4.875  0.00  0.00     0.042 A 
HETATM    3  C   UNK N   1      26.668  20.098   3.979  0.00  0.00     0.027 A 
HETATM    4  C   UNK N   1      24.070  18.995   4.071  0.00  0.00     0.044 A 
HETATM    5  C   UNK N   1      24.347  20.041   3.163  0.00  0.00     0.082 A 
HETATM    6  C   UNK N   1      25.654  20.593   3.139  0.00  0.00     0.039 A 
ENDROOT
BRANCH   4   7
HETATM    7  C   UNK N   1      22.786  18.272   4.208  0.00  0.00     0.136 A 
HETATM    8  N   UNK N   1      22.219  17.573   3.180  0.00  0.00    -0.276 N 
HETATM    9  N   UNK N   1      21.113  16.865   3.432  0.00  0.00    -0.235 N 
HETATM   10  H   UNK N   1      22.614  17.591   2.278  0.00  0.00     0.189 HD
HETATM   11  C   UNK N   1      20.388  16.086   2.612  0.00  0.00     0.104 A 
HETATM   12  C   UNK N   1      20.531  16.805   4.629  0.00  0.00     0.148 A 
HETATM   13  N   UNK N   1      19.346  15.512   3.267  0.00  0.00    -0.346 N 
HETATM   14  C   UNK N   1      19.441  15.969   4.539  0.00  0.00     0.041 A 
ATOM     15  HN  UNK N   1      18.645  14.877   2.885  1.00  0.00     0.167 HD
HETATM   16  C   UNK N   1      18.511  15.590   5.639  0.00  0.00     0.071 C 
HETATM   17  C   UNK N   1      21.060  17.522   5.684  0.00  0.00     0.277 A 
HETATM   18  O   UNK N   1      20.556  17.506   6.792  0.00  0.00    -0.265 OA
HETATM   19  N   UNK N   1      22.193  18.247   5.447  0.00  0.00    -0.306 N 
ATOM     20  HN  UNK N   1      22.609  18.782   6.209  1.00  0.00     0.170 HD
BRANCH  11  21
HETATM   21  C   UNK N   1      20.670  15.875   1.164  0.00  0.00     0.078 C 
BRANCH  21  22
HETATM   22  C   UNK N   1      21.148  14.461   0.912  0.00  0.00     0.003 C 
HETATM   23  C   UNK N   1      22.650  14.409   1.088  0.00  0.00     0.005 C 
ENDBRANCH  21  22
ENDBRANCH  11  21
ENDBRANCH   4   7
BRANCH   5  24
HETATM   24  O   UNK N   1      23.388  20.482   2.314  0.00  0.00    -0.351 OA
BRANCH  24  25
HETATM   25  C   UNK N   1      22.222  21.077   2.748  0.00  0.00     0.171 C 
HETATM   26  C   UNK N   1      21.074  20.666   1.852  0.00  0.00     0.034 C 
ENDBRANCH  24  25
ENDBRANCH   5  24
BRANCH   1  27
HETATM   27  S   UNK N   1      27.717  18.244   5.846  0.00  0.00     0.243 S 
HETATM   28  O   UNK N   1      27.799  19.498   6.740  0.00  0.00    -0.206 OA
HETATM   29  O   UNK N   1      28.317  18.900   4.587  0.00  0.00    -0.206 OA
BRANCH  27  30
HETATM   30  N   UNK N   1      29.495  17.986   5.866  0.00  0.00    -0.203 NA
HETATM   31  C   UNK N   1      29.918  17.451   4.577  0.00  0.00     0.138 C 
HETATM   32  C   UNK N   1      31.447  17.420   4.537  0.00  0.00     0.287 C 
HETATM   33  N   UNK N   1      31.973  16.570   5.613  0.00  0.00     0.090 N 
HETATM   34  C   UNK N   1      31.513  17.074   6.904  0.00  0.00     0.287 C 
HETATM   35  C   UNK N   1      29.994  17.099   6.934  0.00  0.00     0.138 C 
BRANCH  33  36
HETATM   36  C   UNK N   1      33.422  16.700   5.622  0.00  0.00     0.268 C 
HETATM   37  C   UNK N   1      33.877  17.549   6.796  0.00  0.00     0.037 C 
ENDBRANCH  33  36
ENDBRANCH  27  30
ENDBRANCH   1  27
TORSDOF 8
ENDMDL
MODEL 9
REMARK VINA RESULT:      -7.0      3.115      4.429
REMARK  8 active torsions:
REMARK  status: ('A' for Active; 'I' for Inactive)
REMARK    1  A    between atoms: S_1  and  N_6 
REMARK    2  A    between atoms: S_1  and  C_19 
REMARK    3  A    between atoms: O_4  and  C_24 
REMARK    4  A    between atoms: O_4  and  C_35 
REMARK    5  A    between atoms: N_7  and  C_18 
REMARK    6  A    between atoms: C_23  and  C_25 
REMARK    7  A    between atoms: C_27  and  C_29 
REMARK    8  A    between atoms: C_29  and  C_32 
ROOT
HETATM    1  C   UNK N   1      25.312  14.559   5.478  0.00  0.00     0.075 A 
HETATM    2  C   UNK N   1      26.628  15.043   5.488  0.00  0.00     0.042 A 
HETATM    3  C   UNK N   1      24.333  15.329   4.842  0.00  0.00     0.027 A 
HETATM    4  C   UNK N   1      27.010  16.226   4.885  0.00  0.00     0.044 A 
HETATM    5  C   UNK N   1      26.025  17.015   4.252  0.00  0.00     0.082 A 
HETATM    6  C   UNK N   1      24.687  16.544   4.228  0.00  0.00     0.039 A 
ENDROOT
BRANCH   4   7
HETATM    7  C   UNK N   1      28.440  16.573   5.045  0.00  0.00     0.136 A 
HETATM    8  N   UNK N   1      29.018  16.773   6.267  0.00  0.00    -0.276 N 
HETATM    9  N   UNK N   1      30.338  16.977   6.315  0.00  0.00    -0.235 N 
HETATM   10  H   UNK N   1      28.477  16.769   7.089  0.00  0.00     0.189 HD
HETATM   11  C   UNK N   1      31.138  17.173   7.377  0.00  0.00     0.104 A 
HETATM   12  C   UNK N   1      31.122  16.997   5.237  0.00  0.00     0.148 A 
HETATM   13  N   UNK N   1      32.436  17.311   7.000  0.00  0.00    -0.346 N 
HETATM   14  C   UNK N   1      32.421  17.198   5.650  0.00  0.00     0.041 A 
ATOM     15  HN  UNK N   1      33.245  17.466   7.603  1.00  0.00     0.167 HD
HETATM   16  C   UNK N   1      33.633  17.267   4.788  0.00  0.00     0.071 C 
HETATM   17  C   UNK N   1      30.568  16.827   3.985  0.00  0.00     0.277 A 
HETATM   18  O   UNK N   1      31.244  16.849   2.972  0.00  0.00    -0.265 OA
HETATM   19  N   UNK N   1      29.221  16.612   3.916  0.00  0.00    -0.306 N 
ATOM     20  HN  UNK N   1      28.785  16.478   3.004  1.00  0.00     0.170 HD
BRANCH  11  21
HETATM   21  C   UNK N   1      30.677  17.243   8.792  0.00  0.00     0.078 C 
BRANCH  21  22
HETATM   22  C   UNK N   1      30.011  18.573   9.072  0.00  0.00     0.003 C 
HETATM   23  C   UNK N   1      28.543  18.338   9.360  0.00  0.00     0.005 C 
ENDBRANCH  21  22
ENDBRANCH  11  21
ENDBRANCH   4   7
BRANCH   5  24
HETATM   24  O   UNK N   1      26.352  18.212   3.708  0.00  0.00    -0.351 OA
BRANCH  24  25
HETATM   25  C   UNK N   1      25.409  19.121   3.278  0.00  0.00     0.171 C 
HETATM   26  C   UNK N   1      26.015  20.506   3.234  0.00  0.00     0.034 C 
ENDBRANCH  24  25
ENDBRANCH   5  24
BRANCH   1  27
HETATM   27  S   UNK N   1      24.876  13.066   6.457  0.00  0.00     0.243 S 
HETATM   28  O   UNK N   1      23.568  12.938   5.648  0.00  0.00    -0.206 OA
HETATM   29  O   UNK N   1      24.470  14.337   7.227  0.00  0.00    -0.206 OA
BRANCH  27  30
HETATM   30  N   UNK N   1      24.095  12.569   7.997  0.00  0.00    -0.203 NA
HETATM   31  C   UNK N   1      22.707  13.014   7.998  0.00  0.00     0.138 C 
HETATM   32  C   UNK N   1      22.001  12.419   9.218  0.00  0.00     0.287 C 
HETATM   33  N   UNK N   1      22.655  12.861  10.457  0.00  0.00     0.090 N 
HETATM   34  C   UNK N   1      24.059  12.459  10.440  0.00  0.00     0.287 C 
HETATM   35  C   UNK N   1      24.750  13.056   9.225  0.00  0.00     0.138 C 
BRANCH  33  36
HETATM   36  C   UNK N   1      22.044  12.148  11.568  0.00  0.00     0.268 C 
HETATM   37  C   UNK N   1      23.056  11.912  12.675  0.00  0.00     0.037 C 
ENDBRANCH  33  36
ENDBRANCH  27  30
ENDBRANCH   1  27
TORSDOF 8
ENDMDL
