MODEL 1
REMARK VINA RESULT:      -5.1      0.000      0.000
REMARK  10 active torsions:
REMARK  status: ('A' for Active; 'I' for Inactive)
REMARK    1  A    between atoms: S_1  and  C_12 
REMARK    2  A    between atoms: S_1  and  C_15 
REMARK    3  A    between atoms: N_5  and  C_9 
REMARK    4  A    between atoms: N_6  and  C_16 
REMARK    5  A    between atoms: N_6  and  C_19 
REMARK    6  A    between atoms: N_7  and  C_19 
REMARK    7  A    between atoms: N_8  and  C_20 
REMARK    8  A    between atoms: C_9  and  C_10 
REMARK    9  A    between atoms: C_11  and  C_12 
REMARK   10  A    between atoms: C_15  and  C_16 
ROOT
HETATM    1  C   UNK N   1      36.798  14.351   9.945  0.00  0.00     0.093 C 
ENDROOT
BRANCH   1   2
HETATM    2  S   UNK N   1      35.995  15.784  10.732  0.00  0.00    -0.161 SA
BRANCH   2   3
HETATM    3  C   UNK N   1      34.290  15.245  10.355  0.00  0.00     0.139 C 
BRANCH   3   4
HETATM    4  C   UNK N   1      33.632  16.235   9.447  0.00  0.00     0.062 A 
HETATM    5  O   UNK N   1      32.386  16.161   9.035  0.00  0.00    -0.317 OA
HETATM    6  C   UNK N   1      32.154  17.168   8.226  0.00  0.00     0.081 A 
HETATM    7  C   UNK N   1      33.294  17.937   8.089  0.00  0.00     0.037 A 
HETATM    8  C   UNK N   1      34.250  17.338   8.890  0.00  0.00     0.036 A 
BRANCH   6   9
HETATM    9  C   UNK N   1      30.860  17.394   7.499  0.00  0.00     0.335 C 
BRANCH   9  10
HETATM   10  N   UNK N   1      29.724  17.410   8.415  0.00  0.00     0.086 N 
HETATM   11  C   UNK N   1      29.872  18.567   9.286  0.00  0.00     0.309 C 
HETATM   12  C   UNK N   1      28.533  17.653   7.623  0.00  0.00     0.309 C 
ENDBRANCH   9  10
ENDBRANCH   6   9
ENDBRANCH   3   4
ENDBRANCH   2   3
ENDBRANCH   1   2
BRANCH   1  13
HETATM   13  C   UNK N   1      36.960  13.221  10.945  0.00  0.00     0.131 C 
BRANCH  13  14
HETATM   14  N   UNK N   1      37.159  13.738  12.279  0.00  0.00    -0.374 N 
HETATM   15  H   UNK N   1      37.774  14.495  12.417  0.00  0.00     0.161 HD
BRANCH  14  16
HETATM   16  C   UNK N   1      36.486  13.177  13.400  0.00  0.00     0.118 C 
HETATM   17  C   UNK N   1      35.312  12.537  13.140  0.00  0.00     0.215 C 
BRANCH  16  18
HETATM   18  N   UNK N   1      37.077  13.369  14.692  0.00  0.00    -0.380 N 
HETATM   19  C   UNK N   1      37.062  14.551  15.508  0.00  0.00     0.147 C 
HETATM   20  H   UNK N   1      37.555  12.593  15.066  0.00  0.00     0.160 HD
ENDBRANCH  16  18
BRANCH  17  21
HETATM   21  N   UNK N   1      34.344  11.952  14.016  0.00  0.00    -0.124 N 
HETATM   22  O   UNK N   1      34.139  12.523  15.184  0.00  0.00    -0.532 OA
HETATM   23  O   UNK N   1      33.886  10.874  13.818  0.00  0.00    -0.532 OA
ENDBRANCH  17  21
ENDBRANCH  14  16
ENDBRANCH  13  14
ENDBRANCH   1  13
TORSDOF 10
ENDMDL
MODEL 2
REMARK VINA RESULT:      -5.1      2.971      4.811
REMARK  10 active torsions:
REMARK  status: ('A' for Active; 'I' for Inactive)
REMARK    1  A    between atoms: S_1  and  C_12 
REMARK    2  A    between atoms: S_1  and  C_15 
REMARK    3  A    between atoms: N_5  and  C_9 
REMARK    4  A    between atoms: N_6  and  C_16 
REMARK    5  A    between atoms: N_6  and  C_19 
REMARK    6  A    between atoms: N_7  and  C_19 
REMARK    7  A    between atoms: N_8  and  C_20 
REMARK    8  A    between atoms: C_9  and  C_10 
REMARK    9  A    between atoms: C_11  and  C_12 
REMARK   10  A    between atoms: C_15  and  C_16 
ROOT
HETATM    1  C   UNK N   1      33.337  18.270   7.996  0.00  0.00     0.093 C 
ENDROOT
BRANCH   1   2
HETATM    2  S   UNK N   1      32.381  17.029   7.067  0.00  0.00    -0.161 SA
BRANCH   2   3
HETATM    3  C   UNK N   1      31.215  16.666   8.428  0.00  0.00     0.139 C 
BRANCH   3   4
HETATM    4  C   UNK N   1      29.946  17.434   8.229  0.00  0.00     0.062 A 
HETATM    5  O   UNK N   1      29.347  17.602   7.073  0.00  0.00    -0.317 OA
HETATM    6  C   UNK N   1      28.286  18.354   7.259  0.00  0.00     0.081 A 
HETATM    7  C   UNK N   1      28.183  18.704   8.592  0.00  0.00     0.037 A 
HETATM    8  C   UNK N   1      29.254  18.098   9.223  0.00  0.00     0.036 A 
BRANCH   6   9
HETATM    9  C   UNK N   1      27.374  18.824   6.162  0.00  0.00     0.335 C 
BRANCH   9  10
HETATM   10  N   UNK N   1      27.947  19.951   5.433  0.00  0.00     0.086 N 
HETATM   11  C   UNK N   1      27.447  19.895   4.066  0.00  0.00     0.309 C 
HETATM   12  C   UNK N   1      27.398  21.163   6.011  0.00  0.00     0.309 C 
ENDBRANCH   9  10
ENDBRANCH   6   9
ENDBRANCH   3   4
ENDBRANCH   2   3
ENDBRANCH   1   2
BRANCH   1  13
HETATM   13  C   UNK N   1      34.614  17.656   8.539  0.00  0.00     0.131 C 
BRANCH  13  14
HETATM   14  N   UNK N   1      34.398  17.093   9.852  0.00  0.00    -0.374 N 
HETATM   15  H   UNK N   1      34.057  17.670  10.574  0.00  0.00     0.161 HD
BRANCH  14  16
HETATM   16  C   UNK N   1      34.667  15.723  10.126  0.00  0.00     0.118 C 
HETATM   17  C   UNK N   1      34.925  15.407  11.426  0.00  0.00     0.215 C 
BRANCH  16  18
HETATM   18  N   UNK N   1      34.682  14.817   9.015  0.00  0.00    -0.380 N 
HETATM   19  C   UNK N   1      33.721  13.801   8.686  0.00  0.00     0.147 C 
HETATM   20  H   UNK N   1      35.448  14.900   8.402  0.00  0.00     0.160 HD
ENDBRANCH  16  18
BRANCH  17  21
HETATM   21  N   UNK N   1      35.320  14.175  12.034  0.00  0.00    -0.124 N 
HETATM   22  O   UNK N   1      36.215  13.436  11.415  0.00  0.00    -0.532 OA
HETATM   23  O   UNK N   1      34.726  13.707  12.950  0.00  0.00    -0.532 OA
ENDBRANCH  17  21
ENDBRANCH  14  16
ENDBRANCH  13  14
ENDBRANCH   1  13
TORSDOF 10
ENDMDL
MODEL 3
REMARK VINA RESULT:      -5.0     11.350     13.472
REMARK  10 active torsions:
REMARK  status: ('A' for Active; 'I' for Inactive)
REMARK    1  A    between atoms: S_1  and  C_12 
REMARK    2  A    between atoms: S_1  and  C_15 
REMARK    3  A    between atoms: N_5  and  C_9 
REMARK    4  A    between atoms: N_6  and  C_16 
REMARK    5  A    between atoms: N_6  and  C_19 
REMARK    6  A    between atoms: N_7  and  C_19 
REMARK    7  A    between atoms: N_8  and  C_20 
REMARK    8  A    between atoms: C_9  and  C_10 
REMARK    9  A    between atoms: C_11  and  C_12 
REMARK   10  A    between atoms: C_15  and  C_16 
ROOT
HETATM    1  C   UNK N   1      26.026  15.458   4.914  0.00  0.00     0.093 C 
ENDROOT
BRANCH   1   2
HETATM    2  S   UNK N   1      25.322  15.247   6.580  0.00  0.00    -0.161 SA
BRANCH   2   3
HETATM    3  C   UNK N   1      23.698  14.643   5.997  0.00  0.00     0.139 C 
BRANCH   3   4
HETATM    4  C   UNK N   1      22.698  15.757   6.032  0.00  0.00     0.062 A 
HETATM    5  O   UNK N   1      22.570  16.677   5.103  0.00  0.00    -0.317 OA
HETATM    6  C   UNK N   1      21.628  17.513   5.472  0.00  0.00     0.081 A 
HETATM    7  C   UNK N   1      21.115  17.136   6.699  0.00  0.00     0.037 A 
HETATM    8  C   UNK N   1      21.802  15.990   7.057  0.00  0.00     0.036 A 
BRANCH   6   9
HETATM    9  C   UNK N   1      21.231  18.740   4.703  0.00  0.00     0.335 C 
BRANCH   9  10
HETATM   10  N   UNK N   1      20.860  18.417   3.328  0.00  0.00     0.086 N 
HETATM   11  C   UNK N   1      19.718  17.516   3.376  0.00  0.00     0.309 C 
HETATM   12  C   UNK N   1      20.382  19.640   2.711  0.00  0.00     0.309 C 
ENDBRANCH   9  10
ENDBRANCH   6   9
ENDBRANCH   3   4
ENDBRANCH   2   3
ENDBRANCH   1   2
BRANCH   1  13
HETATM   13  C   UNK N   1      26.389  16.912   4.672  0.00  0.00     0.131 C 
BRANCH  13  14
HETATM   14  N   UNK N   1      25.406  17.793   5.260  0.00  0.00    -0.374 N 
HETATM   15  H   UNK N   1      24.805  17.446   5.959  0.00  0.00     0.161 HD
BRANCH  14  16
HETATM   16  C   UNK N   1      25.287  19.150   4.851  0.00  0.00     0.118 C 
HETATM   17  C   UNK N   1      24.698  19.366   3.642  0.00  0.00     0.215 C 
BRANCH  16  18
HETATM   18  N   UNK N   1      25.829  20.153   5.720  0.00  0.00    -0.380 N 
HETATM   19  C   UNK N   1      27.077  20.852   5.599  0.00  0.00     0.147 C 
HETATM   20  H   UNK N   1      25.275  20.392   6.499  0.00  0.00     0.160 HD
ENDBRANCH  16  18
BRANCH  17  21
HETATM   21  N   UNK N   1      24.503  20.568   2.891  0.00  0.00    -0.124 N 
HETATM   22  O   UNK N   1      23.372  21.221   3.048  0.00  0.00    -0.532 OA
HETATM   23  O   UNK N   1      25.221  20.872   1.995  0.00  0.00    -0.532 OA
ENDBRANCH  17  21
ENDBRANCH  14  16
ENDBRANCH  13  14
ENDBRANCH   1  13
TORSDOF 10
ENDMDL
MODEL 4
REMARK VINA RESULT:      -4.9      1.666      2.053
REMARK  10 active torsions:
REMARK  status: ('A' for Active; 'I' for Inactive)
REMARK    1  A    between atoms: S_1  and  C_12 
REMARK    2  A    between atoms: S_1  and  C_15 
REMARK    3  A    between atoms: N_5  and  C_9 
REMARK    4  A    between atoms: N_6  and  C_16 
REMARK    5  A    between atoms: N_6  and  C_19 
REMARK    6  A    between atoms: N_7  and  C_19 
REMARK    7  A    between atoms: N_8  and  C_20 
REMARK    8  A    between atoms: C_9  and  C_10 
REMARK    9  A    between atoms: C_11  and  C_12 
REMARK   10  A    between atoms: C_15  and  C_16 
ROOT
HETATM    1  C   UNK N   1      35.569  13.390  11.151  0.00  0.00     0.093 C 
ENDROOT
BRANCH   1   2
HETATM    2  S   UNK N   1      34.595  14.929  11.140  0.00  0.00    -0.161 SA
BRANCH   2   3
HETATM    3  C   UNK N   1      35.021  15.381   9.421  0.00  0.00     0.139 C 
BRANCH   3   4
HETATM    4  C   UNK N   1      34.092  16.447   8.930  0.00  0.00     0.062 A 
HETATM    5  O   UNK N   1      32.790  16.313   8.820  0.00  0.00    -0.317 OA
HETATM    6  C   UNK N   1      32.297  17.424   8.325  0.00  0.00     0.081 A 
HETATM    7  C   UNK N   1      33.314  18.330   8.091  0.00  0.00     0.037 A 
HETATM    8  C   UNK N   1      34.478  17.700   8.494  0.00  0.00     0.036 A 
BRANCH   6   9
HETATM    9  C   UNK N   1      30.848  17.637   7.991  0.00  0.00     0.335 C 
BRANCH   9  10
HETATM   10  N   UNK N   1      30.381  16.683   6.990  0.00  0.00     0.086 N 
HETATM   11  C   UNK N   1      28.941  16.850   6.855  0.00  0.00     0.309 C 
HETATM   12  C   UNK N   1      30.952  17.080   5.716  0.00  0.00     0.309 C 
ENDBRANCH   9  10
ENDBRANCH   6   9
ENDBRANCH   3   4
ENDBRANCH   2   3
ENDBRANCH   1   2
BRANCH   1  13
HETATM   13  C   UNK N   1      35.689  12.850  12.564  0.00  0.00     0.131 C 
BRANCH  13  14
HETATM   14  N   UNK N   1      35.606  13.919  13.533  0.00  0.00    -0.374 N 
HETATM   15  H   UNK N   1      35.296  14.808  13.245  0.00  0.00     0.161 HD
BRANCH  14  16
HETATM   16  C   UNK N   1      35.964  13.715  14.895  0.00  0.00     0.118 C 
HETATM   17  C   UNK N   1      35.069  13.028  15.657  0.00  0.00     0.215 C 
BRANCH  16  18
HETATM   18  N   UNK N   1      37.202  14.281  15.346  0.00  0.00    -0.380 N 
HETATM   19  C   UNK N   1      37.424  15.568  15.943  0.00  0.00     0.147 C 
HETATM   20  H   UNK N   1      38.000  13.716  15.230  0.00  0.00     0.160 HD
ENDBRANCH  16  18
BRANCH  17  21
HETATM   21  N   UNK N   1      35.058  12.729  17.056  0.00  0.00    -0.124 N 
HETATM   22  O   UNK N   1      35.169  13.728  17.904  0.00  0.00    -0.532 OA
HETATM   23  O   UNK N   1      35.163  11.618  17.462  0.00  0.00    -0.532 OA
ENDBRANCH  17  21
ENDBRANCH  14  16
ENDBRANCH  13  14
ENDBRANCH   1  13
TORSDOF 10
ENDMDL
MODEL 5
REMARK VINA RESULT:      -4.8      3.246      4.598
REMARK  10 active torsions:
REMARK  status: ('A' for Active; 'I' for Inactive)
REMARK    1  A    between atoms: S_1  and  C_12 
REMARK    2  A    between atoms: S_1  and  C_15 
REMARK    3  A    between atoms: N_5  and  C_9 
REMARK    4  A    between atoms: N_6  and  C_16 
REMARK    5  A    between atoms: N_6  and  C_19 
REMARK    6  A    between atoms: N_7  and  C_19 
REMARK    7  A    between atoms: N_8  and  C_20 
REMARK    8  A    between atoms: C_9  and  C_10 
REMARK    9  A    between atoms: C_11  and  C_12 
REMARK   10  A    between atoms: C_15  and  C_16 
ROOT
HETATM    1  C   UNK N   1      34.717  11.846  13.626  0.00  0.00     0.093 C 
ENDROOT
BRANCH   1   2
HETATM    2  S   UNK N   1      36.285  12.770  13.705  0.00  0.00    -0.161 SA
BRANCH   2   3
HETATM    3  C   UNK N   1      36.530  12.833  11.894  0.00  0.00     0.139 C 
BRANCH   3   4
HETATM    4  C   UNK N   1      35.983  14.116  11.351  0.00  0.00     0.062 A 
HETATM    5  O   UNK N   1      35.554  14.285  10.121  0.00  0.00    -0.317 OA
HETATM    6  C   UNK N   1      35.181  15.536   9.978  0.00  0.00     0.081 A 
HETATM    7  C   UNK N   1      35.378  16.226  11.159  0.00  0.00     0.037 A 
HETATM    8  C   UNK N   1      35.888  15.302  12.053  0.00  0.00     0.036 A 
BRANCH   6   9
HETATM    9  C   UNK N   1      34.691  16.136   8.692  0.00  0.00     0.335 C 
BRANCH   9  10
HETATM   10  N   UNK N   1      33.885  17.329   8.928  0.00  0.00     0.086 N 
HETATM   11  C   UNK N   1      34.462  18.416   8.150  0.00  0.00     0.309 C 
HETATM   12  C   UNK N   1      32.572  17.083   8.361  0.00  0.00     0.309 C 
ENDBRANCH   9  10
ENDBRANCH   6   9
ENDBRANCH   3   4
ENDBRANCH   2   3
ENDBRANCH   1   2
BRANCH   1  13
HETATM   13  C   UNK N   1      34.106  11.723  15.010  0.00  0.00     0.131 C 
BRANCH  13  14
HETATM   14  N   UNK N   1      35.037  11.115  15.932  0.00  0.00    -0.374 N 
HETATM   15  H   UNK N   1      35.545  10.320  15.651  0.00  0.00     0.161 HD
BRANCH  14  16
HETATM   16  C   UNK N   1      35.235  11.641  17.239  0.00  0.00     0.118 C 
HETATM   17  C   UNK N   1      35.083  12.987  17.377  0.00  0.00     0.215 C 
BRANCH  16  18
HETATM   18  N   UNK N   1      35.613  10.721  18.272  0.00  0.00    -0.380 N 
HETATM   19  C   UNK N   1      34.757   9.940  19.121  0.00  0.00     0.147 C 
HETATM   20  H   UNK N   1      36.580  10.613  18.419  0.00  0.00     0.160 HD
ENDBRANCH  16  18
BRANCH  17  21
HETATM   21  N   UNK N   1      35.295  13.848  18.500  0.00  0.00    -0.124 N 
HETATM   22  O   UNK N   1      34.933  13.418  19.689  0.00  0.00    -0.532 OA
HETATM   23  O   UNK N   1      35.582  14.994  18.368  0.00  0.00    -0.532 OA
ENDBRANCH  17  21
ENDBRANCH  14  16
ENDBRANCH  13  14
ENDBRANCH   1  13
TORSDOF 10
ENDMDL
MODEL 6
REMARK VINA RESULT:      -4.8      5.841     11.808
REMARK  10 active torsions:
REMARK  status: ('A' for Active; 'I' for Inactive)
REMARK    1  A    between atoms: S_1  and  C_12 
REMARK    2  A    between atoms: S_1  and  C_15 
REMARK    3  A    between atoms: N_5  and  C_9 
REMARK    4  A    between atoms: N_6  and  C_16 
REMARK    5  A    between atoms: N_6  and  C_19 
REMARK    6  A    between atoms: N_7  and  C_19 
REMARK    7  A    between atoms: N_8  and  C_20 
REMARK    8  A    between atoms: C_9  and  C_10 
REMARK    9  A    between atoms: C_11  and  C_12 
REMARK   10  A    between atoms: C_15  and  C_16 
ROOT
HETATM    1  C   UNK N   1      25.652  15.878   4.321  0.00  0.00     0.093 C 
ENDROOT
BRANCH   1   2
HETATM    2  S   UNK N   1      26.556  15.612   5.880  0.00  0.00    -0.161 SA
BRANCH   2   3
HETATM    3  C   UNK N   1      28.218  15.794   5.139  0.00  0.00     0.139 C 
BRANCH   3   4
HETATM    4  C   UNK N   1      29.167  16.357   6.150  0.00  0.00     0.062 A 
HETATM    5  O   UNK N   1      30.352  15.860   6.421  0.00  0.00    -0.317 OA
HETATM    6  C   UNK N   1      30.895  16.576   7.379  0.00  0.00     0.081 A 
HETATM    7  C   UNK N   1      30.031  17.583   7.763  0.00  0.00     0.037 A 
HETATM    8  C   UNK N   1      28.914  17.448   6.958  0.00  0.00     0.036 A 
BRANCH   6   9
HETATM    9  C   UNK N   1      32.225  16.282   8.010  0.00  0.00     0.335 C 
BRANCH   9  10
HETATM   10  N   UNK N   1      33.046  17.485   8.119  0.00  0.00     0.086 N 
HETATM   11  C   UNK N   1      34.112  17.211   9.071  0.00  0.00     0.309 C 
HETATM   12  C   UNK N   1      33.694  17.683   6.836  0.00  0.00     0.309 C 
ENDBRANCH   9  10
ENDBRANCH   6   9
ENDBRANCH   3   4
ENDBRANCH   2   3
ENDBRANCH   1   2
BRANCH   1  13
HETATM   13  C   UNK N   1      24.331  16.576   4.589  0.00  0.00     0.131 C 
BRANCH  13  14
HETATM   14  N   UNK N   1      24.541  17.833   5.271  0.00  0.00    -0.374 N 
HETATM   15  H   UNK N   1      24.468  17.867   6.252  0.00  0.00     0.161 HD
BRANCH  14  16
HETATM   16  C   UNK N   1      24.850  19.022   4.555  0.00  0.00     0.118 C 
HETATM   17  C   UNK N   1      23.863  19.522   3.760  0.00  0.00     0.215 C 
BRANCH  16  18
HETATM   18  N   UNK N   1      26.171  19.559   4.702  0.00  0.00    -0.380 N 
HETATM   19  C   UNK N   1      26.574  20.743   5.408  0.00  0.00     0.147 C 
HETATM   20  H   UNK N   1      26.893  19.053   4.263  0.00  0.00     0.160 HD
ENDBRANCH  16  18
BRANCH  17  21
HETATM   21  N   UNK N   1      23.856  20.622   2.846  0.00  0.00    -0.124 N 
HETATM   22  O   UNK N   1      24.941  20.846   2.137  0.00  0.00    -0.532 OA
HETATM   23  O   UNK N   1      23.002  21.448   2.863  0.00  0.00    -0.532 OA
ENDBRANCH  17  21
ENDBRANCH  14  16
ENDBRANCH  13  14
ENDBRANCH   1  13
TORSDOF 10
ENDMDL
MODEL 7
REMARK VINA RESULT:      -4.8     16.996     19.496
REMARK  10 active torsions:
REMARK  status: ('A' for Active; 'I' for Inactive)
REMARK    1  A    between atoms: S_1  and  C_12 
REMARK    2  A    between atoms: S_1  and  C_15 
REMARK    3  A    between atoms: N_5  and  C_9 
REMARK    4  A    between atoms: N_6  and  C_16 
REMARK    5  A    between atoms: N_6  and  C_19 
REMARK    6  A    between atoms: N_7  and  C_19 
REMARK    7  A    between atoms: N_8  and  C_20 
REMARK    8  A    between atoms: C_9  and  C_10 
REMARK    9  A    between atoms: C_11  and  C_12 
REMARK   10  A    between atoms: C_15  and  C_16 
ROOT
HETATM    1  C   UNK N   1      28.777  23.563  -6.773  0.00  0.00     0.093 C 
ENDROOT
BRANCH   1   2
HETATM    2  S   UNK N   1      27.161  23.723  -7.598  0.00  0.00    -0.161 SA
BRANCH   2   3
HETATM    3  C   UNK N   1      26.177  23.341  -6.106  0.00  0.00     0.139 C 
BRANCH   3   4
HETATM    4  C   UNK N   1      26.194  24.510  -5.171  0.00  0.00     0.062 A 
HETATM    5  O   UNK N   1      25.744  25.709  -5.463  0.00  0.00    -0.317 OA
HETATM    6  C   UNK N   1      25.949  26.494  -4.431  0.00  0.00     0.081 A 
HETATM    7  C   UNK N   1      26.567  25.789  -3.416  0.00  0.00     0.037 A 
HETATM    8  C   UNK N   1      26.716  24.499  -3.892  0.00  0.00     0.036 A 
BRANCH   6   9
HETATM    9  C   UNK N   1      25.628  27.961  -4.401  0.00  0.00     0.335 C 
BRANCH   9  10
HETATM   10  N   UNK N   1      26.837  28.774  -4.312  0.00  0.00     0.086 N 
HETATM   11  C   UNK N   1      27.339  28.974  -5.663  0.00  0.00     0.309 C 
HETATM   12  C   UNK N   1      26.441  30.085  -3.832  0.00  0.00     0.309 C 
ENDBRANCH   9  10
ENDBRANCH   6   9
ENDBRANCH   3   4
ENDBRANCH   2   3
ENDBRANCH   1   2
BRANCH   1  13
HETATM   13  C   UNK N   1      29.404  22.219  -7.094  0.00  0.00     0.131 C 
BRANCH  13  14
HETATM   14  N   UNK N   1      29.579  21.432  -5.896  0.00  0.00    -0.374 N 
HETATM   15  H   UNK N   1      28.975  20.674  -5.723  0.00  0.00     0.161 HD
BRANCH  14  16
HETATM   16  C   UNK N   1      30.607  21.728  -4.957  0.00  0.00     0.118 C 
HETATM   17  C   UNK N   1      30.209  21.922  -3.669  0.00  0.00     0.215 C 
BRANCH  16  18
HETATM   18  N   UNK N   1      31.947  21.835  -5.454  0.00  0.00    -0.380 N 
HETATM   19  C   UNK N   1      32.758  23.014  -5.575  0.00  0.00     0.147 C 
HETATM   20  H   UNK N   1      32.364  20.993  -5.751  0.00  0.00     0.160 HD
ENDBRANCH  16  18
BRANCH  17  21
HETATM   21  N   UNK N   1      30.942  22.321  -2.507  0.00  0.00    -0.124 N 
HETATM   22  O   UNK N   1      30.518  23.371  -1.837  0.00  0.00    -0.532 OA
HETATM   23  O   UNK N   1      32.015  21.877  -2.257  0.00  0.00    -0.532 OA
ENDBRANCH  17  21
ENDBRANCH  14  16
ENDBRANCH  13  14
ENDBRANCH   1  13
TORSDOF 10
ENDMDL
MODEL 8
REMARK VINA RESULT:      -4.8      1.757      2.447
REMARK  10 active torsions:
REMARK  status: ('A' for Active; 'I' for Inactive)
REMARK    1  A    between atoms: S_1  and  C_12 
REMARK    2  A    between atoms: S_1  and  C_15 
REMARK    3  A    between atoms: N_5  and  C_9 
REMARK    4  A    between atoms: N_6  and  C_16 
REMARK    5  A    between atoms: N_6  and  C_19 
REMARK    6  A    between atoms: N_7  and  C_19 
REMARK    7  A    between atoms: N_8  and  C_20 
REMARK    8  A    between atoms: C_9  and  C_10 
REMARK    9  A    between atoms: C_11  and  C_12 
REMARK   10  A    between atoms: C_15  and  C_16 
ROOT
HETATM    1  C   UNK N   1      35.618  14.433  12.190  0.00  0.00     0.093 C 
ENDROOT
BRANCH   1   2
HETATM    2  S   UNK N   1      35.531  15.994  11.255  0.00  0.00    -0.161 SA
BRANCH   2   3
HETATM    3  C   UNK N   1      34.717  15.263   9.790  0.00  0.00     0.139 C 
BRANCH   3   4
HETATM    4  C   UNK N   1      33.806  16.269   9.159  0.00  0.00     0.062 A 
HETATM    5  O   UNK N   1      32.516  16.100   8.976  0.00  0.00    -0.317 OA
HETATM    6  C   UNK N   1      32.039  17.159   8.365  0.00  0.00     0.081 A 
HETATM    7  C   UNK N   1      33.056  18.065   8.127  0.00  0.00     0.037 A 
HETATM    8  C   UNK N   1      34.200  17.492   8.652  0.00  0.00     0.036 A 
BRANCH   6   9
HETATM    9  C   UNK N   1      30.613  17.317   7.924  0.00  0.00     0.335 C 
BRANCH   9  10
HETATM   10  N   UNK N   1      29.866  18.194   8.820  0.00  0.00     0.086 N 
HETATM   11  C   UNK N   1      28.762  18.767   8.064  0.00  0.00     0.309 C 
HETATM   12  C   UNK N   1      29.262  17.357   9.840  0.00  0.00     0.309 C 
ENDBRANCH   9  10
ENDBRANCH   6   9
ENDBRANCH   3   4
ENDBRANCH   2   3
ENDBRANCH   1   2
BRANCH   1  13
HETATM   13  C   UNK N   1      36.341  14.646  13.507  0.00  0.00     0.131 C 
BRANCH  13  14
HETATM   14  N   UNK N   1      36.906  13.407  13.991  0.00  0.00    -0.374 N 
HETATM   15  H   UNK N   1      37.575  12.936  13.443  0.00  0.00     0.161 HD
BRANCH  14  16
HETATM   16  C   UNK N   1      36.516  12.852  15.241  0.00  0.00     0.118 C 
HETATM   17  C   UNK N   1      35.964  13.716  16.139  0.00  0.00     0.215 C 
BRANCH  16  18
HETATM   18  N   UNK N   1      36.774  11.458  15.456  0.00  0.00    -0.380 N 
HETATM   19  C   UNK N   1      35.895  10.347  15.222  0.00  0.00     0.147 C 
HETATM   20  H   UNK N   1      37.665  11.235  15.810  0.00  0.00     0.160 HD
ENDBRANCH  16  18
BRANCH  17  21
HETATM   21  N   UNK N   1      35.555  13.529  17.496  0.00  0.00    -0.124 N 
HETATM   22  O   UNK N   1      35.043  12.365  17.834  0.00  0.00    -0.532 OA
HETATM   23  O   UNK N   1      35.467  14.436  18.257  0.00  0.00    -0.532 OA
ENDBRANCH  17  21
ENDBRANCH  14  16
ENDBRANCH  13  14
ENDBRANCH   1  13
TORSDOF 10
ENDMDL
MODEL 9
REMARK VINA RESULT:      -4.8     11.908     15.329
REMARK  10 active torsions:
REMARK  status: ('A' for Active; 'I' for Inactive)
REMARK    1  A    between atoms: S_1  and  C_12 
REMARK    2  A    between atoms: S_1  and  C_15 
REMARK    3  A    between atoms: N_5  and  C_9 
REMARK    4  A    between atoms: N_6  and  C_16 
REMARK    5  A    between atoms: N_6  and  C_19 
REMARK    6  A    between atoms: N_7  and  C_19 
REMARK    7  A    between atoms: N_8  and  C_20 
REMARK    8  A    between atoms: C_9  and  C_10 
REMARK    9  A    between atoms: C_11  and  C_12 
REMARK   10  A    between atoms: C_15  and  C_16 
ROOT
HETATM    1  C   UNK N   1      20.643  15.960   1.876  0.00  0.00     0.093 C 
ENDROOT
BRANCH   1   2
HETATM    2  S   UNK N   1      22.065  14.846   2.111  0.00  0.00    -0.161 SA
BRANCH   2   3
HETATM    3  C   UNK N   1      22.133  15.046   3.927  0.00  0.00     0.139 C 
BRANCH   3   4
HETATM    4  C   UNK N   1      23.394  15.752   4.314  0.00  0.00     0.062 A 
HETATM    5  O   UNK N   1      23.994  16.666   3.585  0.00  0.00    -0.317 OA
HETATM    6  C   UNK N   1      25.087  17.044   4.207  0.00  0.00     0.081 A 
HETATM    7  C   UNK N   1      25.220  16.347   5.393  0.00  0.00     0.037 A 
HETATM    8  C   UNK N   1      24.116  15.517   5.468  0.00  0.00     0.036 A 
BRANCH   6   9
HETATM    9  C   UNK N   1      26.079  18.030   3.660  0.00  0.00     0.335 C 
BRANCH   9  10
HETATM   10  N   UNK N   1      26.105  19.258   4.448  0.00  0.00     0.086 N 
HETATM   11  C   UNK N   1      27.382  19.914   4.206  0.00  0.00     0.309 C 
HETATM   12  C   UNK N   1      25.090  20.142   3.906  0.00  0.00     0.309 C 
ENDBRANCH   9  10
ENDBRANCH   6   9
ENDBRANCH   3   4
ENDBRANCH   2   3
ENDBRANCH   1   2
BRANCH   1  13
HETATM   13  C   UNK N   1      19.964  16.238   3.205  0.00  0.00     0.131 C 
BRANCH  13  14
HETATM   14  N   UNK N   1      19.524  17.611   3.281  0.00  0.00    -0.374 N 
HETATM   15  H   UNK N   1      18.562  17.806   3.362  0.00  0.00     0.161 HD
BRANCH  14  16
HETATM   16  C   UNK N   1      20.450  18.690   3.243  0.00  0.00     0.118 C 
HETATM   17  C   UNK N   1      20.240  19.631   2.280  0.00  0.00     0.215 C 
BRANCH  16  18
HETATM   18  N   UNK N   1      21.531  18.669   4.183  0.00  0.00    -0.380 N 
HETATM   19  C   UNK N   1      21.467  18.467   5.604  0.00  0.00     0.147 C 
HETATM   20  H   UNK N   1      22.430  18.813   3.809  0.00  0.00     0.160 HD
ENDBRANCH  16  18
BRANCH  17  21
HETATM   21  N   UNK N   1      21.009  20.774   1.897  0.00  0.00    -0.124 N 
HETATM   22  O   UNK N   1      21.908  21.229   2.743  0.00  0.00    -0.532 OA
HETATM   23  O   UNK N   1      20.722  21.438   0.955  0.00  0.00    -0.532 OA
ENDBRANCH  17  21
ENDBRANCH  14  16
ENDBRANCH  13  14
ENDBRANCH   1  13
TORSDOF 10
ENDMDL
