MODEL 1
REMARK VINA RESULT:      -5.9      0.000      0.000
REMARK  9 active torsions:
REMARK  status: ('A' for Active; 'I' for Inactive)
REMARK    1  A    between atoms: O_1  and  C_7 
REMARK    2  A    between atoms: O_1  and  C_10 
REMARK    3  A    between atoms: O_2  and  C_4 
REMARK    4  A    between atoms: N_3  and  C_5 
REMARK    5  A    between atoms: N_3  and  C_6 
REMARK    6  A    between atoms: C_4  and  C_5 
REMARK    7  A    between atoms: C_4  and  C_7 
REMARK    8  A    between atoms: C_11  and  C_12 
REMARK    9  A    between atoms: C_12  and  C_17 
ROOT
HETATM    1  O   UNK N   1      36.315  13.764  13.120  0.00  0.00    -0.348 OA
ENDROOT
BRANCH   1   2
HETATM    2  C   UNK N   1      35.857  15.005  12.727  0.00  0.00     0.209 C 
BRANCH   2   3
HETATM    3  C   UNK N   1      35.990  15.145  11.213  0.00  0.00     0.159 C 
BRANCH   3   4
HETATM    4  O   UNK N   1      36.935  16.126  10.910  0.00  0.00    -0.392 OA
HETATM    5  H   UNK N   1      37.433  16.300  10.096  0.00  0.00     0.210 HD
ENDBRANCH   3   4
BRANCH   3   6
HETATM    6  C   UNK N   1      34.662  15.553  10.600  0.00  0.00     0.147 C 
BRANCH   6   7
HETATM    7  N   UNK N   1      34.694  16.946  10.186  0.00  0.00    -0.415 N 
HETATM    8  H   UNK N   1      34.940  17.747  10.765  0.00  0.00     0.153 HD
BRANCH   7   9
HETATM    9  C   UNK N   1      34.307  16.972   8.786  0.00  0.00     0.068 C 
HETATM   10  C   UNK N   1      34.580  18.350   8.220  0.00  0.00     0.031 C 
HETATM   11  C   UNK N   1      32.831  16.656   8.652  0.00  0.00     0.031 C 
ENDBRANCH   7   9
ENDBRANCH   6   7
ENDBRANCH   3   6
ENDBRANCH   2   3
ENDBRANCH   1   2
BRANCH   1  12
HETATM   12  C   UNK N   1      35.519  12.734  13.498  0.00  0.00     0.075 A 
HETATM   13  C   UNK N   1      35.266  12.488  14.876  0.00  0.00    -0.021 A 
HETATM   14  C   UNK N   1      34.441  11.416  15.234  0.00  0.00     0.010 A 
HETATM   15  C   UNK N   1      33.868  10.593  14.265  0.00  0.00     0.001 A 
HETATM   16  C   UNK N   1      34.113  10.833  12.914  0.00  0.00     0.003 A 
HETATM   17  C   UNK N   1      34.932  11.896  12.531  0.00  0.00     0.037 A 
BRANCH  13  18
HETATM   18  C   UNK N   1      35.815  13.320  16.015  0.00  0.00     0.067 C 
BRANCH  18  19
HETATM   19  C   UNK N   1      35.109  13.231  17.328  0.00  0.00    -0.032 C 
HETATM   20  C   UNK N   1      35.299  14.163  18.255  0.00  0.00     0.007 C 
ENDBRANCH  18  19
ENDBRANCH  13  18
ENDBRANCH   1  12
TORSDOF 9
ENDMDL
MODEL 2
REMARK VINA RESULT:      -5.8      7.346     10.095
REMARK  9 active torsions:
REMARK  status: ('A' for Active; 'I' for Inactive)
REMARK    1  A    between atoms: O_1  and  C_7 
REMARK    2  A    between atoms: O_1  and  C_10 
REMARK    3  A    between atoms: O_2  and  C_4 
REMARK    4  A    between atoms: N_3  and  C_5 
REMARK    5  A    between atoms: N_3  and  C_6 
REMARK    6  A    between atoms: C_4  and  C_5 
REMARK    7  A    between atoms: C_4  and  C_7 
REMARK    8  A    between atoms: C_11  and  C_12 
REMARK    9  A    between atoms: C_12  and  C_17 
ROOT
HETATM    1  O   UNK N   1      30.094  16.978   7.257  0.00  0.00    -0.348 OA
ENDROOT
BRANCH   1   2
HETATM    2  C   UNK N   1      29.193  17.332   8.241  0.00  0.00     0.209 C 
BRANCH   2   3
HETATM    3  C   UNK N   1      28.586  18.693   7.913  0.00  0.00     0.159 C 
BRANCH   3   4
HETATM    4  O   UNK N   1      27.524  18.958   8.779  0.00  0.00    -0.392 OA
HETATM    5  H   UNK N   1      26.620  19.264   8.601  0.00  0.00     0.210 HD
ENDBRANCH   3   4
BRANCH   3   6
HETATM    6  C   UNK N   1      28.060  18.710   6.489  0.00  0.00     0.147 C 
BRANCH   6   7
HETATM    7  N   UNK N   1      26.705  19.235   6.448  0.00  0.00    -0.415 N 
HETATM    8  H   UNK N   1      25.908  18.905   6.991  0.00  0.00     0.153 HD
BRANCH   7   9
HETATM    9  C   UNK N   1      26.709  20.321   5.484  0.00  0.00     0.068 C 
HETATM   10  C   UNK N   1      27.706  20.010   4.387  0.00  0.00     0.031 C 
HETATM   11  C   UNK N   1      27.100  21.616   6.167  0.00  0.00     0.031 C 
ENDBRANCH   7   9
ENDBRANCH   6   7
ENDBRANCH   3   6
ENDBRANCH   2   3
ENDBRANCH   1   2
BRANCH   1  12
HETATM   12  C   UNK N   1      31.428  17.216   7.313  0.00  0.00     0.075 A 
HETATM   13  C   UNK N   1      32.188  17.335   6.117  0.00  0.00    -0.021 A 
HETATM   14  C   UNK N   1      33.564  17.579   6.208  0.00  0.00     0.010 A 
HETATM   15  C   UNK N   1      34.192  17.705   7.446  0.00  0.00     0.001 A 
HETATM   16  C   UNK N   1      33.448  17.591   8.620  0.00  0.00     0.003 A 
HETATM   17  C   UNK N   1      32.076  17.348   8.555  0.00  0.00     0.037 A 
BRANCH  13  18
HETATM   18  C   UNK N   1      31.618  17.234   4.719  0.00  0.00     0.067 C 
BRANCH  18  19
HETATM   19  C   UNK N   1      32.576  17.357   3.579  0.00  0.00    -0.032 C 
HETATM   20  C   UNK N   1      32.923  16.282   2.880  0.00  0.00     0.007 C 
ENDBRANCH  18  19
ENDBRANCH  13  18
ENDBRANCH   1  12
TORSDOF 9
ENDMDL
MODEL 3
REMARK VINA RESULT:      -5.8      6.180      9.335
REMARK  9 active torsions:
REMARK  status: ('A' for Active; 'I' for Inactive)
REMARK    1  A    between atoms: O_1  and  C_7 
REMARK    2  A    between atoms: O_1  and  C_10 
REMARK    3  A    between atoms: O_2  and  C_4 
REMARK    4  A    between atoms: N_3  and  C_5 
REMARK    5  A    between atoms: N_3  and  C_6 
REMARK    6  A    between atoms: C_4  and  C_5 
REMARK    7  A    between atoms: C_4  and  C_7 
REMARK    8  A    between atoms: C_11  and  C_12 
REMARK    9  A    between atoms: C_12  and  C_17 
ROOT
HETATM    1  O   UNK N   1      30.387  17.207   7.901  0.00  0.00    -0.348 OA
ENDROOT
BRANCH   1   2
HETATM    2  C   UNK N   1      29.013  17.279   7.792  0.00  0.00     0.209 C 
BRANCH   2   3
HETATM    3  C   UNK N   1      28.507  18.527   8.510  0.00  0.00     0.159 C 
BRANCH   3   4
HETATM    4  O   UNK N   1      27.445  18.191   9.352  0.00  0.00    -0.392 OA
HETATM    5  H   UNK N   1      26.656  18.692   9.610  0.00  0.00     0.210 HD
ENDBRANCH   3   4
BRANCH   3   6
HETATM    6  C   UNK N   1      28.016  19.554   7.506  0.00  0.00     0.147 C 
BRANCH   6   7
HETATM    7  N   UNK N   1      27.088  18.950   6.565  0.00  0.00    -0.415 N 
HETATM    8  H   UNK N   1      26.720  18.000   6.598  0.00  0.00     0.153 HD
BRANCH   7   9
HETATM    9  C   UNK N   1      26.787  19.963   5.569  0.00  0.00     0.068 C 
HETATM   10  C   UNK N   1      27.689  19.766   4.368  0.00  0.00     0.031 C 
HETATM   11  C   UNK N   1      27.018  21.343   6.150  0.00  0.00     0.031 C 
ENDBRANCH   7   9
ENDBRANCH   6   7
ENDBRANCH   3   6
ENDBRANCH   2   3
ENDBRANCH   1   2
BRANCH   1  12
HETATM   12  C   UNK N   1      31.246  17.283   6.855  0.00  0.00     0.075 A 
HETATM   13  C   UNK N   1      32.642  17.446   7.082  0.00  0.00    -0.021 A 
HETATM   14  C   UNK N   1      33.504  17.522   5.981  0.00  0.00     0.010 A 
HETATM   15  C   UNK N   1      33.016  17.441   4.677  0.00  0.00     0.001 A 
HETATM   16  C   UNK N   1      31.649  17.280   4.453  0.00  0.00     0.003 A 
HETATM   17  C   UNK N   1      30.770  17.201   5.534  0.00  0.00     0.037 A 
BRANCH  13  18
HETATM   18  C   UNK N   1      33.290  17.528   8.446  0.00  0.00     0.067 C 
BRANCH  18  19
HETATM   19  C   UNK N   1      33.822  16.259   9.028  0.00  0.00    -0.032 C 
HETATM   20  C   UNK N   1      32.996  15.261   9.325  0.00  0.00     0.007 C 
ENDBRANCH  18  19
ENDBRANCH  13  18
ENDBRANCH   1  12
TORSDOF 9
ENDMDL
MODEL 4
REMARK VINA RESULT:      -5.7      3.115      4.637
REMARK  9 active torsions:
REMARK  status: ('A' for Active; 'I' for Inactive)
REMARK    1  A    between atoms: O_1  and  C_7 
REMARK    2  A    between atoms: O_1  and  C_10 
REMARK    3  A    between atoms: O_2  and  C_4 
REMARK    4  A    between atoms: N_3  and  C_5 
REMARK    5  A    between atoms: N_3  and  C_6 
REMARK    6  A    between atoms: C_4  and  C_5 
REMARK    7  A    between atoms: C_4  and  C_7 
REMARK    8  A    between atoms: C_11  and  C_12 
REMARK    9  A    between atoms: C_12  and  C_17 
ROOT
HETATM    1  O   UNK N   1      34.967  13.489  14.975  0.00  0.00    -0.348 OA
ENDROOT
BRANCH   1   2
HETATM    2  C   UNK N   1      36.028  14.063  14.307  0.00  0.00     0.209 C 
BRANCH   2   3
HETATM    3  C   UNK N   1      35.837  13.895  12.802  0.00  0.00     0.159 C 
BRANCH   3   4
HETATM    4  O   UNK N   1      34.491  13.656  12.520  0.00  0.00    -0.392 OA
HETATM    5  H   UNK N   1      33.834  13.105  12.973  0.00  0.00     0.210 HD
ENDBRANCH   3   4
BRANCH   3   6
HETATM    6  C   UNK N   1      36.649  12.716  12.294  0.00  0.00     0.147 C 
BRANCH   6   7
HETATM    7  N   UNK N   1      37.872  13.171  11.655  0.00  0.00    -0.415 N 
HETATM    8  H   UNK N   1      38.667  13.617  12.111  0.00  0.00     0.153 HD
BRANCH   7   9
HETATM    9  C   UNK N   1      37.740  12.867  10.241  0.00  0.00     0.068 C 
HETATM   10  C   UNK N   1      36.949  11.586  10.079  0.00  0.00     0.031 C 
HETATM   11  C   UNK N   1      39.111  12.694   9.619  0.00  0.00     0.031 C 
ENDBRANCH   7   9
ENDBRANCH   6   7
ENDBRANCH   3   6
ENDBRANCH   2   3
ENDBRANCH   1   2
BRANCH   1  12
HETATM   12  C   UNK N   1      35.068  12.823  16.152  0.00  0.00     0.075 A 
HETATM   13  C   UNK N   1      35.103  11.401  16.174  0.00  0.00    -0.021 A 
HETATM   14  C   UNK N   1      35.206  10.743  17.405  0.00  0.00     0.010 A 
HETATM   15  C   UNK N   1      35.275  11.458  18.600  0.00  0.00     0.001 A 
HETATM   16  C   UNK N   1      35.243  12.852  18.581  0.00  0.00     0.003 A 
HETATM   17  C   UNK N   1      35.141  13.531  17.366  0.00  0.00     0.037 A 
BRANCH  13  18
HETATM   18  C   UNK N   1      35.053  10.519  14.946  0.00  0.00     0.067 C 
BRANCH  18  19
HETATM   19  C   UNK N   1      33.808  10.564  14.121  0.00  0.00    -0.032 C 
HETATM   20  C   UNK N   1      33.847  10.244  12.833  0.00  0.00     0.007 C 
ENDBRANCH  18  19
ENDBRANCH  13  18
ENDBRANCH   1  12
TORSDOF 9
ENDMDL
MODEL 5
REMARK VINA RESULT:      -5.6      1.878      3.814
REMARK  9 active torsions:
REMARK  status: ('A' for Active; 'I' for Inactive)
REMARK    1  A    between atoms: O_1  and  C_7 
REMARK    2  A    between atoms: O_1  and  C_10 
REMARK    3  A    between atoms: O_2  and  C_4 
REMARK    4  A    between atoms: N_3  and  C_5 
REMARK    5  A    between atoms: N_3  and  C_6 
REMARK    6  A    between atoms: C_4  and  C_5 
REMARK    7  A    between atoms: C_4  and  C_7 
REMARK    8  A    between atoms: C_11  and  C_12 
REMARK    9  A    between atoms: C_12  and  C_17 
ROOT
HETATM    1  O   UNK N   1      35.069  13.454  15.368  0.00  0.00    -0.348 OA
ENDROOT
BRANCH   1   2
HETATM    2  C   UNK N   1      36.161  13.987  14.714  0.00  0.00     0.209 C 
BRANCH   2   3
HETATM    3  C   UNK N   1      36.085  13.646  13.229  0.00  0.00     0.159 C 
BRANCH   3   4
HETATM    4  O   UNK N   1      37.238  12.963  12.840  0.00  0.00    -0.392 OA
HETATM    5  H   UNK N   1      38.001  13.250  12.314  0.00  0.00     0.210 HD
ENDBRANCH   3   4
BRANCH   3   6
HETATM    6  C   UNK N   1      35.977  14.914  12.399  0.00  0.00     0.147 C 
BRANCH   6   7
HETATM    7  N   UNK N   1      36.830  14.834  11.225  0.00  0.00    -0.415 N 
HETATM    8  H   UNK N   1      37.777  14.460  11.185  0.00  0.00     0.153 HD
BRANCH   7   9
HETATM    9  C   UNK N   1      36.068  15.389  10.119  0.00  0.00     0.068 C 
HETATM   10  C   UNK N   1      35.318  16.614  10.597  0.00  0.00     0.031 C 
HETATM   11  C   UNK N   1      35.080  14.362   9.605  0.00  0.00     0.031 C 
ENDBRANCH   7   9
ENDBRANCH   6   7
ENDBRANCH   3   6
ENDBRANCH   2   3
ENDBRANCH   1   2
BRANCH   1  12
HETATM   12  C   UNK N   1      35.117  12.852  16.582  0.00  0.00     0.075 A 
HETATM   13  C   UNK N   1      35.082  11.433  16.683  0.00  0.00    -0.021 A 
HETATM   14  C   UNK N   1      35.132  10.842  17.951  0.00  0.00     0.010 A 
HETATM   15  C   UNK N   1      35.216  11.619  19.105  0.00  0.00     0.001 A 
HETATM   16  C   UNK N   1      35.252  13.009  19.008  0.00  0.00     0.003 A 
HETATM   17  C   UNK N   1      35.203  13.623  17.756  0.00  0.00     0.037 A 
BRANCH  13  18
HETATM   18  C   UNK N   1      35.011  10.486  15.505  0.00  0.00     0.067 C 
BRANCH  18  19
HETATM   19  C   UNK N   1      33.796  10.563  14.639  0.00  0.00    -0.032 C 
HETATM   20  C   UNK N   1      33.914  10.529  13.316  0.00  0.00     0.007 C 
ENDBRANCH  18  19
ENDBRANCH  13  18
ENDBRANCH   1  12
TORSDOF 9
ENDMDL
MODEL 6
REMARK VINA RESULT:      -5.5      1.535      2.987
REMARK  9 active torsions:
REMARK  status: ('A' for Active; 'I' for Inactive)
REMARK    1  A    between atoms: O_1  and  C_7 
REMARK    2  A    between atoms: O_1  and  C_10 
REMARK    3  A    between atoms: O_2  and  C_4 
REMARK    4  A    between atoms: N_3  and  C_5 
REMARK    5  A    between atoms: N_3  and  C_6 
REMARK    6  A    between atoms: C_4  and  C_5 
REMARK    7  A    between atoms: C_4  and  C_7 
REMARK    8  A    between atoms: C_11  and  C_12 
REMARK    9  A    between atoms: C_12  and  C_17 
ROOT
HETATM    1  O   UNK N   1      34.781  13.245  12.592  0.00  0.00    -0.348 OA
ENDROOT
BRANCH   1   2
HETATM    2  C   UNK N   1      35.317  13.881  11.491  0.00  0.00     0.209 C 
BRANCH   2   3
HETATM    3  C   UNK N   1      34.580  15.194  11.248  0.00  0.00     0.159 C 
BRANCH   3   4
HETATM    4  O   UNK N   1      33.209  14.955  11.142  0.00  0.00    -0.392 OA
HETATM    5  H   UNK N   1      32.593  14.505  11.742  0.00  0.00     0.210 HD
ENDBRANCH   3   4
BRANCH   3   6
HETATM    6  C   UNK N   1      35.055  15.838   9.958  0.00  0.00     0.147 C 
BRANCH   6   7
HETATM    7  N   UNK N   1      34.519  17.183   9.826  0.00  0.00    -0.415 N 
HETATM    8  H   UNK N   1      34.245  17.806  10.585  0.00  0.00     0.153 HD
BRANCH   7   9
HETATM    9  C   UNK N   1      34.450  17.466   8.403  0.00  0.00     0.068 C 
HETATM   10  C   UNK N   1      33.121  18.121   8.089  0.00  0.00     0.031 C 
HETATM   11  C   UNK N   1      34.577  16.179   7.614  0.00  0.00     0.031 C 
ENDBRANCH   7   9
ENDBRANCH   6   7
ENDBRANCH   3   6
ENDBRANCH   2   3
ENDBRANCH   1   2
BRANCH   1  12
HETATM   12  C   UNK N   1      35.305  13.295  13.841  0.00  0.00     0.075 A 
HETATM   13  C   UNK N   1      34.833  12.415  14.855  0.00  0.00    -0.021 A 
HETATM   14  C   UNK N   1      35.394  12.492  16.135  0.00  0.00     0.010 A 
HETATM   15  C   UNK N   1      36.402  13.411  16.426  0.00  0.00     0.001 A 
HETATM   16  C   UNK N   1      36.868  14.272  15.433  0.00  0.00     0.003 A 
HETATM   17  C   UNK N   1      36.325  14.215  14.149  0.00  0.00     0.037 A 
BRANCH  13  18
HETATM   18  C   UNK N   1      33.760  11.368  14.656  0.00  0.00     0.067 C 
BRANCH  18  19
HETATM   19  C   UNK N   1      34.132  10.147  13.879  0.00  0.00    -0.032 C 
HETATM   20  C   UNK N   1      35.384   9.704  13.890  0.00  0.00     0.007 C 
ENDBRANCH  18  19
ENDBRANCH  13  18
ENDBRANCH   1  12
TORSDOF 9
ENDMDL
MODEL 7
REMARK VINA RESULT:      -5.5      2.210      3.075
REMARK  9 active torsions:
REMARK  status: ('A' for Active; 'I' for Inactive)
REMARK    1  A    between atoms: O_1  and  C_7 
REMARK    2  A    between atoms: O_1  and  C_10 
REMARK    3  A    between atoms: O_2  and  C_4 
REMARK    4  A    between atoms: N_3  and  C_5 
REMARK    5  A    between atoms: N_3  and  C_6 
REMARK    6  A    between atoms: C_4  and  C_5 
REMARK    7  A    between atoms: C_4  and  C_7 
REMARK    8  A    between atoms: C_11  and  C_12 
REMARK    9  A    between atoms: C_12  and  C_17 
ROOT
HETATM    1  O   UNK N   1      34.558  13.207  13.480  0.00  0.00    -0.348 OA
ENDROOT
BRANCH   1   2
HETATM    2  C   UNK N   1      35.337  13.425  12.362  0.00  0.00     0.209 C 
BRANCH   2   3
HETATM    3  C   UNK N   1      34.975  14.771  11.741  0.00  0.00     0.159 C 
BRANCH   3   4
HETATM    4  O   UNK N   1      33.626  14.778  11.382  0.00  0.00    -0.392 OA
HETATM    5  H   UNK N   1      33.045  15.505  11.105  0.00  0.00     0.210 HD
ENDBRANCH   3   4
BRANCH   3   6
HETATM    6  C   UNK N   1      35.803  15.017  10.492  0.00  0.00     0.147 C 
BRANCH   6   7
HETATM    7  N   UNK N   1      37.222  14.993  10.803  0.00  0.00    -0.415 N 
HETATM    8  H   UNK N   1      37.674  15.406  11.618  0.00  0.00     0.153 HD
BRANCH   7   9
HETATM    9  C   UNK N   1      37.872  14.264   9.728  0.00  0.00     0.068 C 
HETATM   10  C   UNK N   1      36.815  13.679   8.814  0.00  0.00     0.031 C 
HETATM   11  C   UNK N   1      38.718  13.144  10.299  0.00  0.00     0.031 C 
ENDBRANCH   7   9
ENDBRANCH   6   7
ENDBRANCH   3   6
ENDBRANCH   2   3
ENDBRANCH   1   2
BRANCH   1  12
HETATM   12  C   UNK N   1      34.746  12.197  14.365  0.00  0.00     0.075 A 
HETATM   13  C   UNK N   1      35.316  12.457  15.643  0.00  0.00    -0.021 A 
HETATM   14  C   UNK N   1      35.499  11.393  16.533  0.00  0.00     0.010 A 
HETATM   15  C   UNK N   1      35.133  10.093  16.187  0.00  0.00     0.001 A 
HETATM   16  C   UNK N   1      34.573   9.836  14.936  0.00  0.00     0.003 A 
HETATM   17  C   UNK N   1      34.380  10.880  14.031  0.00  0.00     0.037 A 
BRANCH  13  18
HETATM   18  C   UNK N   1      35.734  13.824  16.138  0.00  0.00     0.067 C 
BRANCH  18  19
HETATM   19  C   UNK N   1      36.999  14.394  15.583  0.00  0.00    -0.032 C 
HETATM   20  C   UNK N   1      37.443  15.572  16.006  0.00  0.00     0.007 C 
ENDBRANCH  18  19
ENDBRANCH  13  18
ENDBRANCH   1  12
TORSDOF 9
ENDMDL
MODEL 8
REMARK VINA RESULT:      -5.5     18.770     21.973
REMARK  9 active torsions:
REMARK  status: ('A' for Active; 'I' for Inactive)
REMARK    1  A    between atoms: O_1  and  C_7 
REMARK    2  A    between atoms: O_1  and  C_10 
REMARK    3  A    between atoms: O_2  and  C_4 
REMARK    4  A    between atoms: N_3  and  C_5 
REMARK    5  A    between atoms: N_3  and  C_6 
REMARK    6  A    between atoms: C_4  and  C_5 
REMARK    7  A    between atoms: C_4  and  C_7 
REMARK    8  A    between atoms: C_11  and  C_12 
REMARK    9  A    between atoms: C_12  and  C_17 
ROOT
HETATM    1  O   UNK N   1      27.529  24.029  -3.332  0.00  0.00    -0.348 OA
ENDROOT
BRANCH   1   2
HETATM    2  C   UNK N   1      28.890  24.128  -3.130  0.00  0.00     0.209 C 
BRANCH   2   3
HETATM    3  C   UNK N   1      29.411  22.834  -2.512  0.00  0.00     0.159 C 
BRANCH   3   4
HETATM    4  O   UNK N   1      30.301  23.128  -1.477  0.00  0.00    -0.392 OA
HETATM    5  H   UNK N   1      30.870  22.551  -0.944  0.00  0.00     0.210 HD
ENDBRANCH   3   4
BRANCH   3   6
HETATM    6  C   UNK N   1      30.144  22.007  -3.553  0.00  0.00     0.147 C 
BRANCH   6   7
HETATM    7  N   UNK N   1      29.826  22.469  -4.894  0.00  0.00    -0.415 N 
HETATM    8  H   UNK N   1      29.249  23.272  -5.140  0.00  0.00     0.153 HD
BRANCH   7   9
HETATM    9  C   UNK N   1      30.492  21.564  -5.815  0.00  0.00     0.068 C 
HETATM   10  C   UNK N   1      29.462  20.946  -6.738  0.00  0.00     0.031 C 
HETATM   11  C   UNK N   1      31.196  20.467  -5.042  0.00  0.00     0.031 C 
ENDBRANCH   7   9
ENDBRANCH   6   7
ENDBRANCH   3   6
ENDBRANCH   2   3
ENDBRANCH   1   2
BRANCH   1  12
HETATM   12  C   UNK N   1      26.786  24.930  -4.022  0.00  0.00     0.075 A 
HETATM   13  C   UNK N   1      26.272  24.604  -5.308  0.00  0.00    -0.021 A 
HETATM   14  C   UNK N   1      25.509  25.555  -5.995  0.00  0.00     0.010 A 
HETATM   15  C   UNK N   1      25.249  26.808  -5.440  0.00  0.00     0.001 A 
HETATM   16  C   UNK N   1      25.750  27.128  -4.179  0.00  0.00     0.003 A 
HETATM   17  C   UNK N   1      26.513  26.196  -3.473  0.00  0.00     0.037 A 
BRANCH  13  18
HETATM   18  C   UNK N   1      26.472  23.276  -6.005  0.00  0.00     0.067 C 
BRANCH  18  19
HETATM   19  C   UNK N   1      25.598  22.983  -7.182  0.00  0.00    -0.032 C 
HETATM   20  C   UNK N   1      25.437  21.733  -7.600  0.00  0.00     0.007 C 
ENDBRANCH  18  19
ENDBRANCH  13  18
ENDBRANCH   1  12
TORSDOF 9
ENDMDL
MODEL 9
REMARK VINA RESULT:      -5.4     20.272     23.172
REMARK  9 active torsions:
REMARK  status: ('A' for Active; 'I' for Inactive)
REMARK    1  A    between atoms: O_1  and  C_7 
REMARK    2  A    between atoms: O_1  and  C_10 
REMARK    3  A    between atoms: O_2  and  C_4 
REMARK    4  A    between atoms: N_3  and  C_5 
REMARK    5  A    between atoms: N_3  and  C_6 
REMARK    6  A    between atoms: C_4  and  C_5 
REMARK    7  A    between atoms: C_4  and  C_7 
REMARK    8  A    between atoms: C_11  and  C_12 
REMARK    9  A    between atoms: C_12  and  C_17 
ROOT
HETATM    1  O   UNK N   1      25.504  24.359  -6.405  0.00  0.00    -0.348 OA
ENDROOT
BRANCH   1   2
HETATM    2  C   UNK N   1      25.564  24.445  -7.781  0.00  0.00     0.209 C 
BRANCH   2   3
HETATM    3  C   UNK N   1      25.527  23.044  -8.384  0.00  0.00     0.159 C 
BRANCH   3   4
HETATM    4  O   UNK N   1      24.221  22.554  -8.363  0.00  0.00    -0.392 OA
HETATM    5  H   UNK N   1      23.868  21.695  -8.080  0.00  0.00     0.210 HD
ENDBRANCH   3   4
BRANCH   3   6
HETATM    6  C   UNK N   1      26.406  22.100  -7.582  0.00  0.00     0.147 C 
BRANCH   6   7
HETATM    7  N   UNK N   1      27.811  22.340  -7.866  0.00  0.00    -0.415 N 
HETATM    8  H   UNK N   1      28.252  22.361  -8.785  0.00  0.00     0.153 HD
BRANCH   7   9
HETATM    9  C   UNK N   1      28.464  22.545  -6.585  0.00  0.00     0.068 C 
HETATM   10  C   UNK N   1      29.107  23.917  -6.567  0.00  0.00     0.031 C 
HETATM   11  C   UNK N   1      29.529  21.488  -6.372  0.00  0.00     0.031 C 
ENDBRANCH   7   9
ENDBRANCH   6   7
ENDBRANCH   3   6
ENDBRANCH   2   3
ENDBRANCH   1   2
BRANCH   1  12
HETATM   12  C   UNK N   1      25.625  25.414  -5.562  0.00  0.00     0.075 A 
HETATM   13  C   UNK N   1      26.194  25.240  -4.269  0.00  0.00    -0.021 A 
HETATM   14  C   UNK N   1      26.303  26.349  -3.421  0.00  0.00     0.010 A 
HETATM   15  C   UNK N   1      25.867  27.610  -3.825  0.00  0.00     0.001 A 
HETATM   16  C   UNK N   1      25.311  27.783  -5.092  0.00  0.00     0.003 A 
HETATM   17  C   UNK N   1      25.191  26.694  -5.956  0.00  0.00     0.037 A 
BRANCH  13  18
HETATM   18  C   UNK N   1      26.717  23.929  -3.727  0.00  0.00     0.067 C 
BRANCH  18  19
HETATM   19  C   UNK N   1      27.790  23.998  -2.689  0.00  0.00    -0.032 C 
HETATM   20  C   UNK N   1      28.954  23.390  -2.889  0.00  0.00     0.007 C 
ENDBRANCH  18  19
ENDBRANCH  13  18
ENDBRANCH   1  12
TORSDOF 9
ENDMDL
