REMARK  9 active torsions:
REMARK  status: ('A' for Active; 'I' for Inactive)
REMARK    1  A    between atoms: C_6  and  O_1 
REMARK    2  A    between atoms: O_2  and  C_18 
REMARK    3  A    between atoms: O_3  and  C_21 
REMARK    4  A    between atoms: C_5  and  N_4 
REMARK    5  A    between atoms: N_4  and  C_7 
REMARK    6  A    between atoms: C_5  and  C_6 
REMARK    7  A    between atoms: C_6  and  C_9 
REMARK    8  A    between atoms: C_7  and  C_10 
REMARK    9  A    between atoms: C_10  and  C_11 
ROOT
HETATM    1  C   UNK N   1       2.934   0.565   0.550  0.00  0.00     0.105 C 
HETATM    2  C   UNK N   1       4.334  -0.005   0.708  0.00  0.00     0.035 C 
ENDROOT
BRANCH   1   3
HETATM    3  N   UNK N   1       2.694   0.943  -0.837  0.00  0.00    -0.414 N 
HETATM    4  H   UNK N   1       2.846   0.364  -1.663  0.00  0.00     0.153 HD
BRANCH   3   5
HETATM    5  C   UNK N   1       2.194   2.312  -0.810  0.00  0.00     0.118 C 
BRANCH   5   6
HETATM    6  C   UNK N   1       3.110   3.262  -1.580  0.00  0.00     0.057 C 
BRANCH   6   7
HETATM    7  C   UNK N   1       4.410   3.497  -0.878  0.00  0.00    -0.057 A 
HETATM    8  C   UNK N   1       4.662   4.733  -0.272  0.00  0.00     0.010 A 
HETATM    9  C   UNK N   1       5.878   4.959   0.383  0.00  0.00     0.037 A 
HETATM   10  C   UNK N   1       6.846   3.951   0.428  0.00  0.00     0.065 A 
HETATM   11  C   UNK N   1       6.603   2.721  -0.189  0.00  0.00     0.037 A 
HETATM   12  C   UNK N   1       5.389   2.496  -0.844  0.00  0.00     0.010 A 
BRANCH  10  13
HETATM   13  O   UNK N   1       8.010   4.164   1.062  0.00  0.00    -0.361 OA
HETATM   14  H   UNK N   1       8.546   3.535   1.504  0.00  0.00     0.217 HD
ENDBRANCH  10  13
ENDBRANCH   6   7
ENDBRANCH   5   6
ENDBRANCH   3   5
ENDBRANCH   1   3
BRANCH   1  15
HETATM   15  C   UNK N   1       1.835  -0.360   1.107  0.00  0.00     0.173 C 
BRANCH  15  16
HETATM   16  O   UNK N   1       0.580   0.225   0.911  0.00  0.00    -0.389 OA
HETATM   17  H   UNK N   1       0.496   1.182   0.776  0.00  0.00     0.210 HD
ENDBRANCH  15  16
BRANCH  15  18
HETATM   18  C   UNK N   1       1.872  -1.782   0.601  0.00  0.00    -0.028 A 
HETATM   19  C   UNK N   1       2.919  -2.630   0.994  0.00  0.00     0.012 A 
HETATM   20  C   UNK N   1       2.948  -3.962   0.579  0.00  0.00     0.037 A 
HETATM   21  C   UNK N   1       1.928  -4.464  -0.233  0.00  0.00     0.065 A 
HETATM   22  C   UNK N   1       0.876  -3.629  -0.626  0.00  0.00     0.037 A 
HETATM   23  C   UNK N   1       0.843  -2.296  -0.206  0.00  0.00     0.012 A 
BRANCH  21  24
HETATM   24  O   UNK N   1       1.956  -5.744  -0.630  0.00  0.00    -0.361 OA
HETATM   25  H   UNK N   1       1.191  -6.208  -0.908  0.00  0.00     0.217 HD
ENDBRANCH  21  24
ENDBRANCH  15  18
ENDBRANCH   1  15
TORSDOF 9
