MODEL 1
REMARK VINA RESULT:      -6.3      0.000      0.000
REMARK  9 active torsions:
REMARK  status: ('A' for Active; 'I' for Inactive)
REMARK    1  A    between atoms: C_6  and  O_1 
REMARK    2  A    between atoms: O_2  and  C_18 
REMARK    3  A    between atoms: O_3  and  C_21 
REMARK    4  A    between atoms: C_5  and  N_4 
REMARK    5  A    between atoms: N_4  and  C_7 
REMARK    6  A    between atoms: C_5  and  C_6 
REMARK    7  A    between atoms: C_6  and  C_9 
REMARK    8  A    between atoms: C_7  and  C_10 
REMARK    9  A    between atoms: C_10  and  C_11 
ROOT
HETATM    1  C   UNK N   1      27.298  23.522  -6.168  0.00  0.00     0.105 C 
HETATM    2  C   UNK N   1      25.816  23.208  -6.049  0.00  0.00     0.035 C 
ENDROOT
BRANCH   1   3
HETATM    3  N   UNK N   1      27.566  24.240  -7.407  0.00  0.00    -0.414 N 
HETATM    4  H   UNK N   1      28.467  24.334  -7.877  0.00  0.00     0.153 HD
BRANCH   3   5
HETATM    5  C   UNK N   1      26.292  24.799  -7.843  0.00  0.00     0.118 C 
BRANCH   5   6
HETATM    6  C   UNK N   1      26.389  26.305  -8.081  0.00  0.00     0.057 C 
BRANCH   6   7
HETATM    7  C   UNK N   1      26.276  27.093  -6.814  0.00  0.00    -0.057 A 
HETATM    8  C   UNK N   1      27.299  27.974  -6.446  0.00  0.00     0.010 A 
HETATM    9  C   UNK N   1      27.199  28.710  -5.260  0.00  0.00     0.037 A 
HETATM   10  C   UNK N   1      26.079  28.561  -4.437  0.00  0.00     0.065 A 
HETATM   11  C   UNK N   1      25.062  27.672  -4.794  0.00  0.00     0.037 A 
HETATM   12  C   UNK N   1      25.163  26.936  -5.978  0.00  0.00     0.010 A 
BRANCH  10  13
HETATM   13  O   UNK N   1      25.979  29.272  -3.302  0.00  0.00    -0.361 OA
HETATM   14  H   UNK N   1      26.436  29.133  -2.496  0.00  0.00     0.217 HD
ENDBRANCH  10  13
ENDBRANCH   6   7
ENDBRANCH   5   6
ENDBRANCH   3   5
ENDBRANCH   1   3
BRANCH   1  15
HETATM   15  C   UNK N   1      27.866  24.246  -4.933  0.00  0.00     0.173 C 
BRANCH  15  16
HETATM   16  O   UNK N   1      26.831  24.546  -4.042  0.00  0.00    -0.389 OA
HETATM   17  H   UNK N   1      26.125  23.904  -3.869  0.00  0.00     0.210 HD
ENDBRANCH  15  16
BRANCH  15  18
HETATM   18  C   UNK N   1      29.009  23.541  -4.242  0.00  0.00    -0.028 A 
HETATM   19  C   UNK N   1      29.114  23.599  -2.843  0.00  0.00     0.012 A 
HETATM   20  C   UNK N   1      30.133  22.915  -2.179  0.00  0.00     0.037 A 
HETATM   21  C   UNK N   1      31.059  22.162  -2.905  0.00  0.00     0.065 A 
HETATM   22  C   UNK N   1      30.960  22.092  -4.299  0.00  0.00     0.037 A 
HETATM   23  C   UNK N   1      29.936  22.772  -4.965  0.00  0.00     0.012 A 
BRANCH  21  24
HETATM   24  O   UNK N   1      32.036  21.504  -2.266  0.00  0.00    -0.361 OA
HETATM   25  H   UNK N   1      32.896  21.858  -2.149  0.00  0.00     0.217 HD
ENDBRANCH  21  24
ENDBRANCH  15  18
ENDBRANCH   1  15
TORSDOF 9
ENDMDL
MODEL 2
REMARK VINA RESULT:      -6.3     12.172     14.602
REMARK  9 active torsions:
REMARK  status: ('A' for Active; 'I' for Inactive)
REMARK    1  A    between atoms: C_6  and  O_1 
REMARK    2  A    between atoms: O_2  and  C_18 
REMARK    3  A    between atoms: O_3  and  C_21 
REMARK    4  A    between atoms: C_5  and  N_4 
REMARK    5  A    between atoms: N_4  and  C_7 
REMARK    6  A    between atoms: C_5  and  C_6 
REMARK    7  A    between atoms: C_6  and  C_9 
REMARK    8  A    between atoms: C_7  and  C_10 
REMARK    9  A    between atoms: C_10  and  C_11 
ROOT
HETATM    1  C   UNK N   1      33.091  17.023   8.317  0.00  0.00     0.105 C 
HETATM    2  C   UNK N   1      34.208  16.832   9.329  0.00  0.00     0.035 C 
ENDROOT
BRANCH   1   3
HETATM    3  N   UNK N   1      31.903  17.561   8.968  0.00  0.00    -0.414 N 
HETATM    4  H   UNK N   1      31.867  18.341   9.625  0.00  0.00     0.153 HD
BRANCH   3   5
HETATM    5  C   UNK N   1      30.778  16.765   8.495  0.00  0.00     0.118 C 
BRANCH   5   6
HETATM    6  C   UNK N   1      29.458  17.524   8.620  0.00  0.00     0.057 C 
BRANCH   6   7
HETATM    7  C   UNK N   1      29.001  18.096   7.316  0.00  0.00    -0.057 A 
HETATM    8  C   UNK N   1      29.483  17.564   6.114  0.00  0.00     0.010 A 
HETATM    9  C   UNK N   1      29.062  18.098   4.891  0.00  0.00     0.037 A 
HETATM   10  C   UNK N   1      28.162  19.169   4.868  0.00  0.00     0.065 A 
HETATM   11  C   UNK N   1      27.691  19.711   6.066  0.00  0.00     0.037 A 
HETATM   12  C   UNK N   1      28.113  19.178   7.288  0.00  0.00     0.010 A 
BRANCH  10  13
HETATM   13  O   UNK N   1      27.752  19.677   3.695  0.00  0.00    -0.361 OA
HETATM   14  H   UNK N   1      26.900  20.000   3.477  0.00  0.00     0.217 HD
ENDBRANCH  10  13
ENDBRANCH   6   7
ENDBRANCH   5   6
ENDBRANCH   3   5
ENDBRANCH   1   3
BRANCH   1  15
HETATM   15  C   UNK N   1      33.517  17.853   7.091  0.00  0.00     0.173 C 
BRANCH  15  16
HETATM   16  O   UNK N   1      34.744  18.475   7.344  0.00  0.00    -0.389 OA
HETATM   17  H   UNK N   1      34.801  19.229   7.951  0.00  0.00     0.210 HD
ENDBRANCH  15  16
BRANCH  15  18
HETATM   18  C   UNK N   1      33.531  17.105   5.780  0.00  0.00    -0.028 A 
HETATM   19  C   UNK N   1      34.166  15.856   5.701  0.00  0.00     0.012 A 
HETATM   20  C   UNK N   1      34.150  15.124   4.514  0.00  0.00     0.037 A 
HETATM   21  C   UNK N   1      33.495  15.631   3.388  0.00  0.00     0.065 A 
HETATM   22  C   UNK N   1      32.853  16.873   3.457  0.00  0.00     0.037 A 
HETATM   23  C   UNK N   1      32.864  17.605   4.648  0.00  0.00     0.012 A 
BRANCH  21  24
HETATM   24  O   UNK N   1      33.478  14.927   2.248  0.00  0.00    -0.361 OA
HETATM   25  H   UNK N   1      33.977  14.143   2.127  0.00  0.00     0.217 HD
ENDBRANCH  21  24
ENDBRANCH  15  18
ENDBRANCH   1  15
TORSDOF 9
ENDMDL
MODEL 3
REMARK VINA RESULT:      -6.3     13.022     15.063
REMARK  9 active torsions:
REMARK  status: ('A' for Active; 'I' for Inactive)
REMARK    1  A    between atoms: C_6  and  O_1 
REMARK    2  A    between atoms: O_2  and  C_18 
REMARK    3  A    between atoms: O_3  and  C_21 
REMARK    4  A    between atoms: C_5  and  N_4 
REMARK    5  A    between atoms: N_4  and  C_7 
REMARK    6  A    between atoms: C_5  and  C_6 
REMARK    7  A    between atoms: C_6  and  C_9 
REMARK    8  A    between atoms: C_7  and  C_10 
REMARK    9  A    between atoms: C_10  and  C_11 
ROOT
HETATM    1  C   UNK N   1      33.104  17.023   8.314  0.00  0.00     0.105 C 
HETATM    2  C   UNK N   1      34.220  16.820   9.325  0.00  0.00     0.035 C 
ENDROOT
BRANCH   1   3
HETATM    3  N   UNK N   1      31.922  17.571   8.966  0.00  0.00    -0.414 N 
HETATM    4  H   UNK N   1      31.890  18.362   9.609  0.00  0.00     0.153 HD
BRANCH   3   5
HETATM    5  C   UNK N   1      30.793  16.765   8.517  0.00  0.00     0.118 C 
BRANCH   5   6
HETATM    6  C   UNK N   1      29.931  17.516   7.503  0.00  0.00     0.057 C 
BRANCH   6   7
HETATM    7  C   UNK N   1      29.847  16.808   6.188  0.00  0.00    -0.057 A 
HETATM    8  C   UNK N   1      29.331  17.473   5.070  0.00  0.00     0.010 A 
HETATM    9  C   UNK N   1      29.247  16.814   3.838  0.00  0.00     0.037 A 
HETATM   10  C   UNK N   1      29.674  15.488   3.724  0.00  0.00     0.065 A 
HETATM   11  C   UNK N   1      30.177  14.817   4.842  0.00  0.00     0.037 A 
HETATM   12  C   UNK N   1      30.259  15.475   6.073  0.00  0.00     0.010 A 
BRANCH  10  13
HETATM   13  O   UNK N   1      29.601  14.857   2.541  0.00  0.00    -0.361 OA
HETATM   14  H   UNK N   1      30.298  14.456   2.060  0.00  0.00     0.217 HD
ENDBRANCH  10  13
ENDBRANCH   6   7
ENDBRANCH   5   6
ENDBRANCH   3   5
ENDBRANCH   1   3
BRANCH   1  15
HETATM   15  C   UNK N   1      33.538  17.851   7.089  0.00  0.00     0.173 C 
BRANCH  15  16
HETATM   16  O   UNK N   1      34.774  18.455   7.339  0.00  0.00    -0.389 OA
HETATM   17  H   UNK N   1      34.881  19.075   8.078  0.00  0.00     0.210 HD
ENDBRANCH  15  16
BRANCH  15  18
HETATM   18  C   UNK N   1      33.538  17.106   5.775  0.00  0.00    -0.028 A 
HETATM   19  C   UNK N   1      34.018  15.788   5.726  0.00  0.00     0.012 A 
HETATM   20  C   UNK N   1      33.982  15.063   4.534  0.00  0.00     0.037 A 
HETATM   21  C   UNK N   1      33.463  15.647   3.376  0.00  0.00     0.065 A 
HETATM   22  C   UNK N   1      32.977  16.958   3.415  0.00  0.00     0.037 A 
HETATM   23  C   UNK N   1      33.007  17.683   4.610  0.00  0.00     0.012 A 
BRANCH  21  24
HETATM   24  O   UNK N   1      33.428  14.949   2.232  0.00  0.00    -0.361 OA
HETATM   25  H   UNK N   1      33.149  15.319   1.418  0.00  0.00     0.217 HD
ENDBRANCH  21  24
ENDBRANCH  15  18
ENDBRANCH   1  15
TORSDOF 9
ENDMDL
MODEL 4
REMARK VINA RESULT:      -6.1      1.858      2.500
REMARK  9 active torsions:
REMARK  status: ('A' for Active; 'I' for Inactive)
REMARK    1  A    between atoms: C_6  and  O_1 
REMARK    2  A    between atoms: O_2  and  C_18 
REMARK    3  A    between atoms: O_3  and  C_21 
REMARK    4  A    between atoms: C_5  and  N_4 
REMARK    5  A    between atoms: N_4  and  C_7 
REMARK    6  A    between atoms: C_5  and  C_6 
REMARK    7  A    between atoms: C_6  and  C_9 
REMARK    8  A    between atoms: C_7  and  C_10 
REMARK    9  A    between atoms: C_10  and  C_11 
ROOT
HETATM    1  C   UNK N   1      28.226  23.484  -7.409  0.00  0.00     0.105 C 
HETATM    2  C   UNK N   1      28.272  23.996  -8.839  0.00  0.00     0.035 C 
ENDROOT
BRANCH   1   3
HETATM    3  N   UNK N   1      27.050  22.646  -7.208  0.00  0.00    -0.414 N 
HETATM    4  H   UNK N   1      26.992  21.635  -7.334  0.00  0.00     0.153 HD
BRANCH   3   5
HETATM    5  C   UNK N   1      25.975  23.538  -6.793  0.00  0.00     0.118 C 
BRANCH   5   6
HETATM    6  C   UNK N   1      25.948  23.720  -5.276  0.00  0.00     0.057 C 
BRANCH   6   7
HETATM    7  C   UNK N   1      25.870  25.159  -4.875  0.00  0.00    -0.057 A 
HETATM    8  C   UNK N   1      25.223  26.081  -5.705  0.00  0.00     0.010 A 
HETATM    9  C   UNK N   1      25.151  27.429  -5.336  0.00  0.00     0.037 A 
HETATM   10  C   UNK N   1      25.730  27.858  -4.138  0.00  0.00     0.065 A 
HETATM   11  C   UNK N   1      26.389  26.942  -3.313  0.00  0.00     0.037 A 
HETATM   12  C   UNK N   1      26.462  25.596  -3.683  0.00  0.00     0.010 A 
BRANCH  10  13
HETATM   13  O   UNK N   1      25.655  29.149  -3.778  0.00  0.00    -0.361 OA
HETATM   14  H   UNK N   1      24.889  29.685  -3.719  0.00  0.00     0.217 HD
ENDBRANCH  10  13
ENDBRANCH   6   7
ENDBRANCH   5   6
ENDBRANCH   3   5
ENDBRANCH   1   3
BRANCH   1  15
HETATM   15  C   UNK N   1      29.528  22.787  -6.970  0.00  0.00     0.173 C 
BRANCH  15  16
HETATM   16  O   UNK N   1      30.602  23.278  -7.719  0.00  0.00    -0.389 OA
HETATM   17  H   UNK N   1      30.519  23.410  -8.676  0.00  0.00     0.210 HD
ENDBRANCH  15  16
BRANCH  15  18
HETATM   18  C   UNK N   1      29.815  22.831  -5.489  0.00  0.00    -0.028 A 
HETATM   19  C   UNK N   1      29.672  24.040  -4.791  0.00  0.00     0.012 A 
HETATM   20  C   UNK N   1      29.884  24.094  -3.413  0.00  0.00     0.037 A 
HETATM   21  C   UNK N   1      30.239  22.938  -2.714  0.00  0.00     0.065 A 
HETATM   22  C   UNK N   1      30.378  21.726  -3.398  0.00  0.00     0.037 A 
HETATM   23  C   UNK N   1      30.161  21.669  -4.778  0.00  0.00     0.012 A 
BRANCH  21  24
HETATM   24  O   UNK N   1      30.441  22.991  -1.389  0.00  0.00    -0.361 OA
HETATM   25  H   UNK N   1      31.291  23.084  -1.007  0.00  0.00     0.217 HD
ENDBRANCH  21  24
ENDBRANCH  15  18
ENDBRANCH   1  15
TORSDOF 9
ENDMDL
MODEL 5
REMARK VINA RESULT:      -6.1     12.097     14.333
REMARK  9 active torsions:
REMARK  status: ('A' for Active; 'I' for Inactive)
REMARK    1  A    between atoms: C_6  and  O_1 
REMARK    2  A    between atoms: O_2  and  C_18 
REMARK    3  A    between atoms: O_3  and  C_21 
REMARK    4  A    between atoms: C_5  and  N_4 
REMARK    5  A    between atoms: N_4  and  C_7 
REMARK    6  A    between atoms: C_5  and  C_6 
REMARK    7  A    between atoms: C_6  and  C_9 
REMARK    8  A    between atoms: C_7  and  C_10 
REMARK    9  A    between atoms: C_10  and  C_11 
ROOT
HETATM    1  C   UNK N   1      28.967  16.345   3.308  0.00  0.00     0.105 C 
HETATM    2  C   UNK N   1      28.276  15.283   2.469  0.00  0.00     0.035 C 
ENDROOT
BRANCH   1   3
HETATM    3  N   UNK N   1      30.121  16.882   2.597  0.00  0.00    -0.414 N 
HETATM    4  H   UNK N   1      30.105  17.523   1.804  0.00  0.00     0.153 HD
BRANCH   3   5
HETATM    5  C   UNK N   1      31.300  16.321   3.244  0.00  0.00     0.118 C 
BRANCH   5   6
HETATM    6  C   UNK N   1      32.234  17.415   3.760  0.00  0.00     0.057 C 
BRANCH   6   7
HETATM    7  C   UNK N   1      32.429  17.349   5.242  0.00  0.00    -0.057 A 
HETATM    8  C   UNK N   1      33.700  17.561   5.789  0.00  0.00     0.010 A 
HETATM    9  C   UNK N   1      33.887  17.496   7.174  0.00  0.00     0.037 A 
HETATM   10  C   UNK N   1      32.806  17.214   8.014  0.00  0.00     0.065 A 
HETATM   11  C   UNK N   1      31.539  16.988   7.470  0.00  0.00     0.037 A 
HETATM   12  C   UNK N   1      31.352  17.051   6.086  0.00  0.00     0.010 A 
BRANCH  10  13
HETATM   13  O   UNK N   1      32.983  17.159   9.344  0.00  0.00    -0.361 OA
HETATM   14  H   UNK N   1      32.743  17.802   9.982  0.00  0.00     0.217 HD
ENDBRANCH  10  13
ENDBRANCH   6   7
ENDBRANCH   5   6
ENDBRANCH   3   5
ENDBRANCH   1   3
BRANCH   1  15
HETATM   15  C   UNK N   1      28.011  17.450   3.798  0.00  0.00     0.173 C 
BRANCH  15  16
HETATM   16  O   UNK N   1      26.734  17.238   3.268  0.00  0.00    -0.389 OA
HETATM   17  H   UNK N   1      26.452  17.693   2.459  0.00  0.00     0.210 HD
ENDBRANCH  15  16
BRANCH  15  18
HETATM   18  C   UNK N   1      27.968  17.648   5.294  0.00  0.00    -0.028 A 
HETATM   19  C   UNK N   1      28.100  18.941   5.825  0.00  0.00     0.012 A 
HETATM   20  C   UNK N   1      28.014  19.155   7.201  0.00  0.00     0.037 A 
HETATM   21  C   UNK N   1      27.793  18.079   8.064  0.00  0.00     0.065 A 
HETATM   22  C   UNK N   1      27.654  16.787   7.545  0.00  0.00     0.037 A 
HETATM   23  C   UNK N   1      27.734  16.572   6.166  0.00  0.00     0.012 A 
BRANCH  21  24
HETATM   24  O   UNK N   1      27.710  18.287   9.386  0.00  0.00    -0.361 OA
HETATM   25  H   UNK N   1      26.935  18.608   9.803  0.00  0.00     0.217 HD
ENDBRANCH  21  24
ENDBRANCH  15  18
ENDBRANCH   1  15
TORSDOF 9
ENDMDL
MODEL 6
REMARK VINA RESULT:      -6.0      3.135      4.419
REMARK  9 active torsions:
REMARK  status: ('A' for Active; 'I' for Inactive)
REMARK    1  A    between atoms: C_6  and  O_1 
REMARK    2  A    between atoms: O_2  and  C_18 
REMARK    3  A    between atoms: O_3  and  C_21 
REMARK    4  A    between atoms: C_5  and  N_4 
REMARK    5  A    between atoms: N_4  and  C_7 
REMARK    6  A    between atoms: C_5  and  C_6 
REMARK    7  A    between atoms: C_6  and  C_9 
REMARK    8  A    between atoms: C_7  and  C_10 
REMARK    9  A    between atoms: C_10  and  C_11 
ROOT
HETATM    1  C   UNK N   1      27.349  23.827  -7.161  0.00  0.00     0.105 C 
HETATM    2  C   UNK N   1      27.597  22.338  -7.342  0.00  0.00     0.035 C 
ENDROOT
BRANCH   1   3
HETATM    3  N   UNK N   1      27.755  24.557  -8.355  0.00  0.00    -0.414 N 
HETATM    4  H   UNK N   1      27.390  24.435  -9.300  0.00  0.00     0.153 HD
BRANCH   3   5
HETATM    5  C   UNK N   1      28.787  25.495  -7.932  0.00  0.00     0.118 C 
BRANCH   5   6
HETATM    6  C   UNK N   1      28.324  26.944  -8.074  0.00  0.00     0.057 C 
BRANCH   6   7
HETATM    7  C   UNK N   1      28.508  27.729  -6.813  0.00  0.00    -0.057 A 
HETATM    8  C   UNK N   1      27.965  29.014  -6.706  0.00  0.00     0.010 A 
HETATM    9  C   UNK N   1      28.137  29.753  -5.530  0.00  0.00     0.037 A 
HETATM   10  C   UNK N   1      28.858  29.211  -4.462  0.00  0.00     0.065 A 
HETATM   11  C   UNK N   1      29.414  27.934  -4.572  0.00  0.00     0.037 A 
HETATM   12  C   UNK N   1      29.243  27.196  -5.746  0.00  0.00     0.010 A 
BRANCH  10  13
HETATM   13  O   UNK N   1      29.018  29.916  -3.331  0.00  0.00    -0.361 OA
HETATM   14  H   UNK N   1      29.297  30.806  -3.245  0.00  0.00     0.217 HD
ENDBRANCH  10  13
ENDBRANCH   6   7
ENDBRANCH   5   6
ENDBRANCH   3   5
ENDBRANCH   1   3
BRANCH   1  15
HETATM   15  C   UNK N   1      25.905  24.155  -6.733  0.00  0.00     0.173 C 
BRANCH  15  16
HETATM   16  O   UNK N   1      25.279  22.999  -6.255  0.00  0.00    -0.389 OA
HETATM   17  H   UNK N   1      25.718  22.136  -6.320  0.00  0.00     0.210 HD
ENDBRANCH  15  16
BRANCH  15  18
HETATM   18  C   UNK N   1      25.766  25.305  -5.765  0.00  0.00    -0.028 A 
HETATM   19  C   UNK N   1      26.374  25.226  -4.503  0.00  0.00     0.012 A 
HETATM   20  C   UNK N   1      26.300  26.296  -3.611  0.00  0.00     0.037 A 
HETATM   21  C   UNK N   1      25.619  27.461  -3.971  0.00  0.00     0.065 A 
HETATM   22  C   UNK N   1      25.014  27.554  -5.229  0.00  0.00     0.037 A 
HETATM   23  C   UNK N   1      25.092  26.484  -6.126  0.00  0.00     0.012 A 
BRANCH  21  24
HETATM   24  O   UNK N   1      25.550  28.490  -3.114  0.00  0.00    -0.361 OA
HETATM   25  H   UNK N   1      25.684  29.380  -3.374  0.00  0.00     0.217 HD
ENDBRANCH  21  24
ENDBRANCH  15  18
ENDBRANCH   1  15
TORSDOF 9
ENDMDL
MODEL 7
REMARK VINA RESULT:      -5.9      2.502      5.732
REMARK  9 active torsions:
REMARK  status: ('A' for Active; 'I' for Inactive)
REMARK    1  A    between atoms: C_6  and  O_1 
REMARK    2  A    between atoms: O_2  and  C_18 
REMARK    3  A    between atoms: O_3  and  C_21 
REMARK    4  A    between atoms: C_5  and  N_4 
REMARK    5  A    between atoms: N_4  and  C_7 
REMARK    6  A    between atoms: C_5  and  C_6 
REMARK    7  A    between atoms: C_6  and  C_9 
REMARK    8  A    between atoms: C_7  and  C_10 
REMARK    9  A    between atoms: C_10  and  C_11 
ROOT
HETATM    1  C   UNK N   1      30.708  22.060  -3.596  0.00  0.00     0.105 C 
HETATM    2  C   UNK N   1      32.031  21.662  -2.961  0.00  0.00     0.035 C 
ENDROOT
BRANCH   1   3
HETATM    3  N   UNK N   1      30.110  20.919  -4.277  0.00  0.00    -0.414 N 
HETATM    4  H   UNK N   1      29.554  20.177  -3.853  0.00  0.00     0.153 HD
BRANCH   3   5
HETATM    5  C   UNK N   1      30.463  21.049  -5.685  0.00  0.00     0.118 C 
BRANCH   5   6
HETATM    6  C   UNK N   1      29.892  22.329  -6.294  0.00  0.00     0.057 C 
BRANCH   6   7
HETATM    7  C   UNK N   1      28.530  22.126  -6.878  0.00  0.00    -0.057 A 
HETATM    8  C   UNK N   1      28.318  21.109  -7.816  0.00  0.00     0.010 A 
HETATM    9  C   UNK N   1      27.046  20.917  -8.368  0.00  0.00     0.037 A 
HETATM   10  C   UNK N   1      25.986  21.745  -7.987  0.00  0.00     0.065 A 
HETATM   11  C   UNK N   1      26.198  22.770  -7.061  0.00  0.00     0.037 A 
HETATM   12  C   UNK N   1      27.468  22.962  -6.511  0.00  0.00     0.010 A 
BRANCH  10  13
HETATM   13  O   UNK N   1      24.764  21.557  -8.510  0.00  0.00    -0.361 OA
HETATM   14  H   UNK N   1      24.011  22.109  -8.422  0.00  0.00     0.217 HD
ENDBRANCH  10  13
ENDBRANCH   6   7
ENDBRANCH   5   6
ENDBRANCH   3   5
ENDBRANCH   1   3
BRANCH   1  15
HETATM   15  C   UNK N   1      29.737  22.731  -2.606  0.00  0.00     0.173 C 
BRANCH  15  16
HETATM   16  O   UNK N   1      30.421  23.090  -1.440  0.00  0.00    -0.389 OA
HETATM   17  H   UNK N   1      29.964  23.111  -0.585  0.00  0.00     0.210 HD
ENDBRANCH  15  16
BRANCH  15  18
HETATM   18  C   UNK N   1      28.945  23.889  -3.166  0.00  0.00    -0.028 A 
HETATM   19  C   UNK N   1      27.551  23.916  -3.005  0.00  0.00     0.012 A 
HETATM   20  C   UNK N   1      26.803  24.999  -3.470  0.00  0.00     0.037 A 
HETATM   21  C   UNK N   1      27.441  26.070  -4.100  0.00  0.00     0.065 A 
HETATM   22  C   UNK N   1      28.832  26.056  -4.260  0.00  0.00     0.037 A 
HETATM   23  C   UNK N   1      29.582  24.974  -3.789  0.00  0.00     0.012 A 
BRANCH  21  24
HETATM   24  O   UNK N   1      26.723  27.110  -4.545  0.00  0.00    -0.361 OA
HETATM   25  H   UNK N   1      25.786  27.122  -4.540  0.00  0.00     0.217 HD
ENDBRANCH  21  24
ENDBRANCH  15  18
ENDBRANCH   1  15
TORSDOF 9
ENDMDL
MODEL 8
REMARK VINA RESULT:      -5.8     24.447     27.324
REMARK  9 active torsions:
REMARK  status: ('A' for Active; 'I' for Inactive)
REMARK    1  A    between atoms: C_6  and  O_1 
REMARK    2  A    between atoms: O_2  and  C_18 
REMARK    3  A    between atoms: O_3  and  C_21 
REMARK    4  A    between atoms: C_5  and  N_4 
REMARK    5  A    between atoms: N_4  and  C_7 
REMARK    6  A    between atoms: C_5  and  C_6 
REMARK    7  A    between atoms: C_6  and  C_9 
REMARK    8  A    between atoms: C_7  and  C_10 
REMARK    9  A    between atoms: C_10  and  C_11 
ROOT
HETATM    1  C   UNK N   1      35.019  10.904  14.588  0.00  0.00     0.105 C 
HETATM    2  C   UNK N   1      33.766  10.433  13.867  0.00  0.00     0.035 C 
ENDROOT
BRANCH   1   3
HETATM    3  N   UNK N   1      36.094   9.935  14.422  0.00  0.00    -0.414 N 
HETATM    4  H   UNK N   1      36.716   9.843  13.619  0.00  0.00     0.153 HD
BRANCH   3   5
HETATM    5  C   UNK N   1      36.105   9.122  15.632  0.00  0.00     0.118 C 
BRANCH   5   6
HETATM    6  C   UNK N   1      36.706   9.880  16.815  0.00  0.00     0.057 C 
BRANCH   6   7
HETATM    7  C   UNK N   1      35.810   9.871  18.014  0.00  0.00    -0.057 A 
HETATM    8  C   UNK N   1      36.144  10.632  19.140  0.00  0.00     0.010 A 
HETATM    9  C   UNK N   1      35.312  10.624  20.265  0.00  0.00     0.037 A 
HETATM   10  C   UNK N   1      34.147   9.851  20.267  0.00  0.00     0.065 A 
HETATM   11  C   UNK N   1      33.819   9.078  19.150  0.00  0.00     0.037 A 
HETATM   12  C   UNK N   1      34.651   9.085  18.027  0.00  0.00     0.010 A 
BRANCH  10  13
HETATM   13  O   UNK N   1      33.344   9.848  21.343  0.00  0.00    -0.361 OA
HETATM   14  H   UNK N   1      33.313  10.476  22.038  0.00  0.00     0.217 HD
ENDBRANCH  10  13
ENDBRANCH   6   7
ENDBRANCH   5   6
ENDBRANCH   3   5
ENDBRANCH   1   3
BRANCH   1  15
HETATM   15  C   UNK N   1      35.446  12.331  14.194  0.00  0.00     0.173 C 
BRANCH  15  16
HETATM   16  O   UNK N   1      34.487  12.896  13.348  0.00  0.00    -0.389 OA
HETATM   17  H   UNK N   1      34.645  13.753  12.923  0.00  0.00     0.210 HD
ENDBRANCH  15  16
BRANCH  15  18
HETATM   18  C   UNK N   1      35.779  13.246  15.348  0.00  0.00    -0.028 A 
HETATM   19  C   UNK N   1      36.774  14.224  15.193  0.00  0.00     0.012 A 
HETATM   20  C   UNK N   1      37.064  15.112  16.228  0.00  0.00     0.037 A 
HETATM   21  C   UNK N   1      36.361  15.036  17.433  0.00  0.00     0.065 A 
HETATM   22  C   UNK N   1      35.363  14.069  17.597  0.00  0.00     0.037 A 
HETATM   23  C   UNK N   1      35.067  13.182  16.558  0.00  0.00     0.012 A 
BRANCH  21  24
HETATM   24  O   UNK N   1      36.640  15.891  18.427  0.00  0.00    -0.361 OA
HETATM   25  H   UNK N   1      36.816  15.613  19.304  0.00  0.00     0.217 HD
ENDBRANCH  21  24
ENDBRANCH  15  18
ENDBRANCH   1  15
TORSDOF 9
ENDMDL
MODEL 9
REMARK VINA RESULT:      -5.8     12.836     15.573
REMARK  9 active torsions:
REMARK  status: ('A' for Active; 'I' for Inactive)
REMARK    1  A    between atoms: C_6  and  O_1 
REMARK    2  A    between atoms: O_2  and  C_18 
REMARK    3  A    between atoms: O_3  and  C_21 
REMARK    4  A    between atoms: C_5  and  N_4 
REMARK    5  A    between atoms: N_4  and  C_7 
REMARK    6  A    between atoms: C_5  and  C_6 
REMARK    7  A    between atoms: C_6  and  C_9 
REMARK    8  A    between atoms: C_7  and  C_10 
REMARK    9  A    between atoms: C_10  and  C_11 
ROOT
HETATM    1  C   UNK N   1      33.821  17.145   7.479  0.00  0.00     0.105 C 
HETATM    2  C   UNK N   1      34.402  18.359   8.184  0.00  0.00     0.035 C 
ENDROOT
BRANCH   1   3
HETATM    3  N   UNK N   1      34.868  16.171   7.199  0.00  0.00    -0.414 N 
HETATM    4  H   UNK N   1      35.871  16.295   7.340  0.00  0.00     0.153 HD
BRANCH   3   5
HETATM    5  C   UNK N   1      34.200  14.985   6.679  0.00  0.00     0.118 C 
BRANCH   5   6
HETATM    6  C   UNK N   1      34.338  14.880   5.161  0.00  0.00     0.057 C 
BRANCH   6   7
HETATM    7  C   UNK N   1      33.135  15.399   4.440  0.00  0.00    -0.057 A 
HETATM    8  C   UNK N   1      32.014  14.577   4.271  0.00  0.00     0.010 A 
HETATM    9  C   UNK N   1      30.887  15.057   3.595  0.00  0.00     0.037 A 
HETATM   10  C   UNK N   1      30.881  16.357   3.080  0.00  0.00     0.065 A 
HETATM   11  C   UNK N   1      32.004  17.175   3.234  0.00  0.00     0.037 A 
HETATM   12  C   UNK N   1      33.130  16.695   3.909  0.00  0.00     0.010 A 
BRANCH  10  13
HETATM   13  O   UNK N   1      29.798  16.821   2.437  0.00  0.00    -0.361 OA
HETATM   14  H   UNK N   1      29.440  16.519   1.625  0.00  0.00     0.217 HD
ENDBRANCH  10  13
ENDBRANCH   6   7
ENDBRANCH   5   6
ENDBRANCH   3   5
ENDBRANCH   1   3
BRANCH   1  15
HETATM   15  C   UNK N   1      32.624  16.524   8.225  0.00  0.00     0.173 C 
BRANCH  15  16
HETATM   16  O   UNK N   1      32.901  16.462   9.595  0.00  0.00    -0.389 OA
HETATM   17  H   UNK N   1      33.558  17.053   9.994  0.00  0.00     0.210 HD
ENDBRANCH  15  16
BRANCH  15  18
HETATM   18  C   UNK N   1      31.289  17.175   7.956  0.00  0.00    -0.028 A 
HETATM   19  C   UNK N   1      30.582  16.849   6.789  0.00  0.00     0.012 A 
HETATM   20  C   UNK N   1      29.324  17.400   6.542  0.00  0.00     0.037 A 
HETATM   21  C   UNK N   1      28.755  18.284   7.463  0.00  0.00     0.065 A 
HETATM   22  C   UNK N   1      29.449  18.612   8.633  0.00  0.00     0.037 A 
HETATM   23  C   UNK N   1      30.706  18.056   8.883  0.00  0.00     0.012 A 
BRANCH  21  24
HETATM   24  O   UNK N   1      27.546  18.813   7.226  0.00  0.00    -0.361 OA
HETATM   25  H   UNK N   1      26.854  18.803   7.857  0.00  0.00     0.217 HD
ENDBRANCH  21  24
ENDBRANCH  15  18
ENDBRANCH   1  15
TORSDOF 9
ENDMDL
