MODEL 1
REMARK VINA RESULT:      -4.9      0.000      0.000
REMARK WARNING: 32 MAX_TORS EXCEEDED!!!
REMARK  33 active torsions:
REMARK  status: ('A' for Active; 'I' for Inactive)
REMARK    1  A    between atoms: O_1  and  C_23 
REMARK    2  A    between atoms: O_1  and  C_25 
REMARK    3  A    between atoms: O_2  and  C_24 
REMARK    4  A    between atoms: O_2  and  C_27 
REMARK    5  A    between atoms: O_3  and  C_26 
REMARK    6  A    between atoms: O_3  and  C_29 
REMARK    7  A    between atoms: O_4  and  C_28 
REMARK    8  A    between atoms: O_4  and  C_31 
REMARK    9  A    between atoms: O_5  and  C_30 
REMARK   10  A    between atoms: O_5  and  C_32 
REMARK   11  A    between atoms: O_6  and  C_33 
REMARK   12  A    between atoms: O_6  and  C_36 
REMARK   13  A    between atoms: O_7  and  C_35 
REMARK   14  A    between atoms: O_7  and  C_37 
REMARK   15  A    between atoms: O_8  and  C_34 
REMARK   16  A    between atoms: O_8  and  C_38 
REMARK   17  A    between atoms: O_9  and  C_39 
REMARK   18  A    between atoms: O_9  and  C_40 
REMARK   19  A    between atoms: O_11  and  C_41 
REMARK   20  A    between atoms: N_12  and  C_14 
REMARK   21  A    between atoms: N_12  and  C_16 
REMARK   22  A    between atoms: C_13  and  C_14 
REMARK   23  A    between atoms: C_13  and  C_15 
REMARK   24  A    between atoms: C_20  and  C_35 
REMARK   25  A    between atoms: C_23  and  C_24 
REMARK   26  A    between atoms: C_25  and  C_26 
REMARK   27  A    between atoms: C_27  and  C_28 
REMARK   28  A    between atoms: C_29  and  C_30 
REMARK   29  A    between atoms: C_31  and  C_34 
REMARK   30  A    between atoms: C_32  and  C_33 
REMARK   31  A    between atoms: C_36  and  C_37 
REMARK   32  A    between atoms: C_38  and  C_39 
REMARK   33  A    between atoms: C_40  and  C_41 
ROOT
HETATM    1  C   UNK N   1      27.661  16.836   4.832  0.00  0.00     0.193 C 
ENDROOT
BRANCH   1   2
HETATM    2  O   UNK N   1      28.988  16.550   4.488  0.00  0.00    -0.387 OA
BRANCH   2   3
HETATM    3  C   UNK N   1      29.586  16.082   5.663  0.00  0.00     0.193 C 
BRANCH   3   4
HETATM    4  C   UNK N   1      31.081  15.852   5.465  0.00  0.00     0.193 C 
BRANCH   4   5
HETATM    5  O   UNK N   1      31.802  16.149   6.628  0.00  0.00    -0.387 OA
BRANCH   5   6
HETATM    6  C   UNK N   1      31.150  17.232   7.221  0.00  0.00     0.194 C 
BRANCH   6   7
HETATM    7  C   UNK N   1      32.029  17.778   8.331  0.00  0.00     0.205 C 
BRANCH   7   8
HETATM    8  O   UNK N   1      33.261  18.144   7.840  0.00  0.00    -0.315 OA
BRANCH   8   9
HETATM    9  C   UNK N   1      34.455  18.067   8.498  0.00  0.00     0.293 C 
HETATM   10  O   UNK N   1      35.192  19.037   8.453  0.00  0.00    -0.259 OA
BRANCH   9  11
HETATM   11  C   UNK N   1      34.904  16.869   9.275  0.00  0.00     0.039 A 
HETATM   12  C   UNK N   1      35.306  16.945  10.618  0.00  0.00     0.020 A 
HETATM   13  C   UNK N   1      35.744  15.809  11.303  0.00  0.00     0.030 A 
HETATM   14  C   UNK N   1      35.786  14.575  10.653  0.00  0.00     0.028 A 
HETATM   15  C   UNK N   1      35.378  14.485   9.314  0.00  0.00     0.030 A 
HETATM   16  C   UNK N   1      34.941  15.621   8.634  0.00  0.00     0.020 A 
BRANCH  14  17
HETATM   17  N   UNK N   1      36.248  13.432  11.351  0.00  0.00    -0.390 N 
HETATM   18  H   UNK N   1      37.201  13.190  11.302  0.00  0.00     0.159 HD
BRANCH  17  19
HETATM   19  C   UNK N   1      35.351  12.618  12.129  0.00  0.00     0.119 C 
BRANCH  19  20
HETATM   20  C   UNK N   1      35.247  13.158  13.538  0.00  0.00     0.019 C 
BRANCH  20  21
HETATM   21  C   UNK N   1      36.600  13.020  14.201  0.00  0.00    -0.003 C 
HETATM   22  C   UNK N   1      36.814  14.163  15.170  0.00  0.00     0.005 C 
ENDBRANCH  20  21
ENDBRANCH  19  20
ENDBRANCH  17  19
ENDBRANCH  14  17
ENDBRANCH   9  11
ENDBRANCH   8   9
ENDBRANCH   7   8
ENDBRANCH   6   7
ENDBRANCH   5   6
ENDBRANCH   4   5
ENDBRANCH   3   4
ENDBRANCH   2   3
ENDBRANCH   1   2
BRANCH   1  23
HETATM   23  C   UNK N   1      26.949  17.456   3.641  0.00  0.00     0.193 C 
BRANCH  23  24
HETATM   24  O   UNK N   1      27.140  18.841   3.595  0.00  0.00    -0.387 OA
BRANCH  24  25
HETATM   25  C   UNK N   1      25.858  19.408   3.644  0.00  0.00     0.193 C 
BRANCH  25  26
HETATM   26  C   UNK N   1      25.759  20.662   2.773  0.00  0.00     0.193 C 
BRANCH  26  27
HETATM   27  O   UNK N   1      24.568  20.654   2.037  0.00  0.00    -0.387 OA
BRANCH  27  28
HETATM   28  C   UNK N   1      23.569  21.012   2.945  0.00  0.00     0.193 C 
BRANCH  28  29
HETATM   29  C   UNK N   1      22.261  20.330   2.578  0.00  0.00     0.193 C 
BRANCH  29  30
HETATM   30  O   UNK N   1      21.511  20.061   3.727  0.00  0.00    -0.387 OA
BRANCH  30  31
HETATM   31  C   UNK N   1      20.852  18.859   3.454  0.00  0.00     0.193 C 
BRANCH  31  32
HETATM   32  C   UNK N   1      20.447  18.816   1.993  0.00  0.00     0.193 C 
BRANCH  32  33
HETATM   33  O   UNK N   1      20.262  17.492   1.585  0.00  0.00    -0.387 OA
BRANCH  33  34
HETATM   34  C   UNK N   1      20.557  16.732   2.719  0.00  0.00     0.193 C 
BRANCH  34  35
HETATM   35  C   UNK N   1      21.372  15.504   2.342  0.00  0.00     0.193 C 
BRANCH  35  36
HETATM   36  O   UNK N   1      21.836  14.867   3.496  0.00  0.00    -0.387 OA
BRANCH  36  37
HETATM   37  C   UNK N   1      22.829  15.706   4.009  0.00  0.00     0.193 C 
BRANCH  37  38
HETATM   38  C   UNK N   1      22.829  15.637   5.528  0.00  0.00     0.193 C 
BRANCH  38  39
HETATM   39  O   UNK N   1      22.099  16.707   6.050  0.00  0.00    -0.387 OA
BRANCH  39  40
HETATM   40  C   UNK N   1      21.468  16.198   7.187  0.00  0.00     0.193 C 
BRANCH  40  41
HETATM   41  C   UNK N   1      20.307  15.311   6.771  0.00  0.00     0.193 C 
BRANCH  41  42
HETATM   42  O   UNK N   1      19.098  15.946   7.057  0.00  0.00    -0.394 OA
HETATM   43  C   UNK N   1      19.306  16.573   8.286  0.00  0.00     0.201 C 
ENDBRANCH  41  42
ENDBRANCH  40  41
ENDBRANCH  39  40
ENDBRANCH  38  39
ENDBRANCH  37  38
ENDBRANCH  36  37
ENDBRANCH  35  36
ENDBRANCH  34  35
ENDBRANCH  33  34
ENDBRANCH  32  33
ENDBRANCH  31  32
ENDBRANCH  30  31
ENDBRANCH  29  30
ENDBRANCH  28  29
ENDBRANCH  27  28
ENDBRANCH  26  27
ENDBRANCH  25  26
ENDBRANCH  24  25
ENDBRANCH  23  24
ENDBRANCH   1  23
TORSDOF 33
ENDMDL
MODEL 2
REMARK VINA RESULT:      -4.9      5.557      9.869
REMARK WARNING: 32 MAX_TORS EXCEEDED!!!
REMARK  33 active torsions:
REMARK  status: ('A' for Active; 'I' for Inactive)
REMARK    1  A    between atoms: O_1  and  C_23 
REMARK    2  A    between atoms: O_1  and  C_25 
REMARK    3  A    between atoms: O_2  and  C_24 
REMARK    4  A    between atoms: O_2  and  C_27 
REMARK    5  A    between atoms: O_3  and  C_26 
REMARK    6  A    between atoms: O_3  and  C_29 
REMARK    7  A    between atoms: O_4  and  C_28 
REMARK    8  A    between atoms: O_4  and  C_31 
REMARK    9  A    between atoms: O_5  and  C_30 
REMARK   10  A    between atoms: O_5  and  C_32 
REMARK   11  A    between atoms: O_6  and  C_33 
REMARK   12  A    between atoms: O_6  and  C_36 
REMARK   13  A    between atoms: O_7  and  C_35 
REMARK   14  A    between atoms: O_7  and  C_37 
REMARK   15  A    between atoms: O_8  and  C_34 
REMARK   16  A    between atoms: O_8  and  C_38 
REMARK   17  A    between atoms: O_9  and  C_39 
REMARK   18  A    between atoms: O_9  and  C_40 
REMARK   19  A    between atoms: O_11  and  C_41 
REMARK   20  A    between atoms: N_12  and  C_14 
REMARK   21  A    between atoms: N_12  and  C_16 
REMARK   22  A    between atoms: C_13  and  C_14 
REMARK   23  A    between atoms: C_13  and  C_15 
REMARK   24  A    between atoms: C_20  and  C_35 
REMARK   25  A    between atoms: C_23  and  C_24 
REMARK   26  A    between atoms: C_25  and  C_26 
REMARK   27  A    between atoms: C_27  and  C_28 
REMARK   28  A    between atoms: C_29  and  C_30 
REMARK   29  A    between atoms: C_31  and  C_34 
REMARK   30  A    between atoms: C_32  and  C_33 
REMARK   31  A    between atoms: C_36  and  C_37 
REMARK   32  A    between atoms: C_38  and  C_39 
REMARK   33  A    between atoms: C_40  and  C_41 
ROOT
HETATM    1  C   UNK N   1      20.734  15.296   8.372  0.00  0.00     0.193 C 
ENDROOT
BRANCH   1   2
HETATM    2  O   UNK N   1      19.782  15.175   7.352  0.00  0.00    -0.387 OA
BRANCH   2   3
HETATM    3  C   UNK N   1      19.841  16.379   6.641  0.00  0.00     0.193 C 
BRANCH   3   4
HETATM    4  C   UNK N   1      20.894  17.313   7.229  0.00  0.00     0.193 C 
BRANCH   4   5
HETATM    5  O   UNK N   1      20.957  18.521   6.525  0.00  0.00    -0.387 OA
BRANCH   5   6
HETATM    6  C   UNK N   1      21.784  18.284   5.425  0.00  0.00     0.194 C 
BRANCH   6   7
HETATM    7  C   UNK N   1      21.333  19.172   4.279  0.00  0.00     0.205 C 
BRANCH   7   8
HETATM    8  O   UNK N   1      22.280  19.198   3.282  0.00  0.00    -0.315 OA
BRANCH   8   9
HETATM    9  C   UNK N   1      23.368  20.019   3.214  0.00  0.00     0.293 C 
HETATM   10  O   UNK N   1      23.182  21.184   2.905  0.00  0.00    -0.259 OA
BRANCH   9  11
HETATM   11  C   UNK N   1      24.769  19.577   3.505  0.00  0.00     0.039 A 
HETATM   12  C   UNK N   1      25.840  20.477   3.609  0.00  0.00     0.020 A 
HETATM   13  C   UNK N   1      27.139  20.024   3.855  0.00  0.00     0.030 A 
HETATM   14  C   UNK N   1      27.385  18.658   4.002  0.00  0.00     0.028 A 
HETATM   15  C   UNK N   1      26.321  17.750   3.910  0.00  0.00     0.030 A 
HETATM   16  C   UNK N   1      25.025  18.207   3.664  0.00  0.00     0.020 A 
BRANCH  14  17
HETATM   17  N   UNK N   1      28.708  18.207   4.236  0.00  0.00    -0.390 N 
HETATM   18  H   UNK N   1      29.442  18.862   4.265  0.00  0.00     0.159 HD
BRANCH  17  19
HETATM   19  C   UNK N   1      28.997  16.811   4.432  0.00  0.00     0.119 C 
BRANCH  19  20
HETATM   20  C   UNK N   1      29.646  16.597   5.782  0.00  0.00     0.019 C 
BRANCH  20  21
HETATM   21  C   UNK N   1      29.219  17.724   6.698  0.00  0.00    -0.003 C 
HETATM   22  C   UNK N   1      28.152  17.232   7.652  0.00  0.00     0.005 C 
ENDBRANCH  20  21
ENDBRANCH  19  20
ENDBRANCH  17  19
ENDBRANCH  14  17
ENDBRANCH   9  11
ENDBRANCH   8   9
ENDBRANCH   7   8
ENDBRANCH   6   7
ENDBRANCH   5   6
ENDBRANCH   4   5
ENDBRANCH   3   4
ENDBRANCH   2   3
ENDBRANCH   1   2
BRANCH   1  23
HETATM   23  C   UNK N   1      20.372  14.365   9.517  0.00  0.00     0.193 C 
BRANCH  23  24
HETATM   24  O   UNK N   1      20.555  13.024   9.164  0.00  0.00    -0.387 OA
BRANCH  24  25
HETATM   25  C   UNK N   1      21.527  12.524  10.044  0.00  0.00     0.193 C 
BRANCH  25  26
HETATM   26  C   UNK N   1      22.864  12.291   9.339  0.00  0.00     0.193 C 
BRANCH  26  27
HETATM   27  O   UNK N   1      23.916  12.323  10.262  0.00  0.00    -0.387 OA
BRANCH  27  28
HETATM   28  C   UNK N   1      24.893  13.136   9.682  0.00  0.00     0.193 C 
BRANCH  28  29
HETATM   29  C   UNK N   1      24.497  13.490   8.257  0.00  0.00     0.193 C 
BRANCH  29  30
HETATM   30  O   UNK N   1      25.581  14.051   7.574  0.00  0.00    -0.387 OA
BRANCH  30  31
HETATM   31  C   UNK N   1      25.030  15.078   6.804  0.00  0.00     0.193 C 
BRANCH  31  32
HETATM   32  C   UNK N   1      23.704  14.626   6.219  0.00  0.00     0.193 C 
BRANCH  32  33
HETATM   33  O   UNK N   1      23.507  15.218   4.968  0.00  0.00    -0.387 OA
BRANCH  33  34
HETATM   34  C   UNK N   1      22.323  14.649   4.495  0.00  0.00     0.193 C 
BRANCH  34  35
HETATM   35  C   UNK N   1      22.517  13.167   4.210  0.00  0.00     0.193 C 
BRANCH  35  36
HETATM   36  O   UNK N   1      23.274  13.000   3.048  0.00  0.00    -0.387 OA
BRANCH  36  37
HETATM   37  C   UNK N   1      24.309  12.130   3.402  0.00  0.00     0.193 C 
BRANCH  37  38
HETATM   38  C   UNK N   1      24.290  10.908   2.497  0.00  0.00     0.193 C 
BRANCH  38  39
HETATM   39  O   UNK N   1      25.465  10.859   1.744  0.00  0.00    -0.387 OA
BRANCH  39  40
HETATM   40  C   UNK N   1      26.426  11.501   2.528  0.00  0.00     0.193 C 
BRANCH  40  41
HETATM   41  C   UNK N   1      27.547  12.015   1.640  0.00  0.00     0.193 C 
BRANCH  41  42
HETATM   42  O   UNK N   1      27.818  13.351   1.943  0.00  0.00    -0.394 OA
HETATM   43  C   UNK N   1      27.877  13.396   3.337  0.00  0.00     0.201 C 
ENDBRANCH  41  42
ENDBRANCH  40  41
ENDBRANCH  39  40
ENDBRANCH  38  39
ENDBRANCH  37  38
ENDBRANCH  36  37
ENDBRANCH  35  36
ENDBRANCH  34  35
ENDBRANCH  33  34
ENDBRANCH  32  33
ENDBRANCH  31  32
ENDBRANCH  30  31
ENDBRANCH  29  30
ENDBRANCH  28  29
ENDBRANCH  27  28
ENDBRANCH  26  27
ENDBRANCH  25  26
ENDBRANCH  24  25
ENDBRANCH  23  24
ENDBRANCH   1  23
TORSDOF 33
ENDMDL
MODEL 3
REMARK VINA RESULT:      -4.8      5.625      9.273
REMARK WARNING: 32 MAX_TORS EXCEEDED!!!
REMARK  33 active torsions:
REMARK  status: ('A' for Active; 'I' for Inactive)
REMARK    1  A    between atoms: O_1  and  C_23 
REMARK    2  A    between atoms: O_1  and  C_25 
REMARK    3  A    between atoms: O_2  and  C_24 
REMARK    4  A    between atoms: O_2  and  C_27 
REMARK    5  A    between atoms: O_3  and  C_26 
REMARK    6  A    between atoms: O_3  and  C_29 
REMARK    7  A    between atoms: O_4  and  C_28 
REMARK    8  A    between atoms: O_4  and  C_31 
REMARK    9  A    between atoms: O_5  and  C_30 
REMARK   10  A    between atoms: O_5  and  C_32 
REMARK   11  A    between atoms: O_6  and  C_33 
REMARK   12  A    between atoms: O_6  and  C_36 
REMARK   13  A    between atoms: O_7  and  C_35 
REMARK   14  A    between atoms: O_7  and  C_37 
REMARK   15  A    between atoms: O_8  and  C_34 
REMARK   16  A    between atoms: O_8  and  C_38 
REMARK   17  A    between atoms: O_9  and  C_39 
REMARK   18  A    between atoms: O_9  and  C_40 
REMARK   19  A    between atoms: O_11  and  C_41 
REMARK   20  A    between atoms: N_12  and  C_14 
REMARK   21  A    between atoms: N_12  and  C_16 
REMARK   22  A    between atoms: C_13  and  C_14 
REMARK   23  A    between atoms: C_13  and  C_15 
REMARK   24  A    between atoms: C_20  and  C_35 
REMARK   25  A    between atoms: C_23  and  C_24 
REMARK   26  A    between atoms: C_25  and  C_26 
REMARK   27  A    between atoms: C_27  and  C_28 
REMARK   28  A    between atoms: C_29  and  C_30 
REMARK   29  A    between atoms: C_31  and  C_34 
REMARK   30  A    between atoms: C_32  and  C_33 
REMARK   31  A    between atoms: C_36  and  C_37 
REMARK   32  A    between atoms: C_38  and  C_39 
REMARK   33  A    between atoms: C_40  and  C_41 
ROOT
HETATM    1  C   UNK N   1      19.950  14.222   5.622  0.00  0.00     0.193 C 
ENDROOT
BRANCH   1   2
HETATM    2  O   UNK N   1      19.915  14.985   6.795  0.00  0.00    -0.387 OA
BRANCH   2   3
HETATM    3  C   UNK N   1      19.878  16.319   6.371  0.00  0.00     0.193 C 
BRANCH   3   4
HETATM    4  C   UNK N   1      21.075  17.099   6.907  0.00  0.00     0.193 C 
BRANCH   4   5
HETATM    5  O   UNK N   1      21.209  18.335   6.264  0.00  0.00    -0.387 OA
BRANCH   5   6
HETATM    6  C   UNK N   1      21.677  18.053   4.979  0.00  0.00     0.194 C 
BRANCH   6   7
HETATM    7  C   UNK N   1      21.372  19.239   4.081  0.00  0.00     0.205 C 
BRANCH   7   8
HETATM    8  O   UNK N   1      22.339  19.376   3.113  0.00  0.00    -0.315 OA
BRANCH   8   9
HETATM    9  C   UNK N   1      23.484  20.114   3.204  0.00  0.00     0.293 C 
HETATM   10  O   UNK N   1      23.392  21.323   3.081  0.00  0.00    -0.259 OA
BRANCH   9  11
HETATM   11  C   UNK N   1      24.838  19.526   3.457  0.00  0.00     0.039 A 
HETATM   12  C   UNK N   1      25.982  20.316   3.648  0.00  0.00     0.020 A 
HETATM   13  C   UNK N   1      27.233  19.731   3.855  0.00  0.00     0.030 A 
HETATM   14  C   UNK N   1      27.360  18.341   3.874  0.00  0.00     0.028 A 
HETATM   15  C   UNK N   1      26.222  17.541   3.694  0.00  0.00     0.030 A 
HETATM   16  C   UNK N   1      24.974  18.130   3.488  0.00  0.00     0.020 A 
BRANCH  14  17
HETATM   17  N   UNK N   1      28.636  17.757   4.068  0.00  0.00    -0.390 N 
HETATM   18  H   UNK N   1      28.940  17.050   3.454  0.00  0.00     0.159 HD
BRANCH  17  19
HETATM   19  C   UNK N   1      29.495  18.177   5.143  0.00  0.00     0.119 C 
BRANCH  19  20
HETATM   20  C   UNK N   1      29.456  17.166   6.268  0.00  0.00     0.019 C 
BRANCH  20  21
HETATM   21  C   UNK N   1      29.382  17.918   7.580  0.00  0.00    -0.003 C 
HETATM   22  C   UNK N   1      28.179  18.835   7.577  0.00  0.00     0.005 C 
ENDBRANCH  20  21
ENDBRANCH  19  20
ENDBRANCH  17  19
ENDBRANCH  14  17
ENDBRANCH   9  11
ENDBRANCH   8   9
ENDBRANCH   7   8
ENDBRANCH   6   7
ENDBRANCH   5   6
ENDBRANCH   4   5
ENDBRANCH   3   4
ENDBRANCH   2   3
ENDBRANCH   1   2
BRANCH   1  23
HETATM   23  C   UNK N   1      19.156  14.925   4.534  0.00  0.00     0.193 C 
BRANCH  23  24
HETATM   24  O   UNK N   1      18.749  14.030   3.538  0.00  0.00    -0.387 OA
BRANCH  24  25
HETATM   25  C   UNK N   1      19.519  14.338   2.407  0.00  0.00     0.193 C 
BRANCH  25  26
HETATM   26  C   UNK N   1      20.316  13.127   1.918  0.00  0.00     0.193 C 
BRANCH  26  27
HETATM   27  O   UNK N   1      21.683  13.312   2.154  0.00  0.00    -0.387 OA
BRANCH  27  28
HETATM   28  C   UNK N   1      22.332  12.628   1.124  0.00  0.00     0.193 C 
BRANCH  28  29
HETATM   29  C   UNK N   1      23.593  13.373   0.716  0.00  0.00     0.193 C 
BRANCH  29  30
HETATM   30  O   UNK N   1      24.025  14.205   1.752  0.00  0.00    -0.387 OA
BRANCH  30  31
HETATM   31  C   UNK N   1      25.398  13.964   1.860  0.00  0.00     0.193 C 
BRANCH  31  32
HETATM   32  C   UNK N   1      25.822  14.051   3.314  0.00  0.00     0.193 C 
BRANCH  32  33
HETATM   33  O   UNK N   1      24.774  13.642   4.144  0.00  0.00    -0.387 OA
BRANCH  33  34
HETATM   34  C   UNK N   1      25.268  13.807   5.439  0.00  0.00     0.193 C 
BRANCH  34  35
HETATM   35  C   UNK N   1      25.284  12.477   6.179  0.00  0.00     0.193 C 
BRANCH  35  36
HETATM   36  O   UNK N   1      23.977  12.022   6.370  0.00  0.00    -0.387 OA
BRANCH  36  37
HETATM   37  C   UNK N   1      23.726  12.179   7.735  0.00  0.00     0.193 C 
BRANCH  37  38
HETATM   38  C   UNK N   1      22.505  13.063   7.938  0.00  0.00     0.193 C 
BRANCH  38  39
HETATM   39  O   UNK N   1      22.509  13.584   9.234  0.00  0.00    -0.387 OA
BRANCH  39  40
HETATM   40  C   UNK N   1      21.341  13.097   9.825  0.00  0.00     0.193 C 
BRANCH  40  41
HETATM   41  C   UNK N   1      21.699  12.204  11.001  0.00  0.00     0.193 C 
BRANCH  41  42
HETATM   42  O   UNK N   1      23.030  12.409  11.366  0.00  0.00    -0.394 OA
HETATM   43  C   UNK N   1      23.129  11.897  12.660  0.00  0.00     0.201 C 
ENDBRANCH  41  42
ENDBRANCH  40  41
ENDBRANCH  39  40
ENDBRANCH  38  39
ENDBRANCH  37  38
ENDBRANCH  36  37
ENDBRANCH  35  36
ENDBRANCH  34  35
ENDBRANCH  33  34
ENDBRANCH  32  33
ENDBRANCH  31  32
ENDBRANCH  30  31
ENDBRANCH  29  30
ENDBRANCH  28  29
ENDBRANCH  27  28
ENDBRANCH  26  27
ENDBRANCH  25  26
ENDBRANCH  24  25
ENDBRANCH  23  24
ENDBRANCH   1  23
TORSDOF 33
ENDMDL
MODEL 4
REMARK VINA RESULT:      -4.7      4.515      8.951
REMARK WARNING: 32 MAX_TORS EXCEEDED!!!
REMARK  33 active torsions:
REMARK  status: ('A' for Active; 'I' for Inactive)
REMARK    1  A    between atoms: O_1  and  C_23 
REMARK    2  A    between atoms: O_1  and  C_25 
REMARK    3  A    between atoms: O_2  and  C_24 
REMARK    4  A    between atoms: O_2  and  C_27 
REMARK    5  A    between atoms: O_3  and  C_26 
REMARK    6  A    between atoms: O_3  and  C_29 
REMARK    7  A    between atoms: O_4  and  C_28 
REMARK    8  A    between atoms: O_4  and  C_31 
REMARK    9  A    between atoms: O_5  and  C_30 
REMARK   10  A    between atoms: O_5  and  C_32 
REMARK   11  A    between atoms: O_6  and  C_33 
REMARK   12  A    between atoms: O_6  and  C_36 
REMARK   13  A    between atoms: O_7  and  C_35 
REMARK   14  A    between atoms: O_7  and  C_37 
REMARK   15  A    between atoms: O_8  and  C_34 
REMARK   16  A    between atoms: O_8  and  C_38 
REMARK   17  A    between atoms: O_9  and  C_39 
REMARK   18  A    between atoms: O_9  and  C_40 
REMARK   19  A    between atoms: O_11  and  C_41 
REMARK   20  A    between atoms: N_12  and  C_14 
REMARK   21  A    between atoms: N_12  and  C_16 
REMARK   22  A    between atoms: C_13  and  C_14 
REMARK   23  A    between atoms: C_13  and  C_15 
REMARK   24  A    between atoms: C_20  and  C_35 
REMARK   25  A    between atoms: C_23  and  C_24 
REMARK   26  A    between atoms: C_25  and  C_26 
REMARK   27  A    between atoms: C_27  and  C_28 
REMARK   28  A    between atoms: C_29  and  C_30 
REMARK   29  A    between atoms: C_31  and  C_34 
REMARK   30  A    between atoms: C_32  and  C_33 
REMARK   31  A    between atoms: C_36  and  C_37 
REMARK   32  A    between atoms: C_38  and  C_39 
REMARK   33  A    between atoms: C_40  and  C_41 
ROOT
HETATM    1  C   UNK N   1      20.806  15.820   7.800  0.00  0.00     0.193 C 
ENDROOT
BRANCH   1   2
HETATM    2  O   UNK N   1      19.949  15.605   6.713  0.00  0.00    -0.387 OA
BRANCH   2   3
HETATM    3  C   UNK N   1      20.249  16.618   5.795  0.00  0.00     0.193 C 
BRANCH   3   4
HETATM    4  C   UNK N   1      21.098  17.709   6.440  0.00  0.00     0.193 C 
BRANCH   4   5
HETATM    5  O   UNK N   1      21.596  18.602   5.484  0.00  0.00    -0.387 OA
BRANCH   5   6
HETATM    6  C   UNK N   1      22.903  18.189   5.215  0.00  0.00     0.194 C 
BRANCH   6   7
HETATM    7  C   UNK N   1      23.310  18.725   3.854  0.00  0.00     0.205 C 
BRANCH   7   8
HETATM    8  O   UNK N   1      24.663  18.575   3.657  0.00  0.00    -0.315 OA
BRANCH   8   9
HETATM    9  C   UNK N   1      25.655  19.340   4.200  0.00  0.00     0.293 C 
HETATM   10  O   UNK N   1      25.769  20.487   3.803  0.00  0.00    -0.259 OA
BRANCH   9  11
HETATM   11  C   UNK N   1      26.599  18.856   5.257  0.00  0.00     0.039 A 
HETATM   12  C   UNK N   1      27.194  19.718   6.191  0.00  0.00     0.020 A 
HETATM   13  C   UNK N   1      28.091  19.233   7.146  0.00  0.00     0.030 A 
HETATM   14  C   UNK N   1      28.407  17.874   7.181  0.00  0.00     0.028 A 
HETATM   15  C   UNK N   1      27.812  17.002   6.258  0.00  0.00     0.030 A 
HETATM   16  C   UNK N   1      26.916  17.490   5.306  0.00  0.00     0.020 A 
BRANCH  14  17
HETATM   17  N   UNK N   1      29.331  17.395   8.142  0.00  0.00    -0.390 N 
HETATM   18  H   UNK N   1      29.363  16.431   8.340  0.00  0.00     0.159 HD
BRANCH  17  19
HETATM   19  C   UNK N   1      30.223  18.288   8.833  0.00  0.00     0.119 C 
BRANCH  19  20
HETATM   20  C   UNK N   1      31.660  17.923   8.536  0.00  0.00     0.019 C 
BRANCH  20  21
HETATM   21  C   UNK N   1      31.677  16.983   7.350  0.00  0.00    -0.003 C 
HETATM   22  C   UNK N   1      32.776  17.388   6.392  0.00  0.00     0.005 C 
ENDBRANCH  20  21
ENDBRANCH  19  20
ENDBRANCH  17  19
ENDBRANCH  14  17
ENDBRANCH   9  11
ENDBRANCH   8   9
ENDBRANCH   7   8
ENDBRANCH   6   7
ENDBRANCH   5   6
ENDBRANCH   4   5
ENDBRANCH   3   4
ENDBRANCH   2   3
ENDBRANCH   1   2
BRANCH   1  23
HETATM   23  C   UNK N   1      20.170  15.268   9.065  0.00  0.00     0.193 C 
BRANCH  23  24
HETATM   24  O   UNK N   1      20.007  13.881   8.993  0.00  0.00    -0.387 OA
BRANCH  24  25
HETATM   25  C   UNK N   1      20.270  13.396  10.283  0.00  0.00     0.193 C 
BRANCH  25  26
HETATM   26  C   UNK N   1      21.528  12.526  10.315  0.00  0.00     0.193 C 
BRANCH  26  27
HETATM   27  O   UNK N   1      21.857  12.189  11.634  0.00  0.00    -0.387 OA
BRANCH  27  28
HETATM   28  C   UNK N   1      23.198  11.801  11.593  0.00  0.00     0.193 C 
BRANCH  28  29
HETATM   29  C   UNK N   1      23.798  12.141  10.239  0.00  0.00     0.193 C 
BRANCH  29  30
HETATM   30  O   UNK N   1      25.065  12.712  10.395  0.00  0.00    -0.387 OA
BRANCH  30  31
HETATM   31  C   UNK N   1      25.190  13.610   9.331  0.00  0.00     0.193 C 
BRANCH  31  32
HETATM   32  C   UNK N   1      24.607  12.998   8.072  0.00  0.00     0.193 C 
BRANCH  32  33
HETATM   33  O   UNK N   1      25.544  13.050   7.036  0.00  0.00    -0.387 OA
BRANCH  33  34
HETATM   34  C   UNK N   1      24.946  12.351   5.986  0.00  0.00     0.193 C 
BRANCH  34  35
HETATM   35  C   UNK N   1      23.448  12.615   5.951  0.00  0.00     0.193 C 
BRANCH  35  36
HETATM   36  O   UNK N   1      22.917  12.195   4.730  0.00  0.00    -0.387 OA
BRANCH  36  37
HETATM   37  C   UNK N   1      22.046  13.214   4.334  0.00  0.00     0.193 C 
BRANCH  37  38
HETATM   38  C   UNK N   1      22.747  14.560   4.434  0.00  0.00     0.193 C 
BRANCH  38  39
HETATM   39  O   UNK N   1      23.116  14.995   3.159  0.00  0.00    -0.387 OA
BRANCH  39  40
HETATM   40  C   UNK N   1      22.014  14.719   2.346  0.00  0.00     0.193 C 
BRANCH  40  41
HETATM   41  C   UNK N   1      22.483  14.444   0.928  0.00  0.00     0.193 C 
BRANCH  41  42
HETATM   42  O   UNK N   1      21.958  13.231   0.481  0.00  0.00    -0.394 OA
HETATM   43  C   UNK N   1      20.607  13.277   0.825  0.00  0.00     0.201 C 
ENDBRANCH  41  42
ENDBRANCH  40  41
ENDBRANCH  39  40
ENDBRANCH  38  39
ENDBRANCH  37  38
ENDBRANCH  36  37
ENDBRANCH  35  36
ENDBRANCH  34  35
ENDBRANCH  33  34
ENDBRANCH  32  33
ENDBRANCH  31  32
ENDBRANCH  30  31
ENDBRANCH  29  30
ENDBRANCH  28  29
ENDBRANCH  27  28
ENDBRANCH  26  27
ENDBRANCH  25  26
ENDBRANCH  24  25
ENDBRANCH  23  24
ENDBRANCH   1  23
TORSDOF 33
ENDMDL
MODEL 5
REMARK VINA RESULT:      -4.7     13.514     18.491
REMARK WARNING: 32 MAX_TORS EXCEEDED!!!
REMARK  33 active torsions:
REMARK  status: ('A' for Active; 'I' for Inactive)
REMARK    1  A    between atoms: O_1  and  C_23 
REMARK    2  A    between atoms: O_1  and  C_25 
REMARK    3  A    between atoms: O_2  and  C_24 
REMARK    4  A    between atoms: O_2  and  C_27 
REMARK    5  A    between atoms: O_3  and  C_26 
REMARK    6  A    between atoms: O_3  and  C_29 
REMARK    7  A    between atoms: O_4  and  C_28 
REMARK    8  A    between atoms: O_4  and  C_31 
REMARK    9  A    between atoms: O_5  and  C_30 
REMARK   10  A    between atoms: O_5  and  C_32 
REMARK   11  A    between atoms: O_6  and  C_33 
REMARK   12  A    between atoms: O_6  and  C_36 
REMARK   13  A    between atoms: O_7  and  C_35 
REMARK   14  A    between atoms: O_7  and  C_37 
REMARK   15  A    between atoms: O_8  and  C_34 
REMARK   16  A    between atoms: O_8  and  C_38 
REMARK   17  A    between atoms: O_9  and  C_39 
REMARK   18  A    between atoms: O_9  and  C_40 
REMARK   19  A    between atoms: O_11  and  C_41 
REMARK   20  A    between atoms: N_12  and  C_14 
REMARK   21  A    between atoms: N_12  and  C_16 
REMARK   22  A    between atoms: C_13  and  C_14 
REMARK   23  A    between atoms: C_13  and  C_15 
REMARK   24  A    between atoms: C_20  and  C_35 
REMARK   25  A    between atoms: C_23  and  C_24 
REMARK   26  A    between atoms: C_25  and  C_26 
REMARK   27  A    between atoms: C_27  and  C_28 
REMARK   28  A    between atoms: C_29  and  C_30 
REMARK   29  A    between atoms: C_31  and  C_34 
REMARK   30  A    between atoms: C_32  and  C_33 
REMARK   31  A    between atoms: C_36  and  C_37 
REMARK   32  A    between atoms: C_38  and  C_39 
REMARK   33  A    between atoms: C_40  and  C_41 
ROOT
HETATM    1  C   UNK N   1      30.125  28.485  -9.224  0.00  0.00     0.193 C 
ENDROOT
BRANCH   1   2
HETATM    2  O   UNK N   1      28.973  28.481 -10.020  0.00  0.00    -0.387 OA
BRANCH   2   3
HETATM    3  C   UNK N   1      28.575  27.141 -10.094  0.00  0.00     0.193 C 
BRANCH   3   4
HETATM    4  C   UNK N   1      27.686  26.766  -8.913  0.00  0.00     0.193 C 
BRANCH   4   5
HETATM    5  O   UNK N   1      26.568  26.031  -9.326  0.00  0.00    -0.387 OA
BRANCH   5   6
HETATM    6  C   UNK N   1      27.042  24.756  -9.642  0.00  0.00     0.194 C 
BRANCH   6   7
HETATM    7  C   UNK N   1      26.230  23.732  -8.869  0.00  0.00     0.205 C 
BRANCH   7   8
HETATM    8  O   UNK N   1      26.684  23.628  -7.575  0.00  0.00    -0.315 OA
BRANCH   8   9
HETATM    9  C   UNK N   1      25.942  23.769  -6.438  0.00  0.00     0.293 C 
HETATM   10  O   UNK N   1      25.262  22.821  -6.083  0.00  0.00    -0.259 OA
BRANCH   9  11
HETATM   11  C   UNK N   1      25.922  25.011  -5.602  0.00  0.00     0.039 A 
HETATM   12  C   UNK N   1      26.600  25.109  -4.377  0.00  0.00     0.020 A 
HETATM   13  C   UNK N   1      26.536  26.276  -3.612  0.00  0.00     0.030 A 
HETATM   14  C   UNK N   1      25.792  27.367  -4.062  0.00  0.00     0.028 A 
HETATM   15  C   UNK N   1      25.119  27.285  -5.290  0.00  0.00     0.030 A 
HETATM   16  C   UNK N   1      25.185  26.117  -6.051  0.00  0.00     0.020 A 
BRANCH  14  17
HETATM   17  N   UNK N   1      25.721  28.540  -3.272  0.00  0.00    -0.390 N 
HETATM   18  H   UNK N   1      24.883  28.752  -2.799  0.00  0.00     0.159 HD
BRANCH  17  19
HETATM   19  C   UNK N   1      26.847  29.427  -3.146  0.00  0.00     0.119 C 
BRANCH  19  20
HETATM   20  C   UNK N   1      26.881  30.395  -4.308  0.00  0.00     0.019 C 
BRANCH  20  21
HETATM   21  C   UNK N   1      28.165  30.170  -5.077  0.00  0.00    -0.003 C 
HETATM   22  C   UNK N   1      27.907  29.242  -6.243  0.00  0.00     0.005 C 
ENDBRANCH  20  21
ENDBRANCH  19  20
ENDBRANCH  17  19
ENDBRANCH  14  17
ENDBRANCH   9  11
ENDBRANCH   8   9
ENDBRANCH   7   8
ENDBRANCH   6   7
ENDBRANCH   5   6
ENDBRANCH   4   5
ENDBRANCH   3   4
ENDBRANCH   2   3
ENDBRANCH   1   2
BRANCH   1  23
HETATM   23  C   UNK N   1      30.582  29.916  -8.998  0.00  0.00     0.193 C 
BRANCH  23  24
HETATM   24  O   UNK N   1      30.777  30.182  -7.638  0.00  0.00    -0.387 OA
BRANCH  24  25
HETATM   25  C   UNK N   1      31.959  29.515  -7.282  0.00  0.00     0.193 C 
BRANCH  25  26
HETATM   26  C   UNK N   1      31.832  28.825  -5.922  0.00  0.00     0.193 C 
BRANCH  26  27
HETATM   27  O   UNK N   1      31.777  27.435  -6.082  0.00  0.00    -0.387 OA
BRANCH  27  28
HETATM   28  C   UNK N   1      30.803  26.998  -5.181  0.00  0.00     0.193 C 
BRANCH  28  29
HETATM   29  C   UNK N   1      31.386  26.922  -3.779  0.00  0.00     0.193 C 
BRANCH  29  30
HETATM   30  O   UNK N   1      30.634  26.051  -2.985  0.00  0.00    -0.387 OA
BRANCH  30  31
HETATM   31  C   UNK N   1      30.715  24.814  -3.630  0.00  0.00     0.193 C 
BRANCH  31  32
HETATM   32  C   UNK N   1      30.054  23.746  -2.779  0.00  0.00     0.193 C 
BRANCH  32  33
HETATM   33  O   UNK N   1      31.024  23.018  -2.084  0.00  0.00    -0.387 OA
BRANCH  33  34
HETATM   34  C   UNK N   1      31.552  22.142  -3.034  0.00  0.00     0.193 C 
BRANCH  34  35
HETATM   35  C   UNK N   1      30.469  21.219  -3.572  0.00  0.00     0.193 C 
BRANCH  35  36
HETATM   36  O   UNK N   1      30.896  20.624  -4.761  0.00  0.00    -0.387 OA
BRANCH  36  37
HETATM   37  C   UNK N   1      29.974  21.032  -5.730  0.00  0.00     0.193 C 
BRANCH  37  38
HETATM   38  C   UNK N   1      30.595  22.099  -6.617  0.00  0.00     0.193 C 
BRANCH  38  39
HETATM   39  O   UNK N   1      31.079  21.515  -7.791  0.00  0.00    -0.387 OA
BRANCH  39  40
HETATM   40  C   UNK N   1      30.024  21.604  -8.703  0.00  0.00     0.193 C 
BRANCH  40  41
HETATM   41  C   UNK N   1      29.663  20.216  -9.202  0.00  0.00     0.193 C 
BRANCH  41  42
HETATM   42  O   UNK N   1      30.708  19.700  -9.970  0.00  0.00    -0.394 OA
HETATM   43  C   UNK N   1      30.351  18.373 -10.213  0.00  0.00     0.201 C 
ENDBRANCH  41  42
ENDBRANCH  40  41
ENDBRANCH  39  40
ENDBRANCH  38  39
ENDBRANCH  37  38
ENDBRANCH  36  37
ENDBRANCH  35  36
ENDBRANCH  34  35
ENDBRANCH  33  34
ENDBRANCH  32  33
ENDBRANCH  31  32
ENDBRANCH  30  31
ENDBRANCH  29  30
ENDBRANCH  28  29
ENDBRANCH  27  28
ENDBRANCH  26  27
ENDBRANCH  25  26
ENDBRANCH  24  25
ENDBRANCH  23  24
ENDBRANCH   1  23
TORSDOF 33
ENDMDL
MODEL 6
REMARK VINA RESULT:      -4.7      6.808      9.604
REMARK WARNING: 32 MAX_TORS EXCEEDED!!!
REMARK  33 active torsions:
REMARK  status: ('A' for Active; 'I' for Inactive)
REMARK    1  A    between atoms: O_1  and  C_23 
REMARK    2  A    between atoms: O_1  and  C_25 
REMARK    3  A    between atoms: O_2  and  C_24 
REMARK    4  A    between atoms: O_2  and  C_27 
REMARK    5  A    between atoms: O_3  and  C_26 
REMARK    6  A    between atoms: O_3  and  C_29 
REMARK    7  A    between atoms: O_4  and  C_28 
REMARK    8  A    between atoms: O_4  and  C_31 
REMARK    9  A    between atoms: O_5  and  C_30 
REMARK   10  A    between atoms: O_5  and  C_32 
REMARK   11  A    between atoms: O_6  and  C_33 
REMARK   12  A    between atoms: O_6  and  C_36 
REMARK   13  A    between atoms: O_7  and  C_35 
REMARK   14  A    between atoms: O_7  and  C_37 
REMARK   15  A    between atoms: O_8  and  C_34 
REMARK   16  A    between atoms: O_8  and  C_38 
REMARK   17  A    between atoms: O_9  and  C_39 
REMARK   18  A    between atoms: O_9  and  C_40 
REMARK   19  A    between atoms: O_11  and  C_41 
REMARK   20  A    between atoms: N_12  and  C_14 
REMARK   21  A    between atoms: N_12  and  C_16 
REMARK   22  A    between atoms: C_13  and  C_14 
REMARK   23  A    between atoms: C_13  and  C_15 
REMARK   24  A    between atoms: C_20  and  C_35 
REMARK   25  A    between atoms: C_23  and  C_24 
REMARK   26  A    between atoms: C_25  and  C_26 
REMARK   27  A    between atoms: C_27  and  C_28 
REMARK   28  A    between atoms: C_29  and  C_30 
REMARK   29  A    between atoms: C_31  and  C_34 
REMARK   30  A    between atoms: C_32  and  C_33 
REMARK   31  A    between atoms: C_36  and  C_37 
REMARK   32  A    between atoms: C_38  and  C_39 
REMARK   33  A    between atoms: C_40  and  C_41 
ROOT
HETATM    1  C   UNK N   1      23.894  11.853   7.545  0.00  0.00     0.193 C 
ENDROOT
BRANCH   1   2
HETATM    2  O   UNK N   1      23.176  12.932   7.013  0.00  0.00    -0.387 OA
BRANCH   2   3
HETATM    3  C   UNK N   1      22.495  12.417   5.905  0.00  0.00     0.193 C 
BRANCH   3   4
HETATM    4  C   UNK N   1      22.249  13.500   4.859  0.00  0.00     0.193 C 
BRANCH   4   5
HETATM    5  O   UNK N   1      23.026  13.291   3.714  0.00  0.00    -0.387 OA
BRANCH   5   6
HETATM    6  C   UNK N   1      23.366  11.936   3.720  0.00  0.00     0.194 C 
BRANCH   6   7
HETATM    7  C   UNK N   1      24.062  11.605   2.412  0.00  0.00     0.205 C 
BRANCH   7   8
HETATM    8  O   UNK N   1      24.688  12.717   1.899  0.00  0.00    -0.315 OA
BRANCH   8   9
HETATM    9  C   UNK N   1      26.027  12.982   1.927  0.00  0.00     0.293 C 
HETATM   10  O   UNK N   1      26.786  12.119   1.521  0.00  0.00    -0.259 OA
BRANCH   9  11
HETATM   11  C   UNK N   1      26.613  14.271   2.416  0.00  0.00     0.039 A 
HETATM   12  C   UNK N   1      25.829  15.401   2.692  0.00  0.00     0.020 A 
HETATM   13  C   UNK N   1      26.416  16.595   3.122  0.00  0.00     0.030 A 
HETATM   14  C   UNK N   1      27.799  16.674   3.283  0.00  0.00     0.028 A 
HETATM   15  C   UNK N   1      28.592  15.548   3.020  0.00  0.00     0.030 A 
HETATM   16  C   UNK N   1      28.003  14.358   2.591  0.00  0.00     0.020 A 
BRANCH  14  17
HETATM   17  N   UNK N   1      28.386  17.893   3.704  0.00  0.00    -0.390 N 
HETATM   18  H   UNK N   1      29.110  18.290   3.166  0.00  0.00     0.159 HD
BRANCH  17  19
HETATM   19  C   UNK N   1      27.945  18.563   4.899  0.00  0.00     0.119 C 
BRANCH  19  20
HETATM   20  C   UNK N   1      27.934  20.060   4.685  0.00  0.00     0.019 C 
BRANCH  20  21
HETATM   21  C   UNK N   1      26.553  20.578   5.025  0.00  0.00    -0.003 C 
HETATM   22  C   UNK N   1      25.555  20.089   3.998  0.00  0.00     0.005 C 
ENDBRANCH  20  21
ENDBRANCH  19  20
ENDBRANCH  17  19
ENDBRANCH  14  17
ENDBRANCH   9  11
ENDBRANCH   8   9
ENDBRANCH   7   8
ENDBRANCH   6   7
ENDBRANCH   5   6
ENDBRANCH   4   5
ENDBRANCH   3   4
ENDBRANCH   2   3
ENDBRANCH   1   2
BRANCH   1  23
HETATM   23  C   UNK N   1      24.055  12.039   9.044  0.00  0.00     0.193 C 
BRANCH  23  24
HETATM   24  O   UNK N   1      23.042  11.384   9.753  0.00  0.00    -0.387 OA
BRANCH  24  25
HETATM   25  C   UNK N   1      22.581  12.305  10.705  0.00  0.00     0.193 C 
BRANCH  25  26
HETATM   26  C   UNK N   1      21.063  12.482  10.633  0.00  0.00     0.193 C 
BRANCH  26  27
HETATM   27  O   UNK N   1      20.705  13.172   9.469  0.00  0.00    -0.387 OA
BRANCH  27  28
HETATM   28  C   UNK N   1      19.913  14.238   9.900  0.00  0.00     0.193 C 
BRANCH  28  29
HETATM   29  C   UNK N   1      19.964  15.369   8.885  0.00  0.00     0.193 C 
BRANCH  29  30
HETATM   30  O   UNK N   1      20.637  14.959   7.730  0.00  0.00    -0.387 OA
BRANCH  30  31
HETATM   31  C   UNK N   1      21.527  15.998   7.443  0.00  0.00     0.193 C 
BRANCH  31  32
HETATM   32  C   UNK N   1      20.897  16.954   6.448  0.00  0.00     0.193 C 
BRANCH  32  33
HETATM   33  O   UNK N   1      21.522  18.202   6.521  0.00  0.00    -0.387 OA
BRANCH  33  34
HETATM   34  C   UNK N   1      22.574  18.121   5.606  0.00  0.00     0.193 C 
BRANCH  34  35
HETATM   35  C   UNK N   1      22.097  17.511   4.296  0.00  0.00     0.193 C 
BRANCH  35  36
HETATM   36  O   UNK N   1      22.043  18.493   3.304  0.00  0.00    -0.387 OA
BRANCH  36  37
HETATM   37  C   UNK N   1      20.684  18.667   3.030  0.00  0.00     0.193 C 
BRANCH  37  38
HETATM   38  C   UNK N   1      20.055  17.333   2.662  0.00  0.00     0.193 C 
BRANCH  38  39
HETATM   39  O   UNK N   1      20.351  17.021   1.333  0.00  0.00    -0.387 OA
BRANCH  39  40
HETATM   40  C   UNK N   1      20.925  15.749   1.376  0.00  0.00     0.193 C 
BRANCH  40  41
HETATM   41  C   UNK N   1      19.868  14.724   1.746  0.00  0.00     0.193 C 
BRANCH  41  42
HETATM   42  O   UNK N   1      19.812  13.726   0.772  0.00  0.00    -0.394 OA
HETATM   43  C   UNK N   1      21.121  13.256   0.667  0.00  0.00     0.201 C 
ENDBRANCH  41  42
ENDBRANCH  40  41
ENDBRANCH  39  40
ENDBRANCH  38  39
ENDBRANCH  37  38
ENDBRANCH  36  37
ENDBRANCH  35  36
ENDBRANCH  34  35
ENDBRANCH  33  34
ENDBRANCH  32  33
ENDBRANCH  31  32
ENDBRANCH  30  31
ENDBRANCH  29  30
ENDBRANCH  28  29
ENDBRANCH  27  28
ENDBRANCH  26  27
ENDBRANCH  25  26
ENDBRANCH  24  25
ENDBRANCH  23  24
ENDBRANCH   1  23
TORSDOF 33
ENDMDL
MODEL 7
REMARK VINA RESULT:      -4.6      6.345      9.843
REMARK WARNING: 32 MAX_TORS EXCEEDED!!!
REMARK  33 active torsions:
REMARK  status: ('A' for Active; 'I' for Inactive)
REMARK    1  A    between atoms: O_1  and  C_23 
REMARK    2  A    between atoms: O_1  and  C_25 
REMARK    3  A    between atoms: O_2  and  C_24 
REMARK    4  A    between atoms: O_2  and  C_27 
REMARK    5  A    between atoms: O_3  and  C_26 
REMARK    6  A    between atoms: O_3  and  C_29 
REMARK    7  A    between atoms: O_4  and  C_28 
REMARK    8  A    between atoms: O_4  and  C_31 
REMARK    9  A    between atoms: O_5  and  C_30 
REMARK   10  A    between atoms: O_5  and  C_32 
REMARK   11  A    between atoms: O_6  and  C_33 
REMARK   12  A    between atoms: O_6  and  C_36 
REMARK   13  A    between atoms: O_7  and  C_35 
REMARK   14  A    between atoms: O_7  and  C_37 
REMARK   15  A    between atoms: O_8  and  C_34 
REMARK   16  A    between atoms: O_8  and  C_38 
REMARK   17  A    between atoms: O_9  and  C_39 
REMARK   18  A    between atoms: O_9  and  C_40 
REMARK   19  A    between atoms: O_11  and  C_41 
REMARK   20  A    between atoms: N_12  and  C_14 
REMARK   21  A    between atoms: N_12  and  C_16 
REMARK   22  A    between atoms: C_13  and  C_14 
REMARK   23  A    between atoms: C_13  and  C_15 
REMARK   24  A    between atoms: C_20  and  C_35 
REMARK   25  A    between atoms: C_23  and  C_24 
REMARK   26  A    between atoms: C_25  and  C_26 
REMARK   27  A    between atoms: C_27  and  C_28 
REMARK   28  A    between atoms: C_29  and  C_30 
REMARK   29  A    between atoms: C_31  and  C_34 
REMARK   30  A    between atoms: C_32  and  C_33 
REMARK   31  A    between atoms: C_36  and  C_37 
REMARK   32  A    between atoms: C_38  and  C_39 
REMARK   33  A    between atoms: C_40  and  C_41 
ROOT
HETATM    1  C   UNK N   1      23.257  15.256   5.997  0.00  0.00     0.193 C 
ENDROOT
BRANCH   1   2
HETATM    2  O   UNK N   1      22.112  15.181   6.800  0.00  0.00    -0.387 OA
BRANCH   2   3
HETATM    3  C   UNK N   1      21.562  16.468   6.788  0.00  0.00     0.193 C 
BRANCH   3   4
HETATM    4  C   UNK N   1      20.127  16.448   6.273  0.00  0.00     0.193 C 
BRANCH   4   5
HETATM    5  O   UNK N   1      20.038  15.812   5.029  0.00  0.00    -0.387 OA
BRANCH   5   6
HETATM    6  C   UNK N   1      19.442  16.735   4.167  0.00  0.00     0.194 C 
BRANCH   6   7
HETATM    7  C   UNK N   1      20.436  17.088   3.074  0.00  0.00     0.205 C 
BRANCH   7   8
HETATM    8  O   UNK N   1      20.438  18.443   2.839  0.00  0.00    -0.315 OA
BRANCH   8   9
HETATM    9  C   UNK N   1      21.158  19.385   3.516  0.00  0.00     0.293 C 
HETATM   10  O   UNK N   1      20.541  20.249   4.115  0.00  0.00    -0.259 OA
BRANCH   9  11
HETATM   11  C   UNK N   1      22.654  19.411   3.573  0.00  0.00     0.039 A 
HETATM   12  C   UNK N   1      23.397  18.510   4.351  0.00  0.00     0.020 A 
HETATM   13  C   UNK N   1      24.792  18.582   4.399  0.00  0.00     0.030 A 
HETATM   14  C   UNK N   1      25.466  19.560   3.667  0.00  0.00     0.028 A 
HETATM   15  C   UNK N   1      24.734  20.460   2.878  0.00  0.00     0.030 A 
HETATM   16  C   UNK N   1      23.342  20.384   2.832  0.00  0.00     0.020 A 
BRANCH  14  17
HETATM   17  N   UNK N   1      26.879  19.636   3.734  0.00  0.00    -0.390 N 
HETATM   18  H   UNK N   1      27.327  20.485   3.514  0.00  0.00     0.159 HD
BRANCH  17  19
HETATM   19  C   UNK N   1      27.671  18.499   4.121  0.00  0.00     0.119 C 
BRANCH  19  20
HETATM   20  C   UNK N   1      28.483  18.823   5.355  0.00  0.00     0.019 C 
BRANCH  20  21
HETATM   21  C   UNK N   1      28.656  17.551   6.158  0.00  0.00    -0.003 C 
HETATM   22  C   UNK N   1      27.369  16.755   6.139  0.00  0.00     0.005 C 
ENDBRANCH  20  21
ENDBRANCH  19  20
ENDBRANCH  17  19
ENDBRANCH  14  17
ENDBRANCH   9  11
ENDBRANCH   8   9
ENDBRANCH   7   8
ENDBRANCH   6   7
ENDBRANCH   5   6
ENDBRANCH   4   5
ENDBRANCH   3   4
ENDBRANCH   2   3
ENDBRANCH   1   2
BRANCH   1  23
HETATM   23  C   UNK N   1      23.147  14.255   4.859  0.00  0.00     0.193 C 
BRANCH  23  24
HETATM   24  O   UNK N   1      23.284  14.877   3.614  0.00  0.00    -0.387 OA
BRANCH  24  25
HETATM   25  C   UNK N   1      22.692  14.010   2.684  0.00  0.00     0.193 C 
BRANCH  25  26
HETATM   26  C   UNK N   1      22.936  14.471   1.246  0.00  0.00     0.193 C 
BRANCH  26  27
HETATM   27  O   UNK N   1      21.718  14.674   0.584  0.00  0.00    -0.387 OA
BRANCH  27  28
HETATM   28  C   UNK N   1      20.835  13.747   1.143  0.00  0.00     0.193 C 
BRANCH  28  29
HETATM   29  C   UNK N   1      19.403  14.236   0.994  0.00  0.00     0.193 C 
BRANCH  29  30
HETATM   30  O   UNK N   1      18.633  13.833   2.089  0.00  0.00    -0.387 OA
BRANCH  30  31
HETATM   31  C   UNK N   1      19.033  12.519   2.347  0.00  0.00     0.193 C 
BRANCH  31  32
HETATM   32  C   UNK N   1      18.496  12.074   3.695  0.00  0.00     0.193 C 
BRANCH  32  33
HETATM   33  O   UNK N   1      19.379  12.452   4.711  0.00  0.00    -0.387 OA
BRANCH  33  34
HETATM   34  C   UNK N   1      19.796  11.247   5.279  0.00  0.00     0.193 C 
BRANCH  34  35
HETATM   35  C   UNK N   1      21.291  11.049   5.077  0.00  0.00     0.193 C 
BRANCH  35  36
HETATM   36  O   UNK N   1      21.775  10.106   5.987  0.00  0.00    -0.387 OA
BRANCH  36  37
HETATM   37  C   UNK N   1      23.150  10.032   5.746  0.00  0.00     0.193 C 
BRANCH  37  38
HETATM   38  C   UNK N   1      23.915  10.388   7.011  0.00  0.00     0.193 C 
BRANCH  38  39
HETATM   39  O   UNK N   1      23.966  11.776   7.158  0.00  0.00    -0.387 OA
BRANCH  39  40
HETATM   40  C   UNK N   1      24.086  11.992   8.533  0.00  0.00     0.193 C 
BRANCH  40  41
HETATM   41  C   UNK N   1      22.715  12.268   9.127  0.00  0.00     0.193 C 
BRANCH  41  42
HETATM   42  O   UNK N   1      22.496  11.433  10.224  0.00  0.00    -0.394 OA
HETATM   43  C   UNK N   1      22.933  12.168  11.326  0.00  0.00     0.201 C 
ENDBRANCH  41  42
ENDBRANCH  40  41
ENDBRANCH  39  40
ENDBRANCH  38  39
ENDBRANCH  37  38
ENDBRANCH  36  37
ENDBRANCH  35  36
ENDBRANCH  34  35
ENDBRANCH  33  34
ENDBRANCH  32  33
ENDBRANCH  31  32
ENDBRANCH  30  31
ENDBRANCH  29  30
ENDBRANCH  28  29
ENDBRANCH  27  28
ENDBRANCH  26  27
ENDBRANCH  25  26
ENDBRANCH  24  25
ENDBRANCH  23  24
ENDBRANCH   1  23
TORSDOF 33
ENDMDL
MODEL 8
REMARK VINA RESULT:      -4.6      5.833      9.412
REMARK WARNING: 32 MAX_TORS EXCEEDED!!!
REMARK  33 active torsions:
REMARK  status: ('A' for Active; 'I' for Inactive)
REMARK    1  A    between atoms: O_1  and  C_23 
REMARK    2  A    between atoms: O_1  and  C_25 
REMARK    3  A    between atoms: O_2  and  C_24 
REMARK    4  A    between atoms: O_2  and  C_27 
REMARK    5  A    between atoms: O_3  and  C_26 
REMARK    6  A    between atoms: O_3  and  C_29 
REMARK    7  A    between atoms: O_4  and  C_28 
REMARK    8  A    between atoms: O_4  and  C_31 
REMARK    9  A    between atoms: O_5  and  C_30 
REMARK   10  A    between atoms: O_5  and  C_32 
REMARK   11  A    between atoms: O_6  and  C_33 
REMARK   12  A    between atoms: O_6  and  C_36 
REMARK   13  A    between atoms: O_7  and  C_35 
REMARK   14  A    between atoms: O_7  and  C_37 
REMARK   15  A    between atoms: O_8  and  C_34 
REMARK   16  A    between atoms: O_8  and  C_38 
REMARK   17  A    between atoms: O_9  and  C_39 
REMARK   18  A    between atoms: O_9  and  C_40 
REMARK   19  A    between atoms: O_11  and  C_41 
REMARK   20  A    between atoms: N_12  and  C_14 
REMARK   21  A    between atoms: N_12  and  C_16 
REMARK   22  A    between atoms: C_13  and  C_14 
REMARK   23  A    between atoms: C_13  and  C_15 
REMARK   24  A    between atoms: C_20  and  C_35 
REMARK   25  A    between atoms: C_23  and  C_24 
REMARK   26  A    between atoms: C_25  and  C_26 
REMARK   27  A    between atoms: C_27  and  C_28 
REMARK   28  A    between atoms: C_29  and  C_30 
REMARK   29  A    between atoms: C_31  and  C_34 
REMARK   30  A    between atoms: C_32  and  C_33 
REMARK   31  A    between atoms: C_36  and  C_37 
REMARK   32  A    between atoms: C_38  and  C_39 
REMARK   33  A    between atoms: C_40  and  C_41 
ROOT
HETATM    1  C   UNK N   1      20.064  14.530   5.479  0.00  0.00     0.193 C 
ENDROOT
BRANCH   1   2
HETATM    2  O   UNK N   1      19.768  15.034   6.752  0.00  0.00    -0.387 OA
BRANCH   2   3
HETATM    3  C   UNK N   1      19.638  16.417   6.586  0.00  0.00     0.193 C 
BRANCH   3   4
HETATM    4  C   UNK N   1      20.646  17.172   7.446  0.00  0.00     0.193 C 
BRANCH   4   5
HETATM    5  O   UNK N   1      21.080  18.345   6.818  0.00  0.00    -0.387 OA
BRANCH   5   6
HETATM    6  C   UNK N   1      21.704  17.941   5.636  0.00  0.00     0.194 C 
BRANCH   6   7
HETATM    7  C   UNK N   1      21.372  18.944   4.545  0.00  0.00     0.205 C 
BRANCH   7   8
HETATM    8  O   UNK N   1      22.323  18.913   3.551  0.00  0.00    -0.315 OA
BRANCH   8   9
HETATM    9  C   UNK N   1      23.321  19.822   3.352  0.00  0.00     0.293 C 
HETATM   10  O   UNK N   1      23.016  20.912   2.898  0.00  0.00    -0.259 OA
BRANCH   9  11
HETATM   11  C   UNK N   1      24.762  19.563   3.668  0.00  0.00     0.039 A 
HETATM   12  C   UNK N   1      25.773  20.501   3.409  0.00  0.00     0.020 A 
HETATM   13  C   UNK N   1      27.111  20.212   3.693  0.00  0.00     0.030 A 
HETATM   14  C   UNK N   1      27.457  18.976   4.242  0.00  0.00     0.028 A 
HETATM   15  C   UNK N   1      26.454  18.035   4.513  0.00  0.00     0.030 A 
HETATM   16  C   UNK N   1      25.119  18.328   4.229  0.00  0.00     0.020 A 
BRANCH  14  17
HETATM   17  N   UNK N   1      28.817  18.686   4.511  0.00  0.00    -0.390 N 
HETATM   18  H   UNK N   1      29.469  19.423   4.547  0.00  0.00     0.159 HD
BRANCH  17  19
HETATM   19  C   UNK N   1      29.264  17.336   4.734  0.00  0.00     0.119 C 
BRANCH  19  20
HETATM   20  C   UNK N   1      30.738  17.216   4.417  0.00  0.00     0.019 C 
BRANCH  20  21
HETATM   21  C   UNK N   1      30.883  16.477   3.103  0.00  0.00    -0.003 C 
HETATM   22  C   UNK N   1      29.550  15.888   2.698  0.00  0.00     0.005 C 
ENDBRANCH  20  21
ENDBRANCH  19  20
ENDBRANCH  17  19
ENDBRANCH  14  17
ENDBRANCH   9  11
ENDBRANCH   8   9
ENDBRANCH   7   8
ENDBRANCH   6   7
ENDBRANCH   5   6
ENDBRANCH   4   5
ENDBRANCH   3   4
ENDBRANCH   2   3
ENDBRANCH   1   2
BRANCH   1  23
HETATM   23  C   UNK N   1      19.248  15.275   4.436  0.00  0.00     0.193 C 
BRANCH  23  24
HETATM   24  O   UNK N   1      19.460  14.756   3.154  0.00  0.00    -0.387 OA
BRANCH  24  25
HETATM   25  C   UNK N   1      20.061  15.787   2.417  0.00  0.00     0.193 C 
BRANCH  25  26
HETATM   26  C   UNK N   1      20.932  15.240   1.285  0.00  0.00     0.193 C 
BRANCH  26  27
HETATM   27  O   UNK N   1      21.915  14.383   1.794  0.00  0.00    -0.387 OA
BRANCH  27  28
HETATM   28  C   UNK N   1      22.810  14.180   0.741  0.00  0.00     0.193 C 
BRANCH  28  29
HETATM   29  C   UNK N   1      24.221  14.011   1.281  0.00  0.00     0.193 C 
BRANCH  29  30
HETATM   30  O   UNK N   1      24.225  14.109   2.676  0.00  0.00    -0.387 OA
BRANCH  30  31
HETATM   31  C   UNK N   1      25.394  14.811   2.984  0.00  0.00     0.193 C 
BRANCH  31  32
HETATM   32  C   UNK N   1      26.123  14.119   4.121  0.00  0.00     0.193 C 
BRANCH  32  33
HETATM   33  O   UNK N   1      25.202  13.554   5.007  0.00  0.00    -0.387 OA
BRANCH  33  34
HETATM   34  C   UNK N   1      24.786  14.621   5.807  0.00  0.00     0.193 C 
BRANCH  34  35
HETATM   35  C   UNK N   1      25.617  14.690   7.080  0.00  0.00     0.193 C 
BRANCH  35  36
HETATM   36  O   UNK N   1      25.401  13.548   7.854  0.00  0.00    -0.387 OA
BRANCH  36  37
HETATM   37  C   UNK N   1      24.046  13.581   8.193  0.00  0.00     0.193 C 
BRANCH  37  38
HETATM   38  C   UNK N   1      23.632  12.248   8.796  0.00  0.00     0.193 C 
BRANCH  38  39
HETATM   39  O   UNK N   1      22.489  11.772   8.149  0.00  0.00    -0.387 OA
BRANCH  39  40
HETATM   40  C   UNK N   1      22.955  11.192   6.967  0.00  0.00     0.193 C 
BRANCH  40  41
HETATM   41  C   UNK N   1      23.686   9.899   7.286  0.00  0.00     0.193 C 
BRANCH  41  42
HETATM   42  O   UNK N   1      23.742   9.092   6.148  0.00  0.00    -0.394 OA
HETATM   43  C   UNK N   1      22.411   8.801   5.850  0.00  0.00     0.201 C 
ENDBRANCH  41  42
ENDBRANCH  40  41
ENDBRANCH  39  40
ENDBRANCH  38  39
ENDBRANCH  37  38
ENDBRANCH  36  37
ENDBRANCH  35  36
ENDBRANCH  34  35
ENDBRANCH  33  34
ENDBRANCH  32  33
ENDBRANCH  31  32
ENDBRANCH  30  31
ENDBRANCH  29  30
ENDBRANCH  28  29
ENDBRANCH  27  28
ENDBRANCH  26  27
ENDBRANCH  25  26
ENDBRANCH  24  25
ENDBRANCH  23  24
ENDBRANCH   1  23
TORSDOF 33
ENDMDL
MODEL 9
REMARK VINA RESULT:      -4.6      4.416      8.502
REMARK WARNING: 32 MAX_TORS EXCEEDED!!!
REMARK  33 active torsions:
REMARK  status: ('A' for Active; 'I' for Inactive)
REMARK    1  A    between atoms: O_1  and  C_23 
REMARK    2  A    between atoms: O_1  and  C_25 
REMARK    3  A    between atoms: O_2  and  C_24 
REMARK    4  A    between atoms: O_2  and  C_27 
REMARK    5  A    between atoms: O_3  and  C_26 
REMARK    6  A    between atoms: O_3  and  C_29 
REMARK    7  A    between atoms: O_4  and  C_28 
REMARK    8  A    between atoms: O_4  and  C_31 
REMARK    9  A    between atoms: O_5  and  C_30 
REMARK   10  A    between atoms: O_5  and  C_32 
REMARK   11  A    between atoms: O_6  and  C_33 
REMARK   12  A    between atoms: O_6  and  C_36 
REMARK   13  A    between atoms: O_7  and  C_35 
REMARK   14  A    between atoms: O_7  and  C_37 
REMARK   15  A    between atoms: O_8  and  C_34 
REMARK   16  A    between atoms: O_8  and  C_38 
REMARK   17  A    between atoms: O_9  and  C_39 
REMARK   18  A    between atoms: O_9  and  C_40 
REMARK   19  A    between atoms: O_11  and  C_41 
REMARK   20  A    between atoms: N_12  and  C_14 
REMARK   21  A    between atoms: N_12  and  C_16 
REMARK   22  A    between atoms: C_13  and  C_14 
REMARK   23  A    between atoms: C_13  and  C_15 
REMARK   24  A    between atoms: C_20  and  C_35 
REMARK   25  A    between atoms: C_23  and  C_24 
REMARK   26  A    between atoms: C_25  and  C_26 
REMARK   27  A    between atoms: C_27  and  C_28 
REMARK   28  A    between atoms: C_29  and  C_30 
REMARK   29  A    between atoms: C_31  and  C_34 
REMARK   30  A    between atoms: C_32  and  C_33 
REMARK   31  A    between atoms: C_36  and  C_37 
REMARK   32  A    between atoms: C_38  and  C_39 
REMARK   33  A    between atoms: C_40  and  C_41 
ROOT
HETATM    1  C   UNK N   1      36.856  14.090   9.256  0.00  0.00     0.193 C 
ENDROOT
BRANCH   1   2
HETATM    2  O   UNK N   1      37.942  14.349  10.101  0.00  0.00    -0.387 OA
BRANCH   2   3
HETATM    3  C   UNK N   1      38.602  13.123  10.247  0.00  0.00     0.193 C 
BRANCH   3   4
HETATM    4  C   UNK N   1      37.727  12.112  10.980  0.00  0.00     0.193 C 
BRANCH   4   5
HETATM    5  O   UNK N   1      37.432  12.538  12.281  0.00  0.00    -0.387 OA
BRANCH   5   6
HETATM    6  C   UNK N   1      36.102  12.180  12.511  0.00  0.00     0.194 C 
BRANCH   6   7
HETATM    7  C   UNK N   1      35.319  13.431  12.868  0.00  0.00     0.205 C 
BRANCH   7   8
HETATM    8  O   UNK N   1      34.964  13.420  14.196  0.00  0.00    -0.315 OA
BRANCH   8   9
HETATM    9  C   UNK N   1      35.791  13.628  15.262  0.00  0.00     0.293 C 
HETATM   10  O   UNK N   1      36.768  14.337  15.092  0.00  0.00    -0.259 OA
BRANCH   9  11
HETATM   11  C   UNK N   1      35.563  13.046  16.623  0.00  0.00     0.039 A 
HETATM   12  C   UNK N   1      35.344  13.842  17.758  0.00  0.00     0.020 A 
HETATM   13  C   UNK N   1      35.161  13.263  19.017  0.00  0.00     0.030 A 
HETATM   14  C   UNK N   1      35.193  11.875  19.158  0.00  0.00     0.028 A 
HETATM   15  C   UNK N   1      35.401  11.070  18.029  0.00  0.00     0.030 A 
HETATM   16  C   UNK N   1      35.583  11.652  16.774  0.00  0.00     0.020 A 
BRANCH  14  17
HETATM   17  N   UNK N   1      35.023  11.298  20.441  0.00  0.00    -0.390 N 
HETATM   18  H   UNK N   1      35.310  11.801  21.237  0.00  0.00     0.159 HD
BRANCH  17  19
HETATM   19  C   UNK N   1      34.439   9.993  20.602  0.00  0.00     0.119 C 
BRANCH  19  20
HETATM   20  C   UNK N   1      34.102   9.748  22.056  0.00  0.00     0.019 C 
BRANCH  20  21
HETATM   21  C   UNK N   1      32.775  10.413  22.355  0.00  0.00    -0.003 C 
HETATM   22  C   UNK N   1      32.320  10.043  23.749  0.00  0.00     0.005 C 
ENDBRANCH  20  21
ENDBRANCH  19  20
ENDBRANCH  17  19
ENDBRANCH  14  17
ENDBRANCH   9  11
ENDBRANCH   8   9
ENDBRANCH   7   8
ENDBRANCH   6   7
ENDBRANCH   5   6
ENDBRANCH   4   5
ENDBRANCH   3   4
ENDBRANCH   2   3
ENDBRANCH   1   2
BRANCH   1  23
HETATM   23  C   UNK N   1      35.687  14.980   9.643  0.00  0.00     0.193 C 
BRANCH  23  24
HETATM   24  O   UNK N   1      34.464  14.321   9.474  0.00  0.00    -0.387 OA
BRANCH  24  25
HETATM   25  C   UNK N   1      33.478  15.316   9.551  0.00  0.00     0.193 C 
BRANCH  25  26
HETATM   26  C   UNK N   1      33.976  16.651   8.994  0.00  0.00     0.193 C 
BRANCH  26  27
HETATM   27  O   UNK N   1      32.896  17.487   8.687  0.00  0.00    -0.387 OA
BRANCH  27  28
HETATM   28  C   UNK N   1      31.835  16.628   8.394  0.00  0.00     0.193 C 
BRANCH  28  29
HETATM   29  C   UNK N   1      30.552  17.424   8.219  0.00  0.00     0.193 C 
BRANCH  29  30
HETATM   30  O   UNK N   1      30.137  17.395   6.884  0.00  0.00    -0.387 OA
BRANCH  30  31
HETATM   31  C   UNK N   1      28.768  17.118   6.938  0.00  0.00     0.193 C 
BRANCH  31  32
HETATM   32  C   UNK N   1      28.203  17.047   5.532  0.00  0.00     0.193 C 
BRANCH  32  33
HETATM   33  O   UNK N   1      26.809  17.141   5.571  0.00  0.00    -0.387 OA
BRANCH  33  34
HETATM   34  C   UNK N   1      26.390  15.921   6.107  0.00  0.00     0.193 C 
BRANCH  34  35
HETATM   35  C   UNK N   1      24.874  15.802   6.046  0.00  0.00     0.193 C 
BRANCH  35  36
HETATM   36  O   UNK N   1      24.514  14.618   5.399  0.00  0.00    -0.387 OA
BRANCH  36  37
HETATM   37  C   UNK N   1      24.434  14.947   4.043  0.00  0.00     0.193 C 
BRANCH  37  38
HETATM   38  C   UNK N   1      23.714  16.276   3.876  0.00  0.00     0.193 C 
BRANCH  38  39
HETATM   39  O   UNK N   1      22.467  16.066   3.281  0.00  0.00    -0.387 OA
BRANCH  39  40
HETATM   40  C   UNK N   1      21.795  17.284   3.407  0.00  0.00     0.193 C 
BRANCH  40  41
HETATM   41  C   UNK N   1      20.488  17.227   2.634  0.00  0.00     0.193 C 
BRANCH  41  42
HETATM   42  O   UNK N   1      19.479  17.863   3.359  0.00  0.00    -0.394 OA
HETATM   43  C   UNK N   1      19.257  19.063   2.685  0.00  0.00     0.201 C 
ENDBRANCH  41  42
ENDBRANCH  40  41
ENDBRANCH  39  40
ENDBRANCH  38  39
ENDBRANCH  37  38
ENDBRANCH  36  37
ENDBRANCH  35  36
ENDBRANCH  34  35
ENDBRANCH  33  34
ENDBRANCH  32  33
ENDBRANCH  31  32
ENDBRANCH  30  31
ENDBRANCH  29  30
ENDBRANCH  28  29
ENDBRANCH  27  28
ENDBRANCH  26  27
ENDBRANCH  25  26
ENDBRANCH  24  25
ENDBRANCH  23  24
ENDBRANCH   1  23
TORSDOF 33
ENDMDL
