REMARK WARNING: 32 MAX_TORS EXCEEDED!!!
REMARK  33 active torsions:
REMARK  status: ('A' for Active; 'I' for Inactive)
REMARK    1  A    between atoms: O_1  and  C_23 
REMARK    2  A    between atoms: O_1  and  C_25 
REMARK    3  A    between atoms: O_2  and  C_24 
REMARK    4  A    between atoms: O_2  and  C_27 
REMARK    5  A    between atoms: O_3  and  C_26 
REMARK    6  A    between atoms: O_3  and  C_29 
REMARK    7  A    between atoms: O_4  and  C_28 
REMARK    8  A    between atoms: O_4  and  C_31 
REMARK    9  A    between atoms: O_5  and  C_30 
REMARK   10  A    between atoms: O_5  and  C_32 
REMARK   11  A    between atoms: O_6  and  C_33 
REMARK   12  A    between atoms: O_6  and  C_36 
REMARK   13  A    between atoms: O_7  and  C_35 
REMARK   14  A    between atoms: O_7  and  C_37 
REMARK   15  A    between atoms: O_8  and  C_34 
REMARK   16  A    between atoms: O_8  and  C_38 
REMARK   17  A    between atoms: O_9  and  C_39 
REMARK   18  A    between atoms: O_9  and  C_40 
REMARK   19  A    between atoms: O_11  and  C_41 
REMARK   20  A    between atoms: N_12  and  C_14 
REMARK   21  A    between atoms: N_12  and  C_16 
REMARK   22  A    between atoms: C_13  and  C_14 
REMARK   23  A    between atoms: C_13  and  C_15 
REMARK   24  A    between atoms: C_20  and  C_35 
REMARK   25  A    between atoms: C_23  and  C_24 
REMARK   26  A    between atoms: C_25  and  C_26 
REMARK   27  A    between atoms: C_27  and  C_28 
REMARK   28  A    between atoms: C_29  and  C_30 
REMARK   29  A    between atoms: C_31  and  C_34 
REMARK   30  A    between atoms: C_32  and  C_33 
REMARK   31  A    between atoms: C_36  and  C_37 
REMARK   32  A    between atoms: C_38  and  C_39 
REMARK   33  A    between atoms: C_40  and  C_41 
ROOT
HETATM    1  C   UNK N   1       5.763  -1.576   0.211  0.00  0.00     0.193 C 
ENDROOT
BRANCH   1   2
HETATM    2  O   UNK N   1       6.985  -2.260   0.207  0.00  0.00    -0.387 OA
BRANCH   2   3
HETATM    3  C   UNK N   1       6.945  -3.089  -0.920  0.00  0.00     0.193 C 
BRANCH   3   4
HETATM    4  C   UNK N   1       6.829  -4.556  -0.519  0.00  0.00     0.193 C 
BRANCH   4   5
HETATM    5  O   UNK N   1       5.891  -4.734   0.505  0.00  0.00    -0.387 OA
BRANCH   5   6
HETATM    6  C   UNK N   1       4.642  -4.772  -0.119  0.00  0.00     0.194 C 
BRANCH   6   7
HETATM    7  C   UNK N   1       3.566  -4.618   0.941  0.00  0.00     0.205 C 
BRANCH   7   8
HETATM    8  O   UNK N   1       2.326  -4.491   0.360  0.00  0.00    -0.315 OA
BRANCH   8   9
HETATM    9  C   UNK N   1       1.521  -5.506  -0.070  0.00  0.00     0.293 C 
HETATM   10  O   UNK N   1       0.425  -5.212  -0.516  0.00  0.00    -0.259 OA
BRANCH   9  11
HETATM   11  C   UNK N   1       1.909  -6.952  -0.034  0.00  0.00     0.039 A 
HETATM   12  C   UNK N   1       3.149  -7.390   0.456  0.00  0.00     0.020 A 
HETATM   13  C   UNK N   1       3.486  -8.746   0.449  0.00  0.00     0.030 A 
HETATM   14  C   UNK N   1       2.584  -9.687  -0.049  0.00  0.00     0.028 A 
HETATM   15  C   UNK N   1       1.338  -9.262  -0.532  0.00  0.00     0.030 A 
HETATM   16  C   UNK N   1       1.005  -7.907  -0.523  0.00  0.00     0.020 A 
BRANCH  14  17
HETATM   17  N   UNK N   1       2.941 -11.058  -0.067  0.00  0.00    -0.390 N 
HETATM   18  H   UNK N   1       3.797 -11.338   0.331  0.00  0.00     0.159 HD
BRANCH  17  19
HETATM   19  C   UNK N   1       2.077 -12.048  -0.654  0.00  0.00     0.119 C 
BRANCH  19  20
HETATM   20  C   UNK N   1       1.625 -13.036   0.398  0.00  0.00     0.019 C 
BRANCH  20  21
HETATM   21  C   UNK N   1       0.387 -13.742  -0.113  0.00  0.00    -0.003 C 
HETATM   22  C   UNK N   1       0.174 -15.025   0.660  0.00  0.00     0.005 C 
ENDBRANCH  20  21
ENDBRANCH  19  20
ENDBRANCH  17  19
ENDBRANCH  14  17
ENDBRANCH   9  11
ENDBRANCH   8   9
ENDBRANCH   7   8
ENDBRANCH   6   7
ENDBRANCH   5   6
ENDBRANCH   4   5
ENDBRANCH   3   4
ENDBRANCH   2   3
ENDBRANCH   1   2
BRANCH   1  23
HETATM   23  C   UNK N   1       5.886  -0.311  -0.622  0.00  0.00     0.193 C 
BRANCH  23  24
HETATM   24  O   UNK N   1       4.930   0.641  -0.251  0.00  0.00    -0.387 OA
BRANCH  24  25
HETATM   25  C   UNK N   1       5.530   1.417   0.752  0.00  0.00     0.193 C 
BRANCH  25  26
HETATM   26  C   UNK N   1       6.396   2.532   0.163  0.00  0.00     0.193 C 
BRANCH  26  27
HETATM   27  O   UNK N   1       7.556   1.999  -0.412  0.00  0.00    -0.387 OA
BRANCH  27  28
HETATM   28  C   UNK N   1       8.520   2.036   0.598  0.00  0.00     0.193 C 
BRANCH  28  29
HETATM   29  C   UNK N   1       9.912   2.081  -0.011  0.00  0.00     0.193 C 
BRANCH  29  30
HETATM   30  O   UNK N   1      10.093   3.267  -0.729  0.00  0.00    -0.387 OA
BRANCH  30  31
HETATM   31  C   UNK N   1      10.837   4.092   0.119  0.00  0.00     0.193 C 
BRANCH  31  32
HETATM   32  C   UNK N   1      10.000   5.286   0.538  0.00  0.00     0.193 C 
BRANCH  32  33
HETATM   33  O   UNK N   1      10.055   6.278  -0.445  0.00  0.00    -0.387 OA
BRANCH  33  34
HETATM   34  C   UNK N   1       9.488   7.402   0.159  0.00  0.00     0.193 C 
BRANCH  34  35
HETATM   35  C   UNK N   1      10.572   8.355   0.640  0.00  0.00     0.193 C 
BRANCH  35  36
HETATM   36  O   UNK N   1      10.720   9.407  -0.267  0.00  0.00    -0.387 OA
BRANCH  36  37
HETATM   37  C   UNK N   1      12.097   9.528  -0.472  0.00  0.00     0.193 C 
BRANCH  37  38
HETATM   38  C   UNK N   1      12.630  10.728   0.295  0.00  0.00     0.193 C 
BRANCH  38  39
HETATM   39  O   UNK N   1      13.986  10.906   0.011  0.00  0.00    -0.387 OA
BRANCH  39  40
HETATM   40  C   UNK N   1      14.089  12.214  -0.468  0.00  0.00     0.193 C 
BRANCH  40  41
HETATM   41  C   UNK N   1      14.925  13.044   0.491  0.00  0.00     0.193 C 
BRANCH  41  42
HETATM   42  O   UNK N   1      14.996  14.363   0.040  0.00  0.00    -0.394 OA
HETATM   43  C   UNK N   1      16.352  14.586  -0.200  0.00  0.00     0.201 C 
ENDBRANCH  41  42
ENDBRANCH  40  41
ENDBRANCH  39  40
ENDBRANCH  38  39
ENDBRANCH  37  38
ENDBRANCH  36  37
ENDBRANCH  35  36
ENDBRANCH  34  35
ENDBRANCH  33  34
ENDBRANCH  32  33
ENDBRANCH  31  32
ENDBRANCH  30  31
ENDBRANCH  29  30
ENDBRANCH  28  29
ENDBRANCH  27  28
ENDBRANCH  26  27
ENDBRANCH  25  26
ENDBRANCH  24  25
ENDBRANCH  23  24
ENDBRANCH   1  23
TORSDOF 33
