MODEL 1
REMARK VINA RESULT:      -6.4      0.000      0.000
REMARK  5 active torsions:
REMARK  status: ('A' for Active; 'I' for Inactive)
REMARK    1  A    between atoms: O_2  and  C_13 
REMARK    2  A    between atoms: C_5  and  C_6 
REMARK    3  A    between atoms: C_5  and  C_13 
REMARK    4  A    between atoms: C_9  and  C_14 
REMARK    5  A    between atoms: C_14  and  C_15 
ROOT
HETATM    1  C   UNK N   1      32.484  17.294   7.518  0.00  0.00    -0.044 A 
HETATM    2  C   UNK N   1      31.634  17.715   8.554  0.00  0.00     0.009 A 
HETATM    3  C   UNK N   1      31.937  17.015   6.264  0.00  0.00     0.009 A 
HETATM    4  C   UNK N   1      29.714  17.570   7.066  0.00  0.00     0.015 A 
HETATM    5  C   UNK N   1      30.257  17.852   8.330  0.00  0.00     0.016 A 
HETATM    6  C   UNK N   1      30.572  17.152   6.043  0.00  0.00     0.016 A 
ENDROOT
BRANCH   4   7
HETATM    7  C   UNK N   1      28.252  17.713   6.820  0.00  0.00     0.199 C 
HETATM    8  O   UNK N   1      27.496  16.821   7.173  0.00  0.00    -0.286 OA
BRANCH   7   9
HETATM    9  C   UNK N   1      27.680  18.914   6.154  0.00  0.00     0.055 A 
HETATM   10  S   UNK N   1      27.177  19.004   4.580  0.00  0.00    -0.098 SA
HETATM   11  C   UNK N   1      26.671  20.585   4.524  0.00  0.00     0.050 A 
HETATM   12  C   UNK N   1      26.896  21.108   5.804  0.00  0.00     0.009 A 
HETATM   13  C   UNK N   1      27.459  20.174   6.716  0.00  0.00     0.023 A 
ENDBRANCH   7   9
ENDBRANCH   4   7
BRANCH   1  14
HETATM   14  C   UNK N   1      33.973  17.135   7.723  0.00  0.00     0.112 C 
HETATM   15  C   UNK N   1      34.705  16.033   6.965  0.00  0.00     0.026 C 
BRANCH  14  16
HETATM   16  C   UNK N   1      34.787  18.008   8.639  0.00  0.00     0.148 C 
HETATM   17  O   UNK N   1      35.027  19.169   8.347  0.00  0.00    -0.649 OA
BRANCH  16  18
HETATM   18  O   UNK N   1      35.258  17.507   9.797  0.00  0.00    -0.776 OA
HETATM   19  H   UNK N   1      35.802  16.744   9.791  0.00  0.00     0.167 HD
ENDBRANCH  16  18
ENDBRANCH  14  16
ENDBRANCH   1  14
TORSDOF 5
ENDMDL
MODEL 2
REMARK VINA RESULT:      -6.3     11.153     14.211
REMARK  5 active torsions:
REMARK  status: ('A' for Active; 'I' for Inactive)
REMARK    1  A    between atoms: O_2  and  C_13 
REMARK    2  A    between atoms: C_5  and  C_6 
REMARK    3  A    between atoms: C_5  and  C_13 
REMARK    4  A    between atoms: C_9  and  C_14 
REMARK    5  A    between atoms: C_14  and  C_15 
ROOT
HETATM    1  C   UNK N   1      27.290  25.518  -4.049  0.00  0.00    -0.044 A 
HETATM    2  C   UNK N   1      28.645  25.754  -4.339  0.00  0.00     0.009 A 
HETATM    3  C   UNK N   1      26.947  24.404  -3.280  0.00  0.00     0.009 A 
HETATM    4  C   UNK N   1      29.281  23.765  -3.090  0.00  0.00     0.015 A 
HETATM    5  C   UNK N   1      29.634  24.884  -3.862  0.00  0.00     0.016 A 
HETATM    6  C   UNK N   1      27.929  23.542  -2.808  0.00  0.00     0.016 A 
ENDROOT
BRANCH   4   7
HETATM    7  C   UNK N   1      30.326  22.835  -2.579  0.00  0.00     0.199 C 
HETATM    8  O   UNK N   1      30.649  22.886  -1.402  0.00  0.00    -0.286 OA
BRANCH   7   9
HETATM    9  C   UNK N   1      30.994  21.841  -3.461  0.00  0.00     0.055 A 
HETATM   10  S   UNK N   1      32.574  21.360  -3.359  0.00  0.00    -0.098 SA
HETATM   11  C   UNK N   1      32.630  20.269  -4.611  0.00  0.00     0.050 A 
HETATM   12  C   UNK N   1      31.344  20.256  -5.168  0.00  0.00     0.009 A 
HETATM   13  C   UNK N   1      30.430  21.134  -4.526  0.00  0.00     0.023 A 
ENDBRANCH   7   9
ENDBRANCH   4   7
BRANCH   1  14
HETATM   14  C   UNK N   1      26.196  26.434  -4.545  0.00  0.00     0.112 C 
HETATM   15  C   UNK N   1      25.533  26.129  -5.884  0.00  0.00     0.026 C 
BRANCH  14  16
HETATM   16  C   UNK N   1      25.715  27.644  -3.790  0.00  0.00     0.148 C 
HETATM   17  O   UNK N   1      25.821  27.706  -2.576  0.00  0.00    -0.649 OA
BRANCH  16  18
HETATM   18  O   UNK N   1      25.160  28.673  -4.459  0.00  0.00    -0.776 OA
HETATM   19  H   UNK N   1      25.698  29.372  -4.775  0.00  0.00     0.167 HD
ENDBRANCH  16  18
ENDBRANCH  14  16
ENDBRANCH   1  14
TORSDOF 5
ENDMDL
MODEL 3
REMARK VINA RESULT:      -6.2      9.747     10.768
REMARK  5 active torsions:
REMARK  status: ('A' for Active; 'I' for Inactive)
REMARK    1  A    between atoms: O_2  and  C_13 
REMARK    2  A    between atoms: C_5  and  C_6 
REMARK    3  A    between atoms: C_5  and  C_13 
REMARK    4  A    between atoms: C_9  and  C_14 
REMARK    5  A    between atoms: C_14  and  C_15 
ROOT
HETATM    1  C   UNK N   1      22.358  13.247   9.192  0.00  0.00    -0.044 A 
HETATM    2  C   UNK N   1      22.530  13.966   7.998  0.00  0.00     0.009 A 
HETATM    3  C   UNK N   1      21.236  13.507   9.984  0.00  0.00     0.009 A 
HETATM    4  C   UNK N   1      20.465  15.185   8.409  0.00  0.00     0.015 A 
HETATM    5  C   UNK N   1      21.590  14.929   7.608  0.00  0.00     0.016 A 
HETATM    6  C   UNK N   1      20.305  14.462   9.596  0.00  0.00     0.016 A 
ENDROOT
BRANCH   4   7
HETATM    7  C   UNK N   1      19.461  16.207   8.002  0.00  0.00     0.199 C 
HETATM    8  O   UNK N   1      19.027  16.198   6.859  0.00  0.00    -0.286 OA
BRANCH   7   9
HETATM    9  C   UNK N   1      18.966  17.244   8.946  0.00  0.00     0.055 A 
HETATM   10  S   UNK N   1      17.474  17.273   9.660  0.00  0.00    -0.098 SA
HETATM   11  C   UNK N   1      17.605  18.666  10.557  0.00  0.00     0.050 A 
HETATM   12  C   UNK N   1      18.889  19.167  10.305  0.00  0.00     0.009 A 
HETATM   13  C   UNK N   1      19.650  18.373   9.404  0.00  0.00     0.023 A 
ENDBRANCH   7   9
ENDBRANCH   4   7
BRANCH   1  14
HETATM   14  C   UNK N   1      23.350  12.201   9.645  0.00  0.00     0.112 C 
HETATM   15  C   UNK N   1      23.811  11.145   8.647  0.00  0.00     0.026 C 
BRANCH  14  16
HETATM   16  C   UNK N   1      23.918  12.138  11.038  0.00  0.00     0.148 C 
HETATM   17  O   UNK N   1      23.291  11.616  11.946  0.00  0.00    -0.649 OA
BRANCH  16  18
HETATM   18  O   UNK N   1      25.133  12.663  11.289  0.00  0.00    -0.776 OA
HETATM   19  H   UNK N   1      25.230  13.588  11.402  0.00  0.00     0.167 HD
ENDBRANCH  16  18
ENDBRANCH  14  16
ENDBRANCH   1  14
TORSDOF 5
ENDMDL
MODEL 4
REMARK VINA RESULT:      -6.0      3.840      6.266
REMARK  5 active torsions:
REMARK  status: ('A' for Active; 'I' for Inactive)
REMARK    1  A    between atoms: O_2  and  C_13 
REMARK    2  A    between atoms: C_5  and  C_6 
REMARK    3  A    between atoms: C_5  and  C_13 
REMARK    4  A    between atoms: C_9  and  C_14 
REMARK    5  A    between atoms: C_14  and  C_15 
ROOT
HETATM    1  C   UNK N   1      35.945  14.794  10.879  0.00  0.00    -0.044 A 
HETATM    2  C   UNK N   1      35.606  14.484   9.552  0.00  0.00     0.009 A 
HETATM    3  C   UNK N   1      35.784  16.106  11.330  0.00  0.00     0.009 A 
HETATM    4  C   UNK N   1      34.955  16.794   9.155  0.00  0.00     0.015 A 
HETATM    5  C   UNK N   1      35.114  15.477   8.695  0.00  0.00     0.016 A 
HETATM    6  C   UNK N   1      35.296  17.090  10.479  0.00  0.00     0.016 A 
ENDROOT
BRANCH   4   7
HETATM    7  C   UNK N   1      34.432  17.856   8.251  0.00  0.00     0.199 C 
HETATM    8  O   UNK N   1      34.877  18.990   8.340  0.00  0.00    -0.286 OA
BRANCH   7   9
HETATM    9  C   UNK N   1      33.380  17.578   7.236  0.00  0.00     0.055 A 
HETATM   10  S   UNK N   1      31.780  17.299   7.549  0.00  0.00    -0.098 SA
HETATM   11  C   UNK N   1      31.213  17.073   6.004  0.00  0.00     0.050 A 
HETATM   12  C   UNK N   1      32.323  17.219   5.162  0.00  0.00     0.009 A 
HETATM   13  C   UNK N   1      33.535  17.502   5.850  0.00  0.00     0.023 A 
ENDBRANCH   7   9
ENDBRANCH   4   7
BRANCH   1  14
HETATM   14  C   UNK N   1      36.479  13.750  11.832  0.00  0.00     0.112 C 
HETATM   15  C   UNK N   1      37.484  12.727  11.314  0.00  0.00     0.026 C 
BRANCH  14  16
HETATM   16  C   UNK N   1      36.073  13.656  13.279  0.00  0.00     0.148 C 
HETATM   17  O   UNK N   1      34.900  13.536  13.593  0.00  0.00    -0.649 OA
BRANCH  16  18
HETATM   18  O   UNK N   1      37.014  13.705  14.242  0.00  0.00    -0.776 OA
HETATM   19  H   UNK N   1      37.565  14.459  14.321  0.00  0.00     0.167 HD
ENDBRANCH  16  18
ENDBRANCH  14  16
ENDBRANCH   1  14
TORSDOF 5
ENDMDL
MODEL 5
REMARK VINA RESULT:      -6.0     12.057     14.421
REMARK  5 active torsions:
REMARK  status: ('A' for Active; 'I' for Inactive)
REMARK    1  A    between atoms: O_2  and  C_13 
REMARK    2  A    between atoms: C_5  and  C_6 
REMARK    3  A    between atoms: C_5  and  C_13 
REMARK    4  A    between atoms: C_9  and  C_14 
REMARK    5  A    between atoms: C_14  and  C_15 
ROOT
HETATM    1  C   UNK N   1      35.764  12.650  16.369  0.00  0.00    -0.044 A 
HETATM    2  C   UNK N   1      35.310  13.291  17.534  0.00  0.00     0.009 A 
HETATM    3  C   UNK N   1      36.062  11.286  16.418  0.00  0.00     0.009 A 
HETATM    4  C   UNK N   1      35.459  11.199  18.768  0.00  0.00     0.015 A 
HETATM    5  C   UNK N   1      35.158  12.570  18.726  0.00  0.00     0.016 A 
HETATM    6  C   UNK N   1      35.911  10.573  17.601  0.00  0.00     0.016 A 
ENDROOT
BRANCH   4   7
HETATM    7  C   UNK N   1      35.301  10.426  20.031  0.00  0.00     0.199 C 
HETATM    8  O   UNK N   1      36.240  10.352  20.809  0.00  0.00    -0.286 OA
BRANCH   7   9
HETATM    9  C   UNK N   1      34.029   9.738  20.379  0.00  0.00     0.055 A 
HETATM   10  S   UNK N   1      33.240   9.831  21.830  0.00  0.00    -0.098 SA
HETATM   11  C   UNK N   1      31.938   8.846  21.521  0.00  0.00     0.050 A 
HETATM   12  C   UNK N   1      32.099   8.397  20.203  0.00  0.00     0.009 A 
HETATM   13  C   UNK N   1      33.267   8.895  19.564  0.00  0.00     0.023 A 
ENDBRANCH   7   9
ENDBRANCH   4   7
BRANCH   1  14
HETATM   14  C   UNK N   1      35.940  13.394  15.065  0.00  0.00     0.112 C 
HETATM   15  C   UNK N   1      35.184  12.908  13.834  0.00  0.00     0.026 C 
BRANCH  14  16
HETATM   16  C   UNK N   1      36.827  14.600  14.907  0.00  0.00     0.148 C 
HETATM   17  O   UNK N   1      37.562  14.959  15.812  0.00  0.00    -0.649 OA
BRANCH  16  18
HETATM   18  O   UNK N   1      36.810  15.295  13.752  0.00  0.00    -0.776 OA
HETATM   19  H   UNK N   1      35.998  15.456  13.314  0.00  0.00     0.167 HD
ENDBRANCH  16  18
ENDBRANCH  14  16
ENDBRANCH   1  14
TORSDOF 5
ENDMDL
MODEL 6
REMARK VINA RESULT:      -5.9      8.839     11.412
REMARK  5 active torsions:
REMARK  status: ('A' for Active; 'I' for Inactive)
REMARK    1  A    between atoms: O_2  and  C_13 
REMARK    2  A    between atoms: C_5  and  C_6 
REMARK    3  A    between atoms: C_5  and  C_13 
REMARK    4  A    between atoms: C_9  and  C_14 
REMARK    5  A    between atoms: C_14  and  C_15 
ROOT
HETATM    1  C   UNK N   1      35.426  12.693  16.340  0.00  0.00    -0.044 A 
HETATM    2  C   UNK N   1      34.515  12.107  15.444  0.00  0.00     0.009 A 
HETATM    3  C   UNK N   1      36.325  13.649  15.862  0.00  0.00     0.009 A 
HETATM    4  C   UNK N   1      35.418  13.440  13.620  0.00  0.00     0.015 A 
HETATM    5  C   UNK N   1      34.511  12.478  14.093  0.00  0.00     0.016 A 
HETATM    6  C   UNK N   1      36.320  14.016  14.522  0.00  0.00     0.016 A 
ENDROOT
BRANCH   4   7
HETATM    7  C   UNK N   1      35.421  13.840  12.185  0.00  0.00     0.199 C 
HETATM    8  O   UNK N   1      34.406  14.311  11.694  0.00  0.00    -0.286 OA
BRANCH   7   9
HETATM    9  C   UNK N   1      36.624  13.682  11.326  0.00  0.00     0.055 A 
HETATM   10  S   UNK N   1      37.723  12.449  11.412  0.00  0.00    -0.098 SA
HETATM   11  C   UNK N   1      38.766  12.899  10.199  0.00  0.00     0.050 A 
HETATM   12  C   UNK N   1      38.250  14.090   9.671  0.00  0.00     0.009 A 
HETATM   13  C   UNK N   1      37.054  14.528  10.300  0.00  0.00     0.023 A 
ENDBRANCH   7   9
ENDBRANCH   4   7
BRANCH   1  14
HETATM   14  C   UNK N   1      35.460  12.319  17.803  0.00  0.00     0.112 C 
HETATM   15  C   UNK N   1      35.732  10.868  18.185  0.00  0.00     0.026 C 
BRANCH  14  16
HETATM   16  C   UNK N   1      35.239  13.303  18.921  0.00  0.00     0.148 C 
HETATM   17  O   UNK N   1      35.168  14.500  18.695  0.00  0.00    -0.649 OA
BRANCH  16  18
HETATM   18  O   UNK N   1      35.116  12.860  20.188  0.00  0.00    -0.776 OA
HETATM   19  H   UNK N   1      34.854  13.449  20.867  0.00  0.00     0.167 HD
ENDBRANCH  16  18
ENDBRANCH  14  16
ENDBRANCH   1  14
TORSDOF 5
ENDMDL
MODEL 7
REMARK VINA RESULT:      -5.8     13.104     15.223
REMARK  5 active torsions:
REMARK  status: ('A' for Active; 'I' for Inactive)
REMARK    1  A    between atoms: O_2  and  C_13 
REMARK    2  A    between atoms: C_5  and  C_6 
REMARK    3  A    between atoms: C_5  and  C_13 
REMARK    4  A    between atoms: C_9  and  C_14 
REMARK    5  A    between atoms: C_14  and  C_15 
ROOT
HETATM    1  C   UNK N   1      35.264  11.905  17.733  0.00  0.00    -0.044 A 
HETATM    2  C   UNK N   1      34.984  10.754  16.978  0.00  0.00     0.009 A 
HETATM    3  C   UNK N   1      35.259  11.819  19.127  0.00  0.00     0.009 A 
HETATM    4  C   UNK N   1      34.699   9.459  19.018  0.00  0.00     0.015 A 
HETATM    5  C   UNK N   1      34.703   9.539  17.616  0.00  0.00     0.016 A 
HETATM    6  C   UNK N   1      34.980  10.613  19.758  0.00  0.00     0.016 A 
ENDROOT
BRANCH   4   7
HETATM    7  C   UNK N   1      34.401   8.171  19.704  0.00  0.00     0.199 C 
HETATM    8  O   UNK N   1      35.323   7.429  20.008  0.00  0.00    -0.286 OA
BRANCH   7   9
HETATM    9  C   UNK N   1      33.011   7.757  20.033  0.00  0.00     0.055 A 
HETATM   10  S   UNK N   1      32.557   6.296  20.663  0.00  0.00    -0.098 SA
HETATM   11  C   UNK N   1      30.915   6.520  20.771  0.00  0.00     0.050 A 
HETATM   12  C   UNK N   1      30.670   7.813  20.290  0.00  0.00     0.009 A 
HETATM   13  C   UNK N   1      31.841   8.505  19.878  0.00  0.00     0.023 A 
ENDBRANCH   7   9
ENDBRANCH   4   7
BRANCH   1  14
HETATM   14  C   UNK N   1      35.572  13.233  17.080  0.00  0.00     0.112 C 
HETATM   15  C   UNK N   1      35.545  14.496  17.935  0.00  0.00     0.026 C 
BRANCH  14  16
HETATM   16  C   UNK N   1      35.907  13.387  15.621  0.00  0.00     0.148 C 
HETATM   17  O   UNK N   1      35.026  13.406  14.776  0.00  0.00    -0.649 OA
BRANCH  16  18
HETATM   18  O   UNK N   1      37.193  13.505  15.239  0.00  0.00    -0.776 OA
HETATM   19  H   UNK N   1      37.827  13.860  15.831  0.00  0.00     0.167 HD
ENDBRANCH  16  18
ENDBRANCH  14  16
ENDBRANCH   1  14
TORSDOF 5
ENDMDL
MODEL 8
REMARK VINA RESULT:      -5.8      4.408      9.239
REMARK  5 active torsions:
REMARK  status: ('A' for Active; 'I' for Inactive)
REMARK    1  A    between atoms: O_2  and  C_13 
REMARK    2  A    between atoms: C_5  and  C_6 
REMARK    3  A    between atoms: C_5  and  C_13 
REMARK    4  A    between atoms: C_9  and  C_14 
REMARK    5  A    between atoms: C_14  and  C_15 
ROOT
HETATM    1  C   UNK N   1      23.529  19.452   3.578  0.00  0.00    -0.044 A 
HETATM    2  C   UNK N   1      24.488  20.409   3.204  0.00  0.00     0.009 A 
HETATM    3  C   UNK N   1      23.908  18.409   4.426  0.00  0.00     0.009 A 
HETATM    4  C   UNK N   1      26.178  19.264   4.527  0.00  0.00     0.015 A 
HETATM    5  C   UNK N   1      25.804  20.315   3.675  0.00  0.00     0.016 A 
HETATM    6  C   UNK N   1      25.214  18.318   4.892  0.00  0.00     0.016 A 
ENDROOT
BRANCH   4   7
HETATM    7  C   UNK N   1      27.575  19.157   5.032  0.00  0.00     0.199 C 
HETATM    8  O   UNK N   1      28.501  19.485   4.304  0.00  0.00    -0.286 OA
BRANCH   7   9
HETATM    9  C   UNK N   1      27.882  18.663   6.400  0.00  0.00     0.055 A 
HETATM   10  S   UNK N   1      28.223  17.097   6.812  0.00  0.00    -0.098 SA
HETATM   11  C   UNK N   1      28.457  17.268   8.448  0.00  0.00     0.050 A 
HETATM   12  C   UNK N   1      28.263  18.628   8.725  0.00  0.00     0.009 A 
HETATM   13  C   UNK N   1      27.942  19.408   7.581  0.00  0.00     0.023 A 
ENDBRANCH   7   9
ENDBRANCH   4   7
BRANCH   1  14
HETATM   14  C   UNK N   1      22.100  19.520   3.091  0.00  0.00     0.112 C 
HETATM   15  C   UNK N   1      21.113  18.457   3.558  0.00  0.00     0.026 C 
BRANCH  14  16
HETATM   16  C   UNK N   1      21.586  20.587   2.161  0.00  0.00     0.148 C 
HETATM   17  O   UNK N   1      21.542  20.397   0.956  0.00  0.00    -0.649 OA
BRANCH  16  18
HETATM   18  O   UNK N   1      21.169  21.766   2.661  0.00  0.00    -0.776 OA
HETATM   19  H   UNK N   1      20.514  21.786   3.330  0.00  0.00     0.167 HD
ENDBRANCH  16  18
ENDBRANCH  14  16
ENDBRANCH   1  14
TORSDOF 5
ENDMDL
MODEL 9
REMARK VINA RESULT:      -5.6      8.850     11.613
REMARK  5 active torsions:
REMARK  status: ('A' for Active; 'I' for Inactive)
REMARK    1  A    between atoms: O_2  and  C_13 
REMARK    2  A    between atoms: C_5  and  C_6 
REMARK    3  A    between atoms: C_5  and  C_13 
REMARK    4  A    between atoms: C_9  and  C_14 
REMARK    5  A    between atoms: C_14  and  C_15 
ROOT
HETATM    1  C   UNK N   1      35.382  12.418  16.361  0.00  0.00    -0.044 A 
HETATM    2  C   UNK N   1      36.186  13.509  15.989  0.00  0.00     0.009 A 
HETATM    3  C   UNK N   1      34.590  11.799  15.392  0.00  0.00     0.009 A 
HETATM    4  C   UNK N   1      35.390  13.340  13.695  0.00  0.00     0.015 A 
HETATM    5  C   UNK N   1      36.190  13.967  14.664  0.00  0.00     0.016 A 
HETATM    6  C   UNK N   1      34.595  12.255  14.079  0.00  0.00     0.016 A 
ENDROOT
BRANCH   4   7
HETATM    7  C   UNK N   1      35.389  13.821  12.286  0.00  0.00     0.199 C 
HETATM    8  O   UNK N   1      34.382  14.344  11.834  0.00  0.00    -0.286 OA
BRANCH   7   9
HETATM    9  C   UNK N   1      36.580  13.684  11.406  0.00  0.00     0.055 A 
HETATM   10  S   UNK N   1      36.935  14.632  10.098  0.00  0.00    -0.098 SA
HETATM   11  C   UNK N   1      38.361  13.936   9.607  0.00  0.00     0.050 A 
HETATM   12  C   UNK N   1      38.606  12.888  10.505  0.00  0.00     0.009 A 
HETATM   13  C   UNK N   1      37.611  12.746  11.510  0.00  0.00     0.023 A 
ENDBRANCH   7   9
ENDBRANCH   4   7
BRANCH   1  14
HETATM   14  C   UNK N   1      35.352  11.896  17.779  0.00  0.00     0.112 C 
HETATM   15  C   UNK N   1      35.201  12.891  18.925  0.00  0.00     0.026 C 
BRANCH  14  16
HETATM   16  C   UNK N   1      35.462  10.437  18.133  0.00  0.00     0.148 C 
HETATM   17  O   UNK N   1      34.481   9.805  18.490  0.00  0.00    -0.649 OA
BRANCH  16  18
HETATM   18  O   UNK N   1      36.656   9.819  18.055  0.00  0.00    -0.776 OA
HETATM   19  H   UNK N   1      37.184   9.913  17.287  0.00  0.00     0.167 HD
ENDBRANCH  16  18
ENDBRANCH  14  16
ENDBRANCH   1  14
TORSDOF 5
ENDMDL
