MODEL 1
REMARK VINA RESULT:      -5.6      0.000      0.000
REMARK  7 active torsions:
REMARK  status: ('A' for Active; 'I' for Inactive)
REMARK    1  A    between atoms: O_1  and  C_7 
REMARK    2  A    between atoms: O_2  and  C_14 
REMARK    3  A    between atoms: O_3  and  C_15 
REMARK    4  A    between atoms: N_4  and  C_5 
REMARK    5  A    between atoms: N_4  and  C_6 
REMARK    6  A    between atoms: C_6  and  C_7 
REMARK    7  A    between atoms: C_7  and  C_11 
ROOT
HETATM    1  C   UNK N   1      35.656  14.774  12.241  0.00  0.00    -0.023 A 
HETATM    2  C   UNK N   1      36.451  14.831  13.394  0.00  0.00     0.046 A 
HETATM    3  C   UNK N   1      34.902  13.617  11.983  0.00  0.00     0.046 A 
HETATM    4  C   UNK N   1      34.945  12.536  12.870  0.00  0.00     0.069 A 
HETATM    5  C   UNK N   1      36.481  13.758  14.286  0.00  0.00     0.069 A 
HETATM    6  C   UNK N   1      35.732  12.609  14.023  0.00  0.00     0.073 A 
ENDROOT
BRANCH   1   7
HETATM    7  C   UNK N   1      35.678  15.921  11.270  0.00  0.00     0.168 C 
BRANCH   7   8
HETATM    8  O   UNK N   1      36.964  16.178  10.786  0.00  0.00    -0.389 OA
HETATM    9  H   UNK N   1      37.528  15.451  10.480  0.00  0.00     0.210 HD
ENDBRANCH   7   8
BRANCH   7  10
HETATM   10  C   UNK N   1      34.719  15.730  10.109  0.00  0.00     0.151 C 
BRANCH  10  11
HETATM   11  N   UNK N   1      34.004  16.987   9.899  0.00  0.00    -0.411 N 
HETATM   12  H   UNK N   1      33.637  17.565  10.655  0.00  0.00     0.154 HD
BRANCH  11  13
HETATM   13  C   UNK N   1      33.873  17.324   8.478  0.00  0.00     0.014 C 
HETATM   14  C   UNK N   1      34.689  18.572   8.211  0.00  0.00     0.037 C 
HETATM   15  C   UNK N   1      34.418  16.205   7.608  0.00  0.00     0.037 C 
HETATM   16  C   UNK N   1      32.428  17.621   8.102  0.00  0.00     0.037 C 
ENDBRANCH  11  13
ENDBRANCH  10  11
ENDBRANCH   7  10
ENDBRANCH   1   7
BRANCH   5  17
HETATM   17  O   UNK N   1      37.233  13.829  15.397  0.00  0.00    -0.361 OA
HETATM   18  H   UNK N   1      36.825  13.910  16.236  0.00  0.00     0.217 HD
ENDBRANCH   5  17
BRANCH   4  19
HETATM   19  O   UNK N   1      34.239  11.424  12.609  0.00  0.00    -0.361 OA
HETATM   20  H   UNK N   1      34.298  11.000  11.776  0.00  0.00     0.217 HD
ENDBRANCH   4  19
TORSDOF 7
ENDMDL
MODEL 2
REMARK VINA RESULT:      -5.5      6.508      9.129
REMARK  7 active torsions:
REMARK  status: ('A' for Active; 'I' for Inactive)
REMARK    1  A    between atoms: O_1  and  C_7 
REMARK    2  A    between atoms: O_2  and  C_14 
REMARK    3  A    between atoms: O_3  and  C_15 
REMARK    4  A    between atoms: N_4  and  C_5 
REMARK    5  A    between atoms: N_4  and  C_6 
REMARK    6  A    between atoms: C_6  and  C_7 
REMARK    7  A    between atoms: C_7  and  C_11 
ROOT
HETATM    1  C   UNK N   1      29.564  17.524   6.523  0.00  0.00    -0.023 A 
HETATM    2  C   UNK N   1      28.436  17.856   7.288  0.00  0.00     0.046 A 
HETATM    3  C   UNK N   1      30.772  17.227   7.175  0.00  0.00     0.046 A 
HETATM    4  C   UNK N   1      30.848  17.262   8.571  0.00  0.00     0.069 A 
HETATM    5  C   UNK N   1      28.509  17.875   8.683  0.00  0.00     0.069 A 
HETATM    6  C   UNK N   1      29.714  17.582   9.324  0.00  0.00     0.073 A 
ENDROOT
BRANCH   1   7
HETATM    7  C   UNK N   1      29.475  17.559   5.024  0.00  0.00     0.168 C 
BRANCH   7   8
HETATM    8  O   UNK N   1      30.019  16.413   4.435  0.00  0.00    -0.389 OA
HETATM    9  H   UNK N   1      30.107  16.351   3.471  0.00  0.00     0.210 HD
ENDBRANCH   7   8
BRANCH   7  10
HETATM   10  C   UNK N   1      28.059  17.773   4.522  0.00  0.00     0.151 C 
BRANCH  10  11
HETATM   11  N   UNK N   1      28.002  19.078   3.866  0.00  0.00    -0.411 N 
HETATM   12  H   UNK N   1      28.698  19.408   3.197  0.00  0.00     0.154 HD
BRANCH  11  13
HETATM   13  C   UNK N   1      26.831  19.859   4.276  0.00  0.00     0.014 C 
HETATM   14  C   UNK N   1      25.804  18.907   4.851  0.00  0.00     0.037 C 
HETATM   15  C   UNK N   1      27.206  20.862   5.354  0.00  0.00     0.037 C 
HETATM   16  C   UNK N   1      26.193  20.578   3.095  0.00  0.00     0.037 C 
ENDBRANCH  11  13
ENDBRANCH  10  11
ENDBRANCH   7  10
ENDBRANCH   1   7
BRANCH   5  17
HETATM   17  O   UNK N   1      27.418  18.178   9.407  0.00  0.00    -0.361 OA
HETATM   18  H   UNK N   1      26.916  18.941   9.201  0.00  0.00     0.217 HD
ENDBRANCH   5  17
BRANCH   4  19
HETATM   19  O   UNK N   1      32.010  16.998   9.188  0.00  0.00    -0.361 OA
HETATM   20  H   UNK N   1      32.814  17.370   8.884  0.00  0.00     0.217 HD
ENDBRANCH   4  19
TORSDOF 7
ENDMDL
MODEL 3
REMARK VINA RESULT:      -5.5      6.557      9.057
REMARK  7 active torsions:
REMARK  status: ('A' for Active; 'I' for Inactive)
REMARK    1  A    between atoms: O_1  and  C_7 
REMARK    2  A    between atoms: O_2  and  C_14 
REMARK    3  A    between atoms: O_3  and  C_15 
REMARK    4  A    between atoms: N_4  and  C_5 
REMARK    5  A    between atoms: N_4  and  C_6 
REMARK    6  A    between atoms: C_6  and  C_7 
REMARK    7  A    between atoms: C_7  and  C_11 
ROOT
HETATM    1  C   UNK N   1      29.502  17.554   6.498  0.00  0.00    -0.023 A 
HETATM    2  C   UNK N   1      30.727  17.274   7.121  0.00  0.00     0.046 A 
HETATM    3  C   UNK N   1      28.384  17.863   7.290  0.00  0.00     0.046 A 
HETATM    4  C   UNK N   1      28.493  17.892   8.684  0.00  0.00     0.069 A 
HETATM    5  C   UNK N   1      30.839  17.320   8.513  0.00  0.00     0.069 A 
HETATM    6  C   UNK N   1      29.722  17.624   9.294  0.00  0.00     0.073 A 
ENDROOT
BRANCH   1   7
HETATM    7  C   UNK N   1      29.394  17.450   5.003  0.00  0.00     0.168 C 
BRANCH   7   8
HETATM    8  O   UNK N   1      29.820  16.206   4.527  0.00  0.00    -0.389 OA
HETATM    9  H   UNK N   1      30.651  15.818   4.843  0.00  0.00     0.210 HD
ENDBRANCH   7   8
BRANCH   7  10
HETATM   10  C   UNK N   1      27.995  17.746   4.492  0.00  0.00     0.151 C 
BRANCH  10  11
HETATM   11  N   UNK N   1      28.004  19.080   3.894  0.00  0.00    -0.411 N 
HETATM   12  H   UNK N   1      28.741  19.422   3.278  0.00  0.00     0.154 HD
BRANCH  11  13
HETATM   13  C   UNK N   1      26.832  19.872   4.280  0.00  0.00     0.014 C 
HETATM   14  C   UNK N   1      25.791  18.931   4.850  0.00  0.00     0.037 C 
HETATM   15  C   UNK N   1      27.197  20.883   5.353  0.00  0.00     0.037 C 
HETATM   16  C   UNK N   1      26.215  20.582   3.083  0.00  0.00     0.037 C 
ENDBRANCH  11  13
ENDBRANCH  10  11
ENDBRANCH   7  10
ENDBRANCH   1   7
BRANCH   5  17
HETATM   17  O   UNK N   1      32.021  17.067   9.099  0.00  0.00    -0.361 OA
HETATM   18  H   UNK N   1      32.059  16.879  10.016  0.00  0.00     0.217 HD
ENDBRANCH   5  17
BRANCH   4  19
HETATM   19  O   UNK N   1      27.416  18.167   9.437  0.00  0.00    -0.361 OA
HETATM   20  H   UNK N   1      27.281  19.024   9.792  0.00  0.00     0.217 HD
ENDBRANCH   4  19
TORSDOF 7
ENDMDL
MODEL 4
REMARK VINA RESULT:      -5.5      6.153      9.930
REMARK  7 active torsions:
REMARK  status: ('A' for Active; 'I' for Inactive)
REMARK    1  A    between atoms: O_1  and  C_7 
REMARK    2  A    between atoms: O_2  and  C_14 
REMARK    3  A    between atoms: O_3  and  C_15 
REMARK    4  A    between atoms: N_4  and  C_5 
REMARK    5  A    between atoms: N_4  and  C_6 
REMARK    6  A    between atoms: C_6  and  C_7 
REMARK    7  A    between atoms: C_7  and  C_11 
ROOT
HETATM    1  C   UNK N   1      28.218  18.992   7.312  0.00  0.00    -0.023 A 
HETATM    2  C   UNK N   1      28.529  18.280   6.145  0.00  0.00     0.046 A 
HETATM    3  C   UNK N   1      27.599  20.249   7.205  0.00  0.00     0.046 A 
HETATM    4  C   UNK N   1      27.295  20.780   5.948  0.00  0.00     0.069 A 
HETATM    5  C   UNK N   1      28.210  18.804   4.891  0.00  0.00     0.069 A 
HETATM    6  C   UNK N   1      27.599  20.056   4.791  0.00  0.00     0.073 A 
ENDROOT
BRANCH   1   7
HETATM    7  C   UNK N   1      28.615  18.431   8.648  0.00  0.00     0.168 C 
BRANCH   7   8
HETATM    8  O   UNK N   1      27.511  17.989   9.385  0.00  0.00    -0.389 OA
HETATM    9  H   UNK N   1      27.043  17.179   9.129  0.00  0.00     0.210 HD
ENDBRANCH   7   8
BRANCH   7  10
HETATM   10  C   UNK N   1      29.640  17.317   8.538  0.00  0.00     0.151 C 
BRANCH  10  11
HETATM   11  N   UNK N   1      30.935  17.850   8.957  0.00  0.00    -0.411 N 
HETATM   12  H   UNK N   1      31.049  18.574   9.666  0.00  0.00     0.154 HD
BRANCH  11  13
HETATM   13  C   UNK N   1      32.053  17.225   8.243  0.00  0.00     0.014 C 
HETATM   14  C   UNK N   1      31.602  16.921   6.830  0.00  0.00     0.037 C 
HETATM   15  C   UNK N   1      33.240  18.171   8.171  0.00  0.00     0.037 C 
HETATM   16  C   UNK N   1      32.472  15.913   8.893  0.00  0.00     0.037 C 
ENDBRANCH  11  13
ENDBRANCH  10  11
ENDBRANCH   7  10
ENDBRANCH   1   7
BRANCH   5  17
HETATM   17  O   UNK N   1      28.497  18.106   3.779  0.00  0.00    -0.361 OA
HETATM   18  H   UNK N   1      29.389  17.918   3.561  0.00  0.00     0.217 HD
ENDBRANCH   5  17
BRANCH   4  19
HETATM   19  O   UNK N   1      26.723  21.991   5.850  0.00  0.00    -0.361 OA
HETATM   20  H   UNK N   1      25.791  22.082   5.814  0.00  0.00     0.217 HD
ENDBRANCH   4  19
TORSDOF 7
ENDMDL
MODEL 5
REMARK VINA RESULT:      -5.4     11.947     15.432
REMARK  7 active torsions:
REMARK  status: ('A' for Active; 'I' for Inactive)
REMARK    1  A    between atoms: O_1  and  C_7 
REMARK    2  A    between atoms: O_2  and  C_14 
REMARK    3  A    between atoms: O_3  and  C_15 
REMARK    4  A    between atoms: N_4  and  C_5 
REMARK    5  A    between atoms: N_4  and  C_6 
REMARK    6  A    between atoms: C_6  and  C_7 
REMARK    7  A    between atoms: C_7  and  C_11 
ROOT
HETATM    1  C   UNK N   1      22.457  18.763   3.692  0.00  0.00    -0.023 A 
HETATM    2  C   UNK N   1      22.349  20.020   3.080  0.00  0.00     0.046 A 
HETATM    3  C   UNK N   1      21.324  17.936   3.767  0.00  0.00     0.046 A 
HETATM    4  C   UNK N   1      20.103  18.363   3.235  0.00  0.00     0.069 A 
HETATM    5  C   UNK N   1      21.133  20.439   2.534  0.00  0.00     0.069 A 
HETATM    6  C   UNK N   1      20.009  19.613   2.616  0.00  0.00     0.073 A 
ENDROOT
BRANCH   1   7
HETATM    7  C   UNK N   1      23.762  18.355   4.315  0.00  0.00     0.168 C 
BRANCH   7   8
HETATM    8  O   UNK N   1      24.293  17.204   3.724  0.00  0.00    -0.389 OA
HETATM    9  H   UNK N   1      24.887  17.273   2.961  0.00  0.00     0.210 HD
ENDBRANCH   7   8
BRANCH   7  10
HETATM   10  C   UNK N   1      24.796  19.467   4.298  0.00  0.00     0.151 C 
BRANCH  10  11
HETATM   11  N   UNK N   1      25.494  19.456   5.582  0.00  0.00    -0.411 N 
HETATM   12  H   UNK N   1      25.076  19.133   6.454  0.00  0.00     0.154 HD
BRANCH  11  13
HETATM   13  C   UNK N   1      26.866  19.962   5.476  0.00  0.00     0.014 C 
HETATM   14  C   UNK N   1      27.767  19.067   6.301  0.00  0.00     0.037 C 
HETATM   15  C   UNK N   1      27.344  19.919   4.034  0.00  0.00     0.037 C 
HETATM   16  C   UNK N   1      26.987  21.378   6.022  0.00  0.00     0.037 C 
ENDBRANCH  11  13
ENDBRANCH  10  11
ENDBRANCH   7  10
ENDBRANCH   1   7
BRANCH   5  17
HETATM   17  O   UNK N   1      21.044  21.638   1.935  0.00  0.00    -0.361 OA
HETATM   18  H   UNK N   1      21.642  22.322   2.164  0.00  0.00     0.217 HD
ENDBRANCH   5  17
BRANCH   4  19
HETATM   19  O   UNK N   1      19.018  17.578   3.328  0.00  0.00    -0.361 OA
HETATM   20  H   UNK N   1      18.620  17.212   2.563  0.00  0.00     0.217 HD
ENDBRANCH   4  19
TORSDOF 7
ENDMDL
MODEL 6
REMARK VINA RESULT:      -5.4      0.524      2.403
REMARK  7 active torsions:
REMARK  status: ('A' for Active; 'I' for Inactive)
REMARK    1  A    between atoms: O_1  and  C_7 
REMARK    2  A    between atoms: O_2  and  C_14 
REMARK    3  A    between atoms: O_3  and  C_15 
REMARK    4  A    between atoms: N_4  and  C_5 
REMARK    5  A    between atoms: N_4  and  C_6 
REMARK    6  A    between atoms: C_6  and  C_7 
REMARK    7  A    between atoms: C_7  and  C_11 
ROOT
HETATM    1  C   UNK N   1      35.636  14.776  12.187  0.00  0.00    -0.023 A 
HETATM    2  C   UNK N   1      34.882  13.629  11.900  0.00  0.00     0.046 A 
HETATM    3  C   UNK N   1      36.425  14.806  13.349  0.00  0.00     0.046 A 
HETATM    4  C   UNK N   1      36.458  13.702  14.207  0.00  0.00     0.069 A 
HETATM    5  C   UNK N   1      34.928  12.521  12.749  0.00  0.00     0.069 A 
HETATM    6  C   UNK N   1      35.711  12.559  13.905  0.00  0.00     0.073 A 
ENDROOT
BRANCH   1   7
HETATM    7  C   UNK N   1      35.532  15.973  11.285  0.00  0.00     0.168 C 
BRANCH   7   8
HETATM    8  O   UNK N   1      36.768  16.332  10.738  0.00  0.00    -0.389 OA
HETATM    9  H   UNK N   1      37.542  16.454  11.310  0.00  0.00     0.210 HD
ENDBRANCH   7   8
BRANCH   7  10
HETATM   10  C   UNK N   1      34.511  15.790  10.177  0.00  0.00     0.151 C 
BRANCH  10  11
HETATM   11  N   UNK N   1      34.094  17.114   9.721  0.00  0.00    -0.411 N 
HETATM   12  H   UNK N   1      34.262  17.974  10.242  0.00  0.00     0.154 HD
BRANCH  11  13
HETATM   13  C   UNK N   1      33.404  17.067   8.427  0.00  0.00     0.014 C 
HETATM   14  C   UNK N   1      33.267  15.616   8.016  0.00  0.00     0.037 C 
HETATM   15  C   UNK N   1      32.012  17.663   8.539  0.00  0.00     0.037 C 
HETATM   16  C   UNK N   1      34.194  17.787   7.343  0.00  0.00     0.037 C 
ENDBRANCH  11  13
ENDBRANCH  10  11
ENDBRANCH   7  10
ENDBRANCH   1   7
BRANCH   5  17
HETATM   17  O   UNK N   1      34.215  11.422  12.456  0.00  0.00    -0.361 OA
HETATM   18  H   UNK N   1      34.177  10.711  13.065  0.00  0.00     0.217 HD
ENDBRANCH   5  17
BRANCH   4  19
HETATM   19  O   UNK N   1      37.198  13.743  15.327  0.00  0.00    -0.361 OA
HETATM   20  H   UNK N   1      37.424  14.559  15.726  0.00  0.00     0.217 HD
ENDBRANCH   4  19
TORSDOF 7
ENDMDL
MODEL 7
REMARK VINA RESULT:      -5.4     11.928     15.505
REMARK  7 active torsions:
REMARK  status: ('A' for Active; 'I' for Inactive)
REMARK    1  A    between atoms: O_1  and  C_7 
REMARK    2  A    between atoms: O_2  and  C_14 
REMARK    3  A    between atoms: O_3  and  C_15 
REMARK    4  A    between atoms: N_4  and  C_5 
REMARK    5  A    between atoms: N_4  and  C_6 
REMARK    6  A    between atoms: C_6  and  C_7 
REMARK    7  A    between atoms: C_7  and  C_11 
ROOT
HETATM    1  C   UNK N   1      22.465  18.839   3.768  0.00  0.00    -0.023 A 
HETATM    2  C   UNK N   1      21.345  17.998   3.839  0.00  0.00     0.046 A 
HETATM    3  C   UNK N   1      22.361  20.066   3.091  0.00  0.00     0.046 A 
HETATM    4  C   UNK N   1      21.153  20.443   2.496  0.00  0.00     0.069 A 
HETATM    5  C   UNK N   1      20.134  18.383   3.258  0.00  0.00     0.069 A 
HETATM    6  C   UNK N   1      20.039  19.602   2.584  0.00  0.00     0.073 A 
ENDROOT
BRANCH   1   7
HETATM    7  C   UNK N   1      23.770  18.382   4.357  0.00  0.00     0.168 C 
BRANCH   7   8
HETATM    8  O   UNK N   1      24.249  17.221   3.743  0.00  0.00    -0.389 OA
HETATM    9  H   UNK N   1      25.177  17.159   3.467  0.00  0.00     0.210 HD
ENDBRANCH   7   8
BRANCH   7  10
HETATM   10  C   UNK N   1      24.839  19.460   4.328  0.00  0.00     0.151 C 
BRANCH  10  11
HETATM   11  N   UNK N   1      25.546  19.432   5.606  0.00  0.00    -0.411 N 
HETATM   12  H   UNK N   1      25.136  19.091   6.475  0.00  0.00     0.154 HD
BRANCH  11  13
HETATM   13  C   UNK N   1      26.914  19.949   5.499  0.00  0.00     0.014 C 
HETATM   14  C   UNK N   1      27.301  19.965   4.035  0.00  0.00     0.037 C 
HETATM   15  C   UNK N   1      26.994  21.371   6.027  0.00  0.00     0.037 C 
HETATM   16  C   UNK N   1      27.909  19.063   6.236  0.00  0.00     0.037 C 
ENDBRANCH  11  13
ENDBRANCH  10  11
ENDBRANCH   7  10
ENDBRANCH   1   7
BRANCH   5  17
HETATM   17  O   UNK N   1      19.063  17.578   3.346  0.00  0.00    -0.361 OA
HETATM   18  H   UNK N   1      19.177  16.657   3.476  0.00  0.00     0.217 HD
ENDBRANCH   5  17
BRANCH   4  19
HETATM   19  O   UNK N   1      21.064  21.606   1.833  0.00  0.00    -0.361 OA
HETATM   20  H   UNK N   1      21.779  21.923   1.317  0.00  0.00     0.217 HD
ENDBRANCH   4  19
TORSDOF 7
ENDMDL
MODEL 8
REMARK VINA RESULT:      -5.4      4.539      5.806
REMARK  7 active torsions:
REMARK  status: ('A' for Active; 'I' for Inactive)
REMARK    1  A    between atoms: O_1  and  C_7 
REMARK    2  A    between atoms: O_2  and  C_14 
REMARK    3  A    between atoms: O_3  and  C_15 
REMARK    4  A    between atoms: N_4  and  C_5 
REMARK    5  A    between atoms: N_4  and  C_6 
REMARK    6  A    between atoms: C_6  and  C_7 
REMARK    7  A    between atoms: C_7  and  C_11 
ROOT
HETATM    1  C   UNK N   1      35.817  13.216  16.633  0.00  0.00    -0.023 A 
HETATM    2  C   UNK N   1      35.480  13.751  17.885  0.00  0.00     0.046 A 
HETATM    3  C   UNK N   1      35.853  11.821  16.470  0.00  0.00     0.046 A 
HETATM    4  C   UNK N   1      35.554  10.977  17.544  0.00  0.00     0.069 A 
HETATM    5  C   UNK N   1      35.166  12.907  18.953  0.00  0.00     0.069 A 
HETATM    6  C   UNK N   1      35.207  11.522  18.785  0.00  0.00     0.073 A 
ENDROOT
BRANCH   1   7
HETATM    7  C   UNK N   1      36.199  14.141  15.513  0.00  0.00     0.168 C 
BRANCH   7   8
HETATM    8  O   UNK N   1      37.570  14.411  15.494  0.00  0.00    -0.389 OA
HETATM    9  H   UNK N   1      37.983  14.802  14.709  0.00  0.00     0.210 HD
ENDBRANCH   7   8
BRANCH   7  10
HETATM   10  C   UNK N   1      35.754  13.635  14.153  0.00  0.00     0.151 C 
BRANCH  10  11
HETATM   11  N   UNK N   1      36.911  13.656  13.260  0.00  0.00    -0.411 N 
HETATM   12  H   UNK N   1      37.559  14.440  13.188  0.00  0.00     0.154 HD
BRANCH  11  13
HETATM   13  C   UNK N   1      37.037  12.421  12.479  0.00  0.00     0.014 C 
HETATM   14  C   UNK N   1      37.738  11.388  13.336  0.00  0.00     0.037 C 
HETATM   15  C   UNK N   1      35.667  11.880  12.106  0.00  0.00     0.037 C 
HETATM   16  C   UNK N   1      37.873  12.633  11.224  0.00  0.00     0.037 C 
ENDBRANCH  11  13
ENDBRANCH  10  11
ENDBRANCH   7  10
ENDBRANCH   1   7
BRANCH   5  17
HETATM   17  O   UNK N   1      34.828  13.430  20.143  0.00  0.00    -0.361 OA
HETATM   18  H   UNK N   1      35.265  13.146  20.922  0.00  0.00     0.217 HD
ENDBRANCH   5  17
BRANCH   4  19
HETATM   19  O   UNK N   1      35.610   9.645  17.389  0.00  0.00    -0.361 OA
HETATM   20  H   UNK N   1      35.468   9.250  16.551  0.00  0.00     0.217 HD
ENDBRANCH   4  19
TORSDOF 7
ENDMDL
MODEL 9
REMARK VINA RESULT:      -5.3      5.988      8.673
REMARK  7 active torsions:
REMARK  status: ('A' for Active; 'I' for Inactive)
REMARK    1  A    between atoms: O_1  and  C_7 
REMARK    2  A    between atoms: O_2  and  C_14 
REMARK    3  A    between atoms: O_3  and  C_15 
REMARK    4  A    between atoms: N_4  and  C_5 
REMARK    5  A    between atoms: N_4  and  C_6 
REMARK    6  A    between atoms: C_6  and  C_7 
REMARK    7  A    between atoms: C_7  and  C_11 
ROOT
HETATM    1  C   UNK N   1      29.575  17.688   7.759  0.00  0.00    -0.023 A 
HETATM    2  C   UNK N   1      29.835  17.205   6.468  0.00  0.00     0.046 A 
HETATM    3  C   UNK N   1      30.612  17.712   8.705  0.00  0.00     0.046 A 
HETATM    4  C   UNK N   1      31.890  17.258   8.362  0.00  0.00     0.069 A 
HETATM    5  C   UNK N   1      31.115  16.768   6.122  0.00  0.00     0.069 A 
HETATM    6  C   UNK N   1      32.141  16.789   7.069  0.00  0.00     0.073 A 
ENDROOT
BRANCH   1   7
HETATM    7  C   UNK N   1      28.178  18.107   8.123  0.00  0.00     0.168 C 
BRANCH   7   8
HETATM    8  O   UNK N   1      27.965  18.090   9.505  0.00  0.00    -0.389 OA
HETATM    9  H   UNK N   1      28.638  18.439  10.110  0.00  0.00     0.210 HD
ENDBRANCH   7   8
BRANCH   7  10
HETATM   10  C   UNK N   1      27.804  19.466   7.560  0.00  0.00     0.151 C 
BRANCH  10  11
HETATM   11  N   UNK N   1      26.781  19.267   6.535  0.00  0.00    -0.411 N 
HETATM   12  H   UNK N   1      26.070  18.538   6.577  0.00  0.00     0.154 HD
BRANCH  11  13
HETATM   13  C   UNK N   1      26.892  20.236   5.440  0.00  0.00     0.014 C 
HETATM   14  C   UNK N   1      27.089  21.611   6.043  0.00  0.00     0.037 C 
HETATM   15  C   UNK N   1      28.094  19.922   4.566  0.00  0.00     0.037 C 
HETATM   16  C   UNK N   1      25.627  20.273   4.593  0.00  0.00     0.037 C 
ENDBRANCH  11  13
ENDBRANCH  10  11
ENDBRANCH   7  10
ENDBRANCH   1   7
BRANCH   5  17
HETATM   17  O   UNK N   1      31.358  16.322   4.878  0.00  0.00    -0.361 OA
HETATM   18  H   UNK N   1      32.050  15.710   4.726  0.00  0.00     0.217 HD
ENDBRANCH   5  17
BRANCH   4  19
HETATM   19  O   UNK N   1      32.873  17.263   9.276  0.00  0.00    -0.361 OA
HETATM   20  H   UNK N   1      33.251  18.066   9.574  0.00  0.00     0.217 HD
ENDBRANCH   4  19
TORSDOF 7
ENDMDL
