MODEL 1
REMARK VINA RESULT:      -8.7      0.000      0.000
REMARK  4 active torsions:
REMARK  status: ('A' for Active; 'I' for Inactive)
REMARK       I    between atoms: N_3  and  C_15 
REMARK    1  A    between atoms: N_7  and  C_24 
REMARK       I    between atoms: N_7  and  C_29 
REMARK    2  A    between atoms: C_15  and  C_18 
REMARK    3  A    between atoms: C_27  and  C_29 
REMARK    4  A    between atoms: C_28  and  C_30 
ROOT
HETATM    1  C   UNK N   1      34.644  15.549   6.090  0.00  0.00     0.032 A 
HETATM    2  C   UNK N   1      34.478  16.892   6.434  0.00  0.00     0.019 A 
HETATM    3  C   UNK N   1      33.586  14.886   5.438  0.00  0.00     0.019 A 
HETATM    4  C   UNK N   1      32.294  16.896   5.364  0.00  0.00     0.035 A 
HETATM    5  C   UNK N   1      33.321  17.565   6.054  0.00  0.00     0.030 A 
HETATM    6  C   UNK N   1      32.415  15.546   5.084  0.00  0.00     0.030 A 
ENDROOT
BRANCH   1   7
HETATM    7  C   UNK N   1      35.901  14.837   6.478  0.00  0.00     0.258 C 
HETATM    8  O   UNK N   1      36.812  14.820   5.660  0.00  0.00    -0.267 OA
HETATM    9  N   UNK N   1      36.064  14.247   7.721  0.00  0.00    -0.313 N 
HETATM   10  C   UNK N   1      34.902  14.083   8.566  0.00  0.00     0.138 C 
HETATM   11  C   UNK N   1      37.321  13.674   8.158  0.00  0.00     0.050 A 
HETATM   12  C   UNK N   1      34.898  15.146   9.612  0.00  0.00     0.080 C 
HETATM   13  C   UNK N   1      35.646  14.622  10.750  0.00  0.00     0.040 A 
HETATM   14  N   UNK N   1      35.253  14.798  12.019  0.00  0.00    -0.348 N 
HETATM   15  C   UNK N   1      36.830  13.914  10.722  0.00  0.00     0.069 A 
HETATM   16  C   UNK N   1      36.209  14.204  12.752  0.00  0.00     0.077 A 
HETATM   17  H   UNK N   1      34.443  15.258  12.342  0.00  0.00     0.167 HD
HETATM   18  N   UNK N   1      37.187  13.659  11.997  0.00  0.00    -0.344 N 
HETATM   19  C   UNK N   1      36.196  14.173  14.236  0.00  0.00     0.089 C 
ATOM     20  HN  UNK N   1      38.016  13.160  12.322  1.00  0.00     0.167 HD
HETATM   21  C   UNK N   1      37.658  13.485   9.548  0.00  0.00     0.020 A 
HETATM   22  C   UNK N   1      38.893  12.896   9.866  0.00  0.00     0.016 A 
HETATM   23  C   UNK N   1      39.794  12.505   8.882  0.00  0.00     0.001 A 
HETATM   24  C   UNK N   1      39.487  12.702   7.545  0.00  0.00     0.002 A 
HETATM   25  C   UNK N   1      38.269  13.275   7.192  0.00  0.00     0.031 A 
ENDBRANCH   1   7
BRANCH   4  26
HETATM   26  N   UNK N   1      31.164  17.621   4.922  0.00  0.00    -0.323 N 
HETATM   27  C   UNK N   1      30.012  17.543   5.628  0.00  0.00     0.257 C 
HETATM   28  O   UNK N   1      30.027  17.147   6.788  0.00  0.00    -0.267 OA
HETATM   29  H   UNK N   1      31.215  18.176   4.110  0.00  0.00     0.169 HD
BRANCH  27  30
HETATM   30  C   UNK N   1      28.730  17.805   4.978  0.00  0.00     0.043 A 
HETATM   31  C   UNK N   1      28.047  16.792   4.229  0.00  0.00    -0.010 A 
HETATM   32  C   UNK N   1      26.804  17.123   3.661  0.00  0.00     0.013 A 
HETATM   33  C   UNK N   1      26.255  18.397   3.810  0.00  0.00     0.001 A 
HETATM   34  C   UNK N   1      26.951  19.384   4.504  0.00  0.00     0.001 A 
HETATM   35  C   UNK N   1      28.186  19.091   5.078  0.00  0.00     0.018 A 
BRANCH  31  36
HETATM   36  C   UNK N   1      28.620  15.422   3.921  0.00  0.00    -0.025 A 
HETATM   37  C   UNK N   1      28.572  14.357   4.838  0.00  0.00     0.012 A 
HETATM   38  C   UNK N   1      29.145  13.117   4.563  0.00  0.00     0.001 A 
HETATM   39  C   UNK N   1      29.808  12.918   3.356  0.00  0.00     0.000 A 
HETATM   40  C   UNK N   1      29.892  13.962   2.433  0.00  0.00     0.001 A 
HETATM   41  C   UNK N   1      29.304  15.203   2.713  0.00  0.00     0.012 A 
ENDBRANCH  31  36
ENDBRANCH  27  30
ENDBRANCH   4  26
TORSDOF 4
ENDMDL
MODEL 2
REMARK VINA RESULT:      -8.7      1.898      3.090
REMARK  4 active torsions:
REMARK  status: ('A' for Active; 'I' for Inactive)
REMARK       I    between atoms: N_3  and  C_15 
REMARK    1  A    between atoms: N_7  and  C_24 
REMARK       I    between atoms: N_7  and  C_29 
REMARK    2  A    between atoms: C_15  and  C_18 
REMARK    3  A    between atoms: C_27  and  C_29 
REMARK    4  A    between atoms: C_28  and  C_30 
ROOT
HETATM    1  C   UNK N   1      33.677  15.117   6.829  0.00  0.00     0.032 A 
HETATM    2  C   UNK N   1      33.355  16.398   7.282  0.00  0.00     0.019 A 
HETATM    3  C   UNK N   1      32.660  14.330   6.255  0.00  0.00     0.019 A 
HETATM    4  C   UNK N   1      31.081  16.113   6.466  0.00  0.00     0.035 A 
HETATM    5  C   UNK N   1      32.073  16.899   7.081  0.00  0.00     0.030 A 
HETATM    6  C   UNK N   1      31.369  14.815   6.081  0.00  0.00     0.030 A 
ENDROOT
BRANCH   1   7
HETATM    7  C   UNK N   1      35.064  14.592   7.024  0.00  0.00     0.258 C 
HETATM    8  O   UNK N   1      35.850  14.723   6.093  0.00  0.00    -0.267 OA
HETATM    9  N   UNK N   1      35.477  14.014   8.214  0.00  0.00    -0.313 N 
HETATM   10  C   UNK N   1      34.476  13.668   9.197  0.00  0.00     0.138 C 
HETATM   11  C   UNK N   1      36.851  13.626   8.462  0.00  0.00     0.050 A 
HETATM   12  C   UNK N   1      34.460  14.703  10.271  0.00  0.00     0.080 C 
HETATM   13  C   UNK N   1      35.422  14.278  11.283  0.00  0.00     0.040 A 
HETATM   14  N   UNK N   1      35.182  14.374  12.597  0.00  0.00    -0.348 N 
HETATM   15  C   UNK N   1      36.681  13.753  11.074  0.00  0.00     0.069 A 
HETATM   16  C   UNK N   1      36.305  13.917  13.177  0.00  0.00     0.077 A 
HETATM   17  H   UNK N   1      34.366  14.705  13.039  0.00  0.00     0.167 HD
HETATM   18  N   UNK N   1      37.240  13.533  12.281  0.00  0.00    -0.344 N 
HETATM   19  C   UNK N   1      36.497  13.862  14.648  0.00  0.00     0.089 C 
ATOM     20  HN  UNK N   1      38.168  13.158  12.478  1.00  0.00     0.167 HD
HETATM   21  C   UNK N   1      37.396  13.468   9.788  0.00  0.00     0.020 A 
HETATM   22  C   UNK N   1      38.735  13.063   9.920  0.00  0.00     0.016 A 
HETATM   23  C   UNK N   1      39.542  12.823   8.813  0.00  0.00     0.001 A 
HETATM   24  C   UNK N   1      39.031  12.993   7.535  0.00  0.00     0.002 A 
HETATM   25  C   UNK N   1      37.708  13.386   7.366  0.00  0.00     0.031 A 
ENDBRANCH   1   7
BRANCH   4  26
HETATM   26  N   UNK N   1      29.810  16.674   6.204  0.00  0.00    -0.323 N 
HETATM   27  C   UNK N   1      29.687  17.599   5.223  0.00  0.00     0.257 C 
HETATM   28  O   UNK N   1      30.553  17.702   4.363  0.00  0.00    -0.267 OA
HETATM   29  H   UNK N   1      29.025  16.396   6.729  0.00  0.00     0.169 HD
BRANCH  27  30
HETATM   30  C   UNK N   1      28.591  18.565   5.256  0.00  0.00     0.043 A 
HETATM   31  C   UNK N   1      28.061  19.057   6.492  0.00  0.00    -0.010 A 
HETATM   32  C   UNK N   1      27.026  20.007   6.429  0.00  0.00     0.013 A 
HETATM   33  C   UNK N   1      26.522  20.450   5.205  0.00  0.00     0.001 A 
HETATM   34  C   UNK N   1      27.019  19.930   4.012  0.00  0.00     0.001 A 
HETATM   35  C   UNK N   1      28.043  18.986   4.038  0.00  0.00     0.018 A 
BRANCH  31  36
HETATM   36  C   UNK N   1      28.467  18.549   7.861  0.00  0.00    -0.025 A 
HETATM   37  C   UNK N   1      29.549  19.089   8.579  0.00  0.00     0.012 A 
HETATM   38  C   UNK N   1      29.943  18.581   9.816  0.00  0.00     0.001 A 
HETATM   39  C   UNK N   1      29.269  17.491  10.359  0.00  0.00     0.000 A 
HETATM   40  C   UNK N   1      28.204  16.919   9.660  0.00  0.00     0.001 A 
HETATM   41  C   UNK N   1      27.807  17.442   8.423  0.00  0.00     0.012 A 
ENDBRANCH  31  36
ENDBRANCH  27  30
ENDBRANCH   4  26
TORSDOF 4
ENDMDL
MODEL 3
REMARK VINA RESULT:      -8.6      4.409     11.964
REMARK  4 active torsions:
REMARK  status: ('A' for Active; 'I' for Inactive)
REMARK       I    between atoms: N_3  and  C_15 
REMARK    1  A    between atoms: N_7  and  C_24 
REMARK       I    between atoms: N_7  and  C_29 
REMARK    2  A    between atoms: C_15  and  C_18 
REMARK    3  A    between atoms: C_27  and  C_29 
REMARK    4  A    between atoms: C_28  and  C_30 
ROOT
HETATM    1  C   UNK N   1      26.317  18.930   3.947  0.00  0.00     0.032 A 
HETATM    2  C   UNK N   1      26.860  17.743   3.450  0.00  0.00     0.019 A 
HETATM    3  C   UNK N   1      27.062  19.671   4.885  0.00  0.00     0.019 A 
HETATM    4  C   UNK N   1      28.892  18.141   4.727  0.00  0.00     0.035 A 
HETATM    5  C   UNK N   1      28.146  17.364   3.821  0.00  0.00     0.030 A 
HETATM    6  C   UNK N   1      28.335  19.279   5.283  0.00  0.00     0.030 A 
ENDROOT
BRANCH   1   7
HETATM    7  C   UNK N   1      24.943  19.346   3.525  0.00  0.00     0.258 C 
HETATM    8  O   UNK N   1      24.859  20.226   2.677  0.00  0.00    -0.267 OA
HETATM    9  N   UNK N   1      23.800  18.749   4.031  0.00  0.00    -0.313 N 
HETATM   10  C   UNK N   1      23.924  17.888   5.186  0.00  0.00     0.138 C 
HETATM   11  C   UNK N   1      22.473  19.048   3.533  0.00  0.00     0.050 A 
HETATM   12  C   UNK N   1      23.887  16.463   4.745  0.00  0.00     0.080 C 
HETATM   13  C   UNK N   1      22.485  16.057   4.747  0.00  0.00     0.040 A 
HETATM   14  N   UNK N   1      22.077  14.864   5.201  0.00  0.00    -0.348 N 
HETATM   15  C   UNK N   1      21.402  16.779   4.291  0.00  0.00     0.069 A 
HETATM   16  C   UNK N   1      20.748  14.868   5.003  0.00  0.00     0.077 A 
HETATM   17  H   UNK N   1      22.627  14.146   5.591  0.00  0.00     0.167 HD
HETATM   18  N   UNK N   1      20.302  16.015   4.448  0.00  0.00    -0.344 N 
HETATM   19  C   UNK N   1      19.871  13.719   5.344  0.00  0.00     0.089 C 
ATOM     20  HN  UNK N   1      19.340  16.252   4.203  1.00  0.00     0.167 HD
HETATM   21  C   UNK N   1      21.354  18.151   3.689  0.00  0.00     0.020 A 
HETATM   22  C   UNK N   1      20.101  18.547   3.192  0.00  0.00     0.016 A 
HETATM   23  C   UNK N   1      19.918  19.768   2.550  0.00  0.00     0.001 A 
HETATM   24  C   UNK N   1      20.993  20.626   2.379  0.00  0.00     0.002 A 
HETATM   25  C   UNK N   1      22.247  20.270   2.864  0.00  0.00     0.031 A 
ENDBRANCH   1   7
BRANCH   4  26
HETATM   26  N   UNK N   1      30.224  17.775   5.026  0.00  0.00    -0.323 N 
HETATM   27  C   UNK N   1      30.483  17.104   6.173  0.00  0.00     0.257 C 
HETATM   28  O   UNK N   1      29.578  16.528   6.765  0.00  0.00    -0.267 OA
HETATM   29  H   UNK N   1      30.955  18.006   4.407  0.00  0.00     0.169 HD
BRANCH  27  30
HETATM   30  C   UNK N   1      31.810  17.170   6.781  0.00  0.00     0.043 A 
HETATM   31  C   UNK N   1      32.933  16.489   6.208  0.00  0.00    -0.010 A 
HETATM   32  C   UNK N   1      34.179  16.631   6.843  0.00  0.00     0.013 A 
HETATM   33  C   UNK N   1      34.320  17.399   8.000  0.00  0.00     0.001 A 
HETATM   34  C   UNK N   1      33.210  18.020   8.569  0.00  0.00     0.001 A 
HETATM   35  C   UNK N   1      31.961  17.899   7.966  0.00  0.00     0.018 A 
BRANCH  31  36
HETATM   36  C   UNK N   1      32.849  15.545   5.025  0.00  0.00    -0.025 A 
HETATM   37  C   UNK N   1      32.246  14.278   5.108  0.00  0.00     0.012 A 
HETATM   38  C   UNK N   1      32.218  13.399   4.027  0.00  0.00     0.001 A 
HETATM   39  C   UNK N   1      32.822  13.764   2.828  0.00  0.00     0.000 A 
HETATM   40  C   UNK N   1      33.448  15.007   2.719  0.00  0.00     0.001 A 
HETATM   41  C   UNK N   1      33.463  15.889   3.807  0.00  0.00     0.012 A 
ENDBRANCH  31  36
ENDBRANCH  27  30
ENDBRANCH   4  26
TORSDOF 4
ENDMDL
MODEL 4
REMARK VINA RESULT:      -8.5      3.781      7.076
REMARK  4 active torsions:
REMARK  status: ('A' for Active; 'I' for Inactive)
REMARK       I    between atoms: N_3  and  C_15 
REMARK    1  A    between atoms: N_7  and  C_24 
REMARK       I    between atoms: N_7  and  C_29 
REMARK    2  A    between atoms: C_15  and  C_18 
REMARK    3  A    between atoms: C_27  and  C_29 
REMARK    4  A    between atoms: C_28  and  C_30 
ROOT
HETATM    1  C   UNK N   1      28.700  17.927   5.504  0.00  0.00     0.032 A 
HETATM    2  C   UNK N   1      27.733  16.959   5.222  0.00  0.00     0.019 A 
HETATM    3  C   UNK N   1      28.555  19.208   4.937  0.00  0.00     0.019 A 
HETATM    4  C   UNK N   1      26.466  18.599   3.947  0.00  0.00     0.035 A 
HETATM    5  C   UNK N   1      26.614  17.301   4.468  0.00  0.00     0.030 A 
HETATM    6  C   UNK N   1      27.455  19.545   4.157  0.00  0.00     0.030 A 
ENDROOT
BRANCH   1   7
HETATM    7  C   UNK N   1      29.888  17.563   6.336  0.00  0.00     0.258 C 
HETATM    8  O   UNK N   1      29.735  17.534   7.551  0.00  0.00    -0.267 OA
HETATM    9  N   UNK N   1      31.111  17.229   5.776  0.00  0.00    -0.313 N 
HETATM   10  C   UNK N   1      31.322  17.495   4.370  0.00  0.00     0.138 C 
HETATM   11  C   UNK N   1      32.227  16.745   6.561  0.00  0.00     0.050 A 
HETATM   12  C   UNK N   1      31.172  16.226   3.601  0.00  0.00     0.080 C 
HETATM   13  C   UNK N   1      32.491  15.602   3.553  0.00  0.00     0.040 A 
HETATM   14  N   UNK N   1      32.979  15.020   2.450  0.00  0.00    -0.348 N 
HETATM   15  C   UNK N   1      33.403  15.490   4.583  0.00  0.00     0.069 A 
HETATM   16  C   UNK N   1      34.180  14.549   2.823  0.00  0.00     0.077 A 
HETATM   17  H   UNK N   1      32.553  14.954   1.564  0.00  0.00     0.167 HD
HETATM   18  N   UNK N   1      34.471  14.813   4.115  0.00  0.00    -0.344 N 
HETATM   19  C   UNK N   1      35.080  13.800   1.910  0.00  0.00     0.089 C 
ATOM     20  HN  UNK N   1      35.316  14.556   4.625  1.00  0.00     0.167 HD
HETATM   21  C   UNK N   1      33.308  15.972   5.999  0.00  0.00     0.020 A 
HETATM   22  C   UNK N   1      34.358  15.572   6.843  0.00  0.00     0.016 A 
HETATM   23  C   UNK N   1      34.374  15.891   8.196  0.00  0.00     0.001 A 
HETATM   24  C   UNK N   1      33.329  16.615   8.749  0.00  0.00     0.002 A 
HETATM   25  C   UNK N   1      32.276  17.035   7.942  0.00  0.00     0.031 A 
ENDBRANCH   1   7
BRANCH   4  26
HETATM   26  N   UNK N   1      25.284  18.940   3.252  0.00  0.00    -0.323 N 
HETATM   27  C   UNK N   1      24.275  19.545   3.922  0.00  0.00     0.257 C 
HETATM   28  O   UNK N   1      24.492  20.092   4.997  0.00  0.00    -0.267 OA
HETATM   29  H   UNK N   1      25.195  18.740   2.292  0.00  0.00     0.169 HD
BRANCH  27  30
HETATM   30  C   UNK N   1      22.901  19.438   3.438  0.00  0.00     0.043 A 
HETATM   31  C   UNK N   1      22.103  18.276   3.691  0.00  0.00    -0.010 A 
HETATM   32  C   UNK N   1      20.781  18.271   3.212  0.00  0.00     0.013 A 
HETATM   33  C   UNK N   1      20.262  19.357   2.504  0.00  0.00     0.001 A 
HETATM   34  C   UNK N   1      21.064  20.462   2.229  0.00  0.00     0.001 A 
HETATM   35  C   UNK N   1      22.379  20.499   2.687  0.00  0.00     0.018 A 
BRANCH  31  36
HETATM   36  C   UNK N   1      22.618  17.010   4.347  0.00  0.00    -0.025 A 
HETATM   37  C   UNK N   1      22.635  16.834   5.742  0.00  0.00     0.012 A 
HETATM   38  C   UNK N   1      23.156  15.686   6.337  0.00  0.00     0.001 A 
HETATM   39  C   UNK N   1      23.700  14.684   5.539  0.00  0.00     0.000 A 
HETATM   40  C   UNK N   1      23.718  14.839   4.151  0.00  0.00     0.001 A 
HETATM   41  C   UNK N   1      23.183  15.991   3.560  0.00  0.00     0.012 A 
ENDBRANCH  31  36
ENDBRANCH  27  30
ENDBRANCH   4  26
TORSDOF 4
ENDMDL
MODEL 5
REMARK VINA RESULT:      -8.4      3.564     10.518
REMARK  4 active torsions:
REMARK  status: ('A' for Active; 'I' for Inactive)
REMARK       I    between atoms: N_3  and  C_15 
REMARK    1  A    between atoms: N_7  and  C_24 
REMARK       I    between atoms: N_7  and  C_29 
REMARK    2  A    between atoms: C_15  and  C_18 
REMARK    3  A    between atoms: C_27  and  C_29 
REMARK    4  A    between atoms: C_28  and  C_30 
ROOT
HETATM    1  C   UNK N   1      36.301  13.518  10.548  0.00  0.00     0.032 A 
HETATM    2  C   UNK N   1      35.925  12.307  11.133  0.00  0.00     0.019 A 
HETATM    3  C   UNK N   1      36.150  14.703  11.295  0.00  0.00     0.019 A 
HETATM    4  C   UNK N   1      35.393  13.472  13.201  0.00  0.00     0.035 A 
HETATM    5  C   UNK N   1      35.496  12.283  12.456  0.00  0.00     0.030 A 
HETATM    6  C   UNK N   1      35.692  14.687  12.608  0.00  0.00     0.030 A 
ENDROOT
BRANCH   1   7
HETATM    7  C   UNK N   1      36.787  13.536   9.133  0.00  0.00     0.258 C 
HETATM    8  O   UNK N   1      37.939  13.173   8.930  0.00  0.00    -0.267 OA
HETATM    9  N   UNK N   1      35.972  13.907   8.075  0.00  0.00    -0.313 N 
HETATM   10  C   UNK N   1      34.708  14.544   8.367  0.00  0.00     0.138 C 
HETATM   11  C   UNK N   1      36.387  13.799   6.691  0.00  0.00     0.050 A 
HETATM   12  C   UNK N   1      33.608  13.546   8.229  0.00  0.00     0.080 C 
HETATM   13  C   UNK N   1      33.168  13.592   6.839  0.00  0.00     0.040 A 
HETATM   14  N   UNK N   1      31.877  13.546   6.485  0.00  0.00    -0.348 N 
HETATM   15  C   UNK N   1      33.960  13.664   5.710  0.00  0.00     0.069 A 
HETATM   16  C   UNK N   1      31.896  13.579   5.142  0.00  0.00     0.077 A 
HETATM   17  H   UNK N   1      31.091  13.500   7.076  0.00  0.00     0.167 HD
HETATM   18  N   UNK N   1      33.146  13.647   4.635  0.00  0.00    -0.344 N 
HETATM   19  C   UNK N   1      30.669  13.525   4.309  0.00  0.00     0.089 C 
ATOM     20  HN  UNK N   1      33.415  13.681   3.652  1.00  0.00     0.167 HD
HETATM   21  C   UNK N   1      35.453  13.726   5.594  0.00  0.00     0.020 A 
HETATM   22  C   UNK N   1      35.958  13.649   4.285  0.00  0.00     0.016 A 
HETATM   23  C   UNK N   1      37.325  13.631   4.026  0.00  0.00     0.001 A 
HETATM   24  C   UNK N   1      38.228  13.680   5.076  0.00  0.00     0.002 A 
HETATM   25  C   UNK N   1      37.764  13.764   6.385  0.00  0.00     0.031 A 
ENDBRANCH   1   7
BRANCH   4  26
HETATM   26  N   UNK N   1      35.030  13.411  14.565  0.00  0.00    -0.323 N 
HETATM   27  C   UNK N   1      36.002  13.372  15.506  0.00  0.00     0.257 C 
HETATM   28  O   UNK N   1      37.142  13.723  15.226  0.00  0.00    -0.267 OA
HETATM   29  H   UNK N   1      34.081  13.396  14.828  0.00  0.00     0.169 HD
BRANCH  27  30
HETATM   30  C   UNK N   1      35.734  12.791  16.819  0.00  0.00     0.043 A 
HETATM   31  C   UNK N   1      35.836  11.381  17.052  0.00  0.00    -0.010 A 
HETATM   32  C   UNK N   1      35.588  10.912  18.354  0.00  0.00     0.013 A 
HETATM   33  C   UNK N   1      35.244  11.786  19.386  0.00  0.00     0.001 A 
HETATM   34  C   UNK N   1      35.107  13.149  19.135  0.00  0.00     0.001 A 
HETATM   35  C   UNK N   1      35.344  13.648  17.856  0.00  0.00     0.018 A 
BRANCH  31  36
HETATM   36  C   UNK N   1      36.090  10.351  15.969  0.00  0.00    -0.025 A 
HETATM   37  C   UNK N   1      37.384   9.987  15.558  0.00  0.00     0.012 A 
HETATM   38  C   UNK N   1      37.605   9.075  14.528  0.00  0.00     0.001 A 
HETATM   39  C   UNK N   1      36.520   8.515  13.861  0.00  0.00     0.000 A 
HETATM   40  C   UNK N   1      35.222   8.871  14.230  0.00  0.00     0.001 A 
HETATM   41  C   UNK N   1      35.008   9.782  15.274  0.00  0.00     0.012 A 
ENDBRANCH  31  36
ENDBRANCH  27  30
ENDBRANCH   4  26
TORSDOF 4
ENDMDL
MODEL 6
REMARK VINA RESULT:      -8.4      1.704      2.053
REMARK  4 active torsions:
REMARK  status: ('A' for Active; 'I' for Inactive)
REMARK       I    between atoms: N_3  and  C_15 
REMARK    1  A    between atoms: N_7  and  C_24 
REMARK       I    between atoms: N_7  and  C_29 
REMARK    2  A    between atoms: C_15  and  C_18 
REMARK    3  A    between atoms: C_27  and  C_29 
REMARK    4  A    between atoms: C_28  and  C_30 
ROOT
HETATM    1  C   UNK N   1      33.560  15.660   6.724  0.00  0.00     0.032 A 
HETATM    2  C   UNK N   1      32.503  14.817   6.373  0.00  0.00     0.019 A 
HETATM    3  C   UNK N   1      33.301  17.037   6.874  0.00  0.00     0.019 A 
HETATM    4  C   UNK N   1      30.969  16.703   6.463  0.00  0.00     0.035 A 
HETATM    5  C   UNK N   1      31.215  15.332   6.266  0.00  0.00     0.030 A 
HETATM    6  C   UNK N   1      32.020  17.561   6.737  0.00  0.00     0.030 A 
ENDROOT
BRANCH   1   7
HETATM    7  C   UNK N   1      34.939  15.098   6.863  0.00  0.00     0.258 C 
HETATM    8  O   UNK N   1      35.711  15.266   5.927  0.00  0.00    -0.267 OA
HETATM    9  N   UNK N   1      35.360  14.446   8.010  0.00  0.00    -0.313 N 
HETATM   10  C   UNK N   1      34.370  14.064   8.991  0.00  0.00     0.138 C 
HETATM   11  C   UNK N   1      36.730  14.018   8.211  0.00  0.00     0.050 A 
HETATM   12  C   UNK N   1      34.394  15.038  10.121  0.00  0.00     0.080 C 
HETATM   13  C   UNK N   1      35.364  14.538  11.090  0.00  0.00     0.040 A 
HETATM   14  N   UNK N   1      35.150  14.565  12.412  0.00  0.00    -0.348 N 
HETATM   15  C   UNK N   1      36.609  14.001  10.829  0.00  0.00     0.069 A 
HETATM   16  C   UNK N   1      36.273  14.054  12.944  0.00  0.00     0.077 A 
HETATM   17  H   UNK N   1      34.349  14.885  12.886  0.00  0.00     0.167 HD
HETATM   18  N   UNK N   1      37.184  13.703  12.011  0.00  0.00    -0.344 N 
HETATM   19  C   UNK N   1      36.489  13.912  14.406  0.00  0.00     0.089 C 
ATOM     20  HN  UNK N   1      38.108  13.299  12.169  1.00  0.00     0.167 HD
HETATM   21  C   UNK N   1      37.295  13.775   9.516  0.00  0.00     0.020 A 
HETATM   22  C   UNK N   1      38.627  13.337   9.600  0.00  0.00     0.016 A 
HETATM   23  C   UNK N   1      39.410  13.145   8.466  0.00  0.00     0.001 A 
HETATM   24  C   UNK N   1      38.881  13.396   7.210  0.00  0.00     0.002 A 
HETATM   25  C   UNK N   1      37.563  13.824   7.087  0.00  0.00     0.031 A 
ENDBRANCH   1   7
BRANCH   4  26
HETATM   26  N   UNK N   1      29.641  17.185   6.425  0.00  0.00    -0.323 N 
HETATM   27  C   UNK N   1      29.159  17.699   5.269  0.00  0.00     0.257 C 
HETATM   28  O   UNK N   1      29.713  17.447   4.206  0.00  0.00    -0.267 OA
HETATM   29  H   UNK N   1      29.075  17.149   7.230  0.00  0.00     0.169 HD
BRANCH  27  30
HETATM   30  C   UNK N   1      28.056  18.657   5.293  0.00  0.00     0.043 A 
HETATM   31  C   UNK N   1      26.716  18.268   4.968  0.00  0.00    -0.010 A 
HETATM   32  C   UNK N   1      25.712  19.250   5.046  0.00  0.00     0.013 A 
HETATM   33  C   UNK N   1      26.008  20.562   5.416  0.00  0.00     0.001 A 
HETATM   34  C   UNK N   1      27.323  20.935   5.688  0.00  0.00     0.001 A 
HETATM   35  C   UNK N   1      28.342  19.988   5.619  0.00  0.00     0.018 A 
BRANCH  31  36
HETATM   36  C   UNK N   1      26.324  16.899   4.447  0.00  0.00    -0.025 A 
HETATM   37  C   UNK N   1      26.082  15.806   5.298  0.00  0.00     0.012 A 
HETATM   38  C   UNK N   1      25.770  14.541   4.805  0.00  0.00     0.001 A 
HETATM   39  C   UNK N   1      25.715  14.332   3.431  0.00  0.00     0.000 A 
HETATM   40  C   UNK N   1      25.971  15.392   2.559  0.00  0.00     0.001 A 
HETATM   41  C   UNK N   1      26.274  16.664   3.062  0.00  0.00     0.012 A 
ENDBRANCH  31  36
ENDBRANCH  27  30
ENDBRANCH   4  26
TORSDOF 4
ENDMDL
MODEL 7
REMARK VINA RESULT:      -8.2     12.308     16.936
REMARK  4 active torsions:
REMARK  status: ('A' for Active; 'I' for Inactive)
REMARK       I    between atoms: N_3  and  C_15 
REMARK    1  A    between atoms: N_7  and  C_24 
REMARK       I    between atoms: N_7  and  C_29 
REMARK    2  A    between atoms: C_15  and  C_18 
REMARK    3  A    between atoms: C_27  and  C_29 
REMARK    4  A    between atoms: C_28  and  C_30 
ROOT
HETATM    1  C   UNK N   1      29.207  23.242  -4.152  0.00  0.00     0.032 A 
HETATM    2  C   UNK N   1      29.794  22.786  -2.971  0.00  0.00     0.019 A 
HETATM    3  C   UNK N   1      29.572  22.628  -5.367  0.00  0.00     0.019 A 
HETATM    4  C   UNK N   1      30.969  21.062  -4.222  0.00  0.00     0.035 A 
HETATM    5  C   UNK N   1      30.651  21.690  -3.004  0.00  0.00     0.030 A 
HETATM    6  C   UNK N   1      30.452  21.553  -5.408  0.00  0.00     0.030 A 
ENDROOT
BRANCH   1   7
HETATM    7  C   UNK N   1      28.266  24.405  -4.109  0.00  0.00     0.258 C 
HETATM    8  O   UNK N   1      27.077  24.159  -3.946  0.00  0.00    -0.267 OA
HETATM    9  N   UNK N   1      28.703  25.716  -4.207  0.00  0.00    -0.313 N 
HETATM   10  C   UNK N   1      30.065  25.960  -4.627  0.00  0.00     0.138 C 
HETATM   11  C   UNK N   1      27.822  26.852  -4.031  0.00  0.00     0.050 A 
HETATM   12  C   UNK N   1      30.899  26.284  -3.433  0.00  0.00     0.080 C 
HETATM   13  C   UNK N   1      30.828  27.730  -3.248  0.00  0.00     0.040 A 
HETATM   14  N   UNK N   1      31.896  28.472  -2.926  0.00  0.00    -0.348 N 
HETATM   15  C   UNK N   1      29.711  28.534  -3.345  0.00  0.00     0.069 A 
HETATM   16  C   UNK N   1      31.414  29.722  -2.818  0.00  0.00     0.077 A 
HETATM   17  H   UNK N   1      32.824  28.170  -2.798  0.00  0.00     0.167 HD
HETATM   18  N   UNK N   1      30.088  29.797  -3.063  0.00  0.00    -0.344 N 
HETATM   19  C   UNK N   1      32.254  30.889  -2.450  0.00  0.00     0.089 C 
ATOM     20  HN  UNK N   1      29.500  30.631  -3.040  1.00  0.00     0.167 HD
HETATM   21  C   UNK N   1      28.295  28.166  -3.669  0.00  0.00     0.020 A 
HETATM   22  C   UNK N   1      27.359  29.207  -3.548  0.00  0.00     0.016 A 
HETATM   23  C   UNK N   1      26.000  29.000  -3.756  0.00  0.00     0.001 A 
HETATM   24  C   UNK N   1      25.535  27.735  -4.084  0.00  0.00     0.002 A 
HETATM   25  C   UNK N   1      26.433  26.682  -4.219  0.00  0.00     0.031 A 
ENDBRANCH   1   7
BRANCH   4  26
HETATM   26  N   UNK N   1      31.780  19.904  -4.218  0.00  0.00    -0.323 N 
HETATM   27  C   UNK N   1      33.118  20.035  -4.373  0.00  0.00     0.257 C 
HETATM   28  O   UNK N   1      33.656  21.118  -4.178  0.00  0.00    -0.267 OA
HETATM   29  H   UNK N   1      31.375  19.013  -4.105  0.00  0.00     0.169 HD
BRANCH  27  30
HETATM   30  C   UNK N   1      33.911  18.925  -4.897  0.00  0.00     0.043 A 
HETATM   31  C   UNK N   1      34.225  18.820  -6.291  0.00  0.00    -0.010 A 
HETATM   32  C   UNK N   1      35.018  17.734  -6.703  0.00  0.00     0.013 A 
HETATM   33  C   UNK N   1      35.477  16.783  -5.790  0.00  0.00     0.001 A 
HETATM   34  C   UNK N   1      35.127  16.877  -4.445  0.00  0.00     0.001 A 
HETATM   35  C   UNK N   1      34.342  17.938  -4.003  0.00  0.00     0.018 A 
BRANCH  31  36
HETATM   36  C   UNK N   1      33.676  19.739  -7.365  0.00  0.00    -0.025 A 
HETATM   37  C   UNK N   1      34.338  20.911  -7.769  0.00  0.00     0.012 A 
HETATM   38  C   UNK N   1      33.800  21.774  -8.723  0.00  0.00     0.001 A 
HETATM   39  C   UNK N   1      32.559  21.490  -9.284  0.00  0.00     0.000 A 
HETATM   40  C   UNK N   1      31.866  20.344  -8.888  0.00  0.00     0.001 A 
HETATM   41  C   UNK N   1      32.419  19.477  -7.936  0.00  0.00     0.012 A 
ENDBRANCH  31  36
ENDBRANCH  27  30
ENDBRANCH   4  26
TORSDOF 4
ENDMDL
MODEL 8
REMARK VINA RESULT:      -8.2      3.857     10.884
REMARK  4 active torsions:
REMARK  status: ('A' for Active; 'I' for Inactive)
REMARK       I    between atoms: N_3  and  C_15 
REMARK    1  A    between atoms: N_7  and  C_24 
REMARK       I    between atoms: N_7  and  C_29 
REMARK    2  A    between atoms: C_15  and  C_18 
REMARK    3  A    between atoms: C_27  and  C_29 
REMARK    4  A    between atoms: C_28  and  C_30 
ROOT
HETATM    1  C   UNK N   1      35.533  13.652  10.376  0.00  0.00     0.032 A 
HETATM    2  C   UNK N   1      35.225  12.368  10.829  0.00  0.00     0.019 A 
HETATM    3  C   UNK N   1      35.948  14.617  11.315  0.00  0.00     0.019 A 
HETATM    4  C   UNK N   1      35.871  13.010  13.084  0.00  0.00     0.035 A 
HETATM    5  C   UNK N   1      35.415  12.045  12.169  0.00  0.00     0.030 A 
HETATM    6  C   UNK N   1      36.108  14.307  12.661  0.00  0.00     0.030 A 
ENDROOT
BRANCH   1   7
HETATM    7  C   UNK N   1      35.352  13.988   8.929  0.00  0.00     0.258 C 
HETATM    8  O   UNK N   1      35.975  13.317   8.115  0.00  0.00    -0.267 OA
HETATM    9  N   UNK N   1      34.492  14.987   8.503  0.00  0.00    -0.313 N 
HETATM   10  C   UNK N   1      33.957  15.903   9.484  0.00  0.00     0.138 C 
HETATM   11  C   UNK N   1      34.206  15.231   7.104  0.00  0.00     0.050 A 
HETATM   12  C   UNK N   1      32.556  15.510   9.814  0.00  0.00     0.080 C 
HETATM   13  C   UNK N   1      31.688  16.208   8.872  0.00  0.00     0.040 A 
HETATM   14  N   UNK N   1      30.532  16.779   9.237  0.00  0.00    -0.348 N 
HETATM   15  C   UNK N   1      31.884  16.374   7.516  0.00  0.00     0.069 A 
HETATM   16  C   UNK N   1      30.029  17.277   8.095  0.00  0.00     0.077 A 
HETATM   17  H   UNK N   1      30.140  16.824  10.139  0.00  0.00     0.167 HD
HETATM   18  N   UNK N   1      30.823  17.047   7.027  0.00  0.00    -0.344 N 
HETATM   19  C   UNK N   1      28.728  17.987   8.020  0.00  0.00     0.089 C 
ATOM     20  HN  UNK N   1      30.655  17.324   6.059  1.00  0.00     0.167 HD
HETATM   21  C   UNK N   1      33.015  15.908   6.651  0.00  0.00     0.020 A 
HETATM   22  C   UNK N   1      32.845  16.117   5.272  0.00  0.00     0.016 A 
HETATM   23  C   UNK N   1      33.783  15.682   4.342  0.00  0.00     0.001 A 
HETATM   24  C   UNK N   1      34.919  15.012   4.768  0.00  0.00     0.002 A 
HETATM   25  C   UNK N   1      35.125  14.793   6.126  0.00  0.00     0.031 A 
ENDBRANCH   1   7
BRANCH   4  26
HETATM   26  N   UNK N   1      36.129  12.635  14.422  0.00  0.00    -0.323 N 
HETATM   27  C   UNK N   1      35.098  12.252  15.211  0.00  0.00     0.257 C 
HETATM   28  O   UNK N   1      34.035  11.908  14.708  0.00  0.00    -0.267 OA
HETATM   29  H   UNK N   1      37.048  12.652  14.777  0.00  0.00     0.169 HD
BRANCH  27  30
HETATM   30  C   UNK N   1      35.198  12.370  16.664  0.00  0.00     0.043 A 
HETATM   31  C   UNK N   1      35.592  11.262  17.482  0.00  0.00    -0.010 A 
HETATM   32  C   UNK N   1      35.690  11.473  18.868  0.00  0.00     0.013 A 
HETATM   33  C   UNK N   1      35.405  12.717  19.435  0.00  0.00     0.001 A 
HETATM   34  C   UNK N   1      34.983  13.773  18.631  0.00  0.00     0.001 A 
HETATM   35  C   UNK N   1      34.873  13.598  17.253  0.00  0.00     0.018 A 
BRANCH  31  36
HETATM   36  C   UNK N   1      35.808   9.852  16.967  0.00  0.00    -0.025 A 
HETATM   37  C   UNK N   1      35.079   8.750  17.448  0.00  0.00     0.012 A 
HETATM   38  C   UNK N   1      35.321   7.452  17.002  0.00  0.00     0.001 A 
HETATM   39  C   UNK N   1      36.326   7.221  16.069  0.00  0.00     0.000 A 
HETATM   40  C   UNK N   1      37.082   8.291  15.587  0.00  0.00     0.001 A 
HETATM   41  C   UNK N   1      36.826   9.595  16.032  0.00  0.00     0.012 A 
ENDBRANCH  31  36
ENDBRANCH  27  30
ENDBRANCH   4  26
TORSDOF 4
ENDMDL
MODEL 9
REMARK VINA RESULT:      -8.2     12.381     14.831
REMARK  4 active torsions:
REMARK  status: ('A' for Active; 'I' for Inactive)
REMARK       I    between atoms: N_3  and  C_15 
REMARK    1  A    between atoms: N_7  and  C_24 
REMARK       I    between atoms: N_7  and  C_29 
REMARK    2  A    between atoms: C_15  and  C_18 
REMARK    3  A    between atoms: C_27  and  C_29 
REMARK    4  A    between atoms: C_28  and  C_30 
ROOT
HETATM    1  C   UNK N   1      31.473  21.422  -4.217  0.00  0.00     0.032 A 
HETATM    2  C   UNK N   1      31.456  22.244  -3.088  0.00  0.00     0.019 A 
HETATM    3  C   UNK N   1      30.575  21.700  -5.266  0.00  0.00     0.019 A 
HETATM    4  C   UNK N   1      29.763  23.643  -4.134  0.00  0.00     0.035 A 
HETATM    5  C   UNK N   1      30.622  23.358  -3.058  0.00  0.00     0.030 A 
HETATM    6  C   UNK N   1      29.718  22.794  -5.226  0.00  0.00     0.030 A 
ENDROOT
BRANCH   1   7
HETATM    7  C   UNK N   1      32.389  20.240  -4.256  0.00  0.00     0.258 C 
HETATM    8  O   UNK N   1      31.888  19.135  -4.087  0.00  0.00    -0.267 OA
HETATM    9  N   UNK N   1      33.746  20.362  -4.510  0.00  0.00    -0.313 N 
HETATM   10  C   UNK N   1      34.339  21.680  -4.474  0.00  0.00     0.138 C 
HETATM   11  C   UNK N   1      34.617  19.218  -4.684  0.00  0.00     0.050 A 
HETATM   12  C   UNK N   1      34.529  22.174  -5.868  0.00  0.00     0.080 C 
HETATM   13  C   UNK N   1      35.849  21.727  -6.300  0.00  0.00     0.040 A 
HETATM   14  N   UNK N   1      36.687  22.507  -6.996  0.00  0.00    -0.348 N 
HETATM   15  C   UNK N   1      36.423  20.489  -6.096  0.00  0.00     0.069 A 
HETATM   16  C   UNK N   1      37.760  21.730  -7.220  0.00  0.00     0.077 A 
HETATM   17  H   UNK N   1      36.549  23.440  -7.278  0.00  0.00     0.167 HD
HETATM   18  N   UNK N   1      37.634  20.494  -6.690  0.00  0.00    -0.344 N 
HETATM   19  C   UNK N   1      38.947  22.183  -7.987  0.00  0.00     0.089 C 
ATOM     20  HN  UNK N   1      38.309  19.731  -6.731  1.00  0.00     0.167 HD
HETATM   21  C   UNK N   1      35.876  19.288  -5.387  0.00  0.00     0.020 A 
HETATM   22  C   UNK N   1      36.659  18.125  -5.478  0.00  0.00     0.016 A 
HETATM   23  C   UNK N   1      36.248  16.918  -4.923  0.00  0.00     0.001 A 
HETATM   24  C   UNK N   1      35.031  16.838  -4.265  0.00  0.00     0.002 A 
HETATM   25  C   UNK N   1      34.232  17.970  -4.148  0.00  0.00     0.031 A 
ENDBRANCH   1   7
BRANCH   4  26
HETATM   26  N   UNK N   1      28.985  24.823  -4.111  0.00  0.00    -0.323 N 
HETATM   27  C   UNK N   1      27.693  24.754  -3.712  0.00  0.00     0.257 C 
HETATM   28  O   UNK N   1      27.300  23.789  -3.067  0.00  0.00    -0.267 OA
HETATM   29  H   UNK N   1      29.378  25.684  -4.382  0.00  0.00     0.169 HD
BRANCH  27  30
HETATM   30  C   UNK N   1      26.731  25.760  -4.155  0.00  0.00     0.043 A 
HETATM   31  C   UNK N   1      26.007  25.617  -5.383  0.00  0.00    -0.010 A 
HETATM   32  C   UNK N   1      25.079  26.619  -5.716  0.00  0.00     0.013 A 
HETATM   33  C   UNK N   1      24.874  27.723  -4.888  0.00  0.00     0.001 A 
HETATM   34  C   UNK N   1      25.617  27.869  -3.718  0.00  0.00     0.001 A 
HETATM   35  C   UNK N   1      26.545  26.896  -3.358  0.00  0.00     0.018 A 
BRANCH  31  36
HETATM   36  C   UNK N   1      26.248  24.514  -6.395  0.00  0.00    -0.025 A 
HETATM   37  C   UNK N   1      25.638  23.251  -6.299  0.00  0.00     0.012 A 
HETATM   38  C   UNK N   1      25.904  22.229  -7.209  0.00  0.00     0.001 A 
HETATM   39  C   UNK N   1      26.817  22.444  -8.237  0.00  0.00     0.000 A 
HETATM   40  C   UNK N   1      27.456  23.681  -8.347  0.00  0.00     0.001 A 
HETATM   41  C   UNK N   1      27.175  24.707  -7.435  0.00  0.00     0.012 A 
ENDBRANCH  31  36
ENDBRANCH  27  30
ENDBRANCH   4  26
TORSDOF 4
ENDMDL
