MODEL 1
REMARK VINA RESULT:      -5.0      0.000      0.000
REMARK  7 active torsions:
REMARK  status: ('A' for Active; 'I' for Inactive)
REMARK    1  A    between atoms: O_1  and  C_6 
REMARK    2  A    between atoms: O_1  and  C_8 
REMARK    3  A    between atoms: O_2  and  C_5 
REMARK    4  A    between atoms: O_3  and  C_7 
REMARK    5  A    between atoms: O_4  and  C_9 
REMARK    6  A    between atoms: C_5  and  C_6 
REMARK    7  A    between atoms: C_5  and  C_7 
ROOT
HETATM    1  C   UNK N   1      25.617  24.966  -5.302  0.00  0.00     0.102 A 
HETATM    2  C   UNK N   1      26.181  25.182  -4.013  0.00  0.00     0.101 A 
HETATM    3  C   UNK N   1      25.164  26.072  -6.046  0.00  0.00     0.039 A 
HETATM    4  C   UNK N   1      26.268  26.493  -3.523  0.00  0.00     0.039 A 
HETATM    5  C   UNK N   1      25.260  27.365  -5.536  0.00  0.00     0.003 A 
HETATM    6  C   UNK N   1      25.811  27.575  -4.275  0.00  0.00     0.003 A 
ENDROOT
BRANCH   1   7
HETATM    7  O   UNK N   1      25.513  23.713  -5.818  0.00  0.00    -0.346 OA
BRANCH   7   8
HETATM    8  C   UNK N   1      26.310  23.284  -6.859  0.00  0.00     0.209 C 
BRANCH   8   9
HETATM    9  C   UNK N   1      25.518  22.528  -7.909  0.00  0.00     0.166 C 
BRANCH   9  10
HETATM   10  O   UNK N   1      24.513  23.339  -8.439  0.00  0.00    -0.391 OA
HETATM   11  H   UNK N   1      23.557  23.218  -8.340  0.00  0.00     0.210 HD
ENDBRANCH   9  10
BRANCH   9  12
HETATM   12  C   UNK N   1      24.896  21.324  -7.224  0.00  0.00     0.198 C 
BRANCH  12  13
HETATM   13  O   UNK N   1      23.575  21.591  -6.873  0.00  0.00    -0.398 OA
HETATM   14  H   UNK N   1      22.998  22.196  -7.366  0.00  0.00     0.209 HD
ENDBRANCH  12  13
ENDBRANCH   9  12
ENDBRANCH   8   9
ENDBRANCH   7   8
ENDBRANCH   1   7
BRANCH   2  15
HETATM   15  O   UNK N   1      26.658  24.187  -3.221  0.00  0.00    -0.353 OA
HETATM   16  C   UNK N   1      27.980  23.824  -3.100  0.00  0.00     0.210 C 
ENDBRANCH   2  15
TORSDOF 7
ENDMDL
MODEL 2
REMARK VINA RESULT:      -4.9     21.780     24.785
REMARK  7 active torsions:
REMARK  status: ('A' for Active; 'I' for Inactive)
REMARK    1  A    between atoms: O_1  and  C_6 
REMARK    2  A    between atoms: O_1  and  C_8 
REMARK    3  A    between atoms: O_2  and  C_5 
REMARK    4  A    between atoms: O_3  and  C_7 
REMARK    5  A    between atoms: O_4  and  C_9 
REMARK    6  A    between atoms: C_5  and  C_6 
REMARK    7  A    between atoms: C_5  and  C_7 
ROOT
HETATM    1  C   UNK N   1      34.939  12.418  14.301  0.00  0.00     0.102 A 
HETATM    2  C   UNK N   1      36.110  12.465  15.111  0.00  0.00     0.101 A 
HETATM    3  C   UNK N   1      34.031  11.355  14.471  0.00  0.00     0.039 A 
HETATM    4  C   UNK N   1      36.322  11.450  16.054  0.00  0.00     0.039 A 
HETATM    5  C   UNK N   1      34.266  10.358  15.415  0.00  0.00     0.003 A 
HETATM    6  C   UNK N   1      35.411  10.405  16.205  0.00  0.00     0.003 A 
ENDROOT
BRANCH   1   7
HETATM    7  O   UNK N   1      34.691  13.380  13.374  0.00  0.00    -0.346 OA
BRANCH   7   8
HETATM    8  C   UNK N   1      35.068  13.237  12.055  0.00  0.00     0.209 C 
BRANCH   8   9
HETATM    9  C   UNK N   1      35.760  14.477  11.523  0.00  0.00     0.166 C 
BRANCH   9  10
HETATM   10  O   UNK N   1      36.408  15.155  12.557  0.00  0.00    -0.391 OA
HETATM   11  H   UNK N   1      36.078  15.926  13.042  0.00  0.00     0.210 HD
ENDBRANCH   9  10
BRANCH   9  12
HETATM   12  C   UNK N   1      34.689  15.368  10.918  0.00  0.00     0.198 C 
BRANCH  12  13
HETATM   13  O   UNK N   1      33.421  14.899  11.251  0.00  0.00    -0.398 OA
HETATM   14  H   UNK N   1      32.679  14.860  10.627  0.00  0.00     0.209 HD
ENDBRANCH  12  13
ENDBRANCH   9  12
ENDBRANCH   8   9
ENDBRANCH   7   8
ENDBRANCH   1   7
BRANCH   2  15
HETATM   15  O   UNK N   1      37.041  13.451  15.033  0.00  0.00    -0.353 OA
HETATM   16  C   UNK N   1      37.057  14.598  15.794  0.00  0.00     0.210 C 
ENDBRANCH   2  15
TORSDOF 7
ENDMDL
MODEL 3
REMARK VINA RESULT:      -4.9     14.630     16.267
REMARK  7 active torsions:
REMARK  status: ('A' for Active; 'I' for Inactive)
REMARK    1  A    between atoms: O_1  and  C_6 
REMARK    2  A    between atoms: O_1  and  C_8 
REMARK    3  A    between atoms: O_2  and  C_5 
REMARK    4  A    between atoms: O_3  and  C_7 
REMARK    5  A    between atoms: O_4  and  C_9 
REMARK    6  A    between atoms: C_5  and  C_6 
REMARK    7  A    between atoms: C_5  and  C_7 
ROOT
HETATM    1  C   UNK N   1      31.081  17.065   6.754  0.00  0.00     0.102 A 
HETATM    2  C   UNK N   1      32.392  17.319   7.249  0.00  0.00     0.101 A 
HETATM    3  C   UNK N   1      30.854  17.106   5.365  0.00  0.00     0.039 A 
HETATM    4  C   UNK N   1      33.417  17.602   6.336  0.00  0.00     0.039 A 
HETATM    5  C   UNK N   1      31.890  17.391   4.478  0.00  0.00     0.003 A 
HETATM    6  C   UNK N   1      33.171  17.639   4.964  0.00  0.00     0.003 A 
ENDROOT
BRANCH   1   7
HETATM    7  O   UNK N   1      30.056  16.786   7.601  0.00  0.00    -0.346 OA
BRANCH   7   8
HETATM    8  C   UNK N   1      28.928  17.577   7.667  0.00  0.00     0.209 C 
BRANCH   8   9
HETATM    9  C   UNK N   1      28.190  17.407   8.981  0.00  0.00     0.166 C 
BRANCH   9  10
HETATM   10  O   UNK N   1      27.394  18.525   9.241  0.00  0.00    -0.391 OA
HETATM   11  H   UNK N   1      26.554  18.750   8.815  0.00  0.00     0.210 HD
ENDBRANCH   9  10
BRANCH   9  12
HETATM   12  C   UNK N   1      29.237  17.259  10.071  0.00  0.00     0.198 C 
BRANCH  12  13
HETATM   13  O   UNK N   1      30.166  18.295   9.998  0.00  0.00    -0.398 OA
HETATM   14  H   UNK N   1      30.308  18.943  10.705  0.00  0.00     0.209 HD
ENDBRANCH  12  13
ENDBRANCH   9  12
ENDBRANCH   8   9
ENDBRANCH   7   8
ENDBRANCH   1   7
BRANCH   2  15
HETATM   15  O   UNK N   1      32.718  17.293   8.567  0.00  0.00    -0.353 OA
HETATM   16  C   UNK N   1      33.988  17.133   9.074  0.00  0.00     0.210 C 
ENDBRANCH   2  15
TORSDOF 7
ENDMDL
MODEL 4
REMARK VINA RESULT:      -4.9     15.459     18.289
REMARK  7 active torsions:
REMARK  status: ('A' for Active; 'I' for Inactive)
REMARK    1  A    between atoms: O_1  and  C_6 
REMARK    2  A    between atoms: O_1  and  C_8 
REMARK    3  A    between atoms: O_2  and  C_5 
REMARK    4  A    between atoms: O_3  and  C_7 
REMARK    5  A    between atoms: O_4  and  C_9 
REMARK    6  A    between atoms: C_5  and  C_6 
REMARK    7  A    between atoms: C_5  and  C_7 
ROOT
HETATM    1  C   UNK N   1      33.178  17.133   7.795  0.00  0.00     0.102 A 
HETATM    2  C   UNK N   1      31.770  16.984   7.638  0.00  0.00     0.101 A 
HETATM    3  C   UNK N   1      33.975  17.347   6.655  0.00  0.00     0.039 A 
HETATM    4  C   UNK N   1      31.222  17.054   6.349  0.00  0.00     0.039 A 
HETATM    5  C   UNK N   1      33.406  17.411   5.385  0.00  0.00     0.003 A 
HETATM    6  C   UNK N   1      32.030  17.264   5.232  0.00  0.00     0.003 A 
ENDROOT
BRANCH   1   7
HETATM    7  O   UNK N   1      33.754  17.074   9.024  0.00  0.00    -0.346 OA
BRANCH   7   8
HETATM    8  C   UNK N   1      34.909  16.357   9.254  0.00  0.00     0.209 C 
BRANCH   8   9
HETATM    9  C   UNK N   1      35.261  16.301  10.729  0.00  0.00     0.166 C 
BRANCH   9  10
HETATM   10  O   UNK N   1      36.647  16.278  10.898  0.00  0.00    -0.391 OA
HETATM   11  H   UNK N   1      37.130  15.996  11.690  0.00  0.00     0.210 HD
ENDBRANCH   9  10
BRANCH   9  12
HETATM   12  C   UNK N   1      34.654  15.028  11.290  0.00  0.00     0.198 C 
BRANCH  12  13
HETATM   13  O   UNK N   1      33.274  15.022  11.102  0.00  0.00    -0.398 OA
HETATM   14  H   UNK N   1      32.799  15.678  10.568  0.00  0.00     0.209 HD
ENDBRANCH  12  13
ENDBRANCH   9  12
ENDBRANCH   8   9
ENDBRANCH   7   8
ENDBRANCH   1   7
BRANCH   2  15
HETATM   15  O   UNK N   1      30.912  16.786   8.672  0.00  0.00    -0.353 OA
HETATM   16  C   UNK N   1      30.119  17.751   9.249  0.00  0.00     0.210 C 
ENDBRANCH   2  15
TORSDOF 7
ENDMDL
MODEL 5
REMARK VINA RESULT:      -4.8     14.114     16.985
REMARK  7 active torsions:
REMARK  status: ('A' for Active; 'I' for Inactive)
REMARK    1  A    between atoms: O_1  and  C_6 
REMARK    2  A    between atoms: O_1  and  C_8 
REMARK    3  A    between atoms: O_2  and  C_5 
REMARK    4  A    between atoms: O_3  and  C_7 
REMARK    5  A    between atoms: O_4  and  C_9 
REMARK    6  A    between atoms: C_5  and  C_6 
REMARK    7  A    between atoms: C_5  and  C_7 
ROOT
HETATM    1  C   UNK N   1      30.858  17.556   8.071  0.00  0.00     0.102 A 
HETATM    2  C   UNK N   1      29.816  17.104   7.211  0.00  0.00     0.101 A 
HETATM    3  C   UNK N   1      30.520  18.246   9.251  0.00  0.00     0.039 A 
HETATM    4  C   UNK N   1      28.485  17.359   7.568  0.00  0.00     0.039 A 
HETATM    5  C   UNK N   1      29.189  18.488   9.583  0.00  0.00     0.003 A 
HETATM    6  C   UNK N   1      28.172  18.045   8.741  0.00  0.00     0.003 A 
ENDROOT
BRANCH   1   7
HETATM    7  O   UNK N   1      32.162  17.331   7.766  0.00  0.00    -0.346 OA
BRANCH   7   8
HETATM    8  C   UNK N   1      32.951  16.484   8.516  0.00  0.00     0.209 C 
BRANCH   8   9
HETATM    9  C   UNK N   1      34.336  17.057   8.755  0.00  0.00     0.166 C 
BRANCH   9  10
HETATM   10  O   UNK N   1      34.542  17.280  10.118  0.00  0.00    -0.391 OA
HETATM   11  H   UNK N   1      34.638  18.138  10.557  0.00  0.00     0.210 HD
ENDBRANCH   9  10
BRANCH   9  12
HETATM   12  C   UNK N   1      34.415  18.374   8.003  0.00  0.00     0.198 C 
BRANCH  12  13
HETATM   13  O   UNK N   1      35.348  19.220   8.598  0.00  0.00    -0.398 OA
HETATM   14  H   UNK N   1      35.391  20.175   8.436  0.00  0.00     0.209 HD
ENDBRANCH  12  13
ENDBRANCH   9  12
ENDBRANCH   8   9
ENDBRANCH   7   8
ENDBRANCH   1   7
BRANCH   2  15
HETATM   15  O   UNK N   1      30.034  16.421   6.057  0.00  0.00    -0.353 OA
HETATM   16  C   UNK N   1      29.908  16.937   4.787  0.00  0.00     0.210 C 
ENDBRANCH   2  15
TORSDOF 7
ENDMDL
MODEL 6
REMARK VINA RESULT:      -4.7     22.455     24.965
REMARK  7 active torsions:
REMARK  status: ('A' for Active; 'I' for Inactive)
REMARK    1  A    between atoms: O_1  and  C_6 
REMARK    2  A    between atoms: O_1  and  C_8 
REMARK    3  A    between atoms: O_2  and  C_5 
REMARK    4  A    between atoms: O_3  and  C_7 
REMARK    5  A    between atoms: O_4  and  C_9 
REMARK    6  A    between atoms: C_5  and  C_6 
REMARK    7  A    between atoms: C_5  and  C_7 
ROOT
HETATM    1  C   UNK N   1      36.155  13.853  15.043  0.00  0.00     0.102 A 
HETATM    2  C   UNK N   1      35.018  13.073  15.399  0.00  0.00     0.101 A 
HETATM    3  C   UNK N   1      36.818  14.593  16.041  0.00  0.00     0.039 A 
HETATM    4  C   UNK N   1      34.594  13.066  16.735  0.00  0.00     0.039 A 
HETATM    5  C   UNK N   1      36.375  14.571  17.361  0.00  0.00     0.003 A 
HETATM    6  C   UNK N   1      35.263  13.808  17.708  0.00  0.00     0.003 A 
ENDROOT
BRANCH   1   7
HETATM    7  O   UNK N   1      36.604  13.890  13.761  0.00  0.00    -0.346 OA
BRANCH   7   8
HETATM    8  C   UNK N   1      36.169  14.841  12.863  0.00  0.00     0.209 C 
BRANCH   8   9
HETATM    9  C   UNK N   1      35.540  14.217  11.631  0.00  0.00     0.166 C 
BRANCH   9  10
HETATM   10  O   UNK N   1      34.309  13.642  11.952  0.00  0.00    -0.391 OA
HETATM   11  H   UNK N   1      33.769  13.072  11.383  0.00  0.00     0.210 HD
ENDBRANCH   9  10
BRANCH   9  12
HETATM   12  C   UNK N   1      36.493  13.145  11.132  0.00  0.00     0.198 C 
BRANCH  12  13
HETATM   13  O   UNK N   1      37.813  13.521  11.364  0.00  0.00    -0.398 OA
HETATM   14  H   UNK N   1      38.572  12.928  11.246  0.00  0.00     0.209 HD
ENDBRANCH  12  13
ENDBRANCH   9  12
ENDBRANCH   8   9
ENDBRANCH   7   8
ENDBRANCH   1   7
BRANCH   2  15
HETATM   15  O   UNK N   1      34.316  12.316  14.516  0.00  0.00    -0.353 OA
HETATM   16  C   UNK N   1      33.839  11.047  14.753  0.00  0.00     0.210 C 
ENDBRANCH   2  15
TORSDOF 7
ENDMDL
MODEL 7
REMARK VINA RESULT:      -4.7     23.362     26.085
REMARK  7 active torsions:
REMARK  status: ('A' for Active; 'I' for Inactive)
REMARK    1  A    between atoms: O_1  and  C_6 
REMARK    2  A    between atoms: O_1  and  C_8 
REMARK    3  A    between atoms: O_2  and  C_5 
REMARK    4  A    between atoms: O_3  and  C_7 
REMARK    5  A    between atoms: O_4  and  C_9 
REMARK    6  A    between atoms: C_5  and  C_6 
REMARK    7  A    between atoms: C_5  and  C_7 
ROOT
HETATM    1  C   UNK N   1      35.022  12.799  16.069  0.00  0.00     0.102 A 
HETATM    2  C   UNK N   1      35.053  11.376  16.038  0.00  0.00     0.101 A 
HETATM    3  C   UNK N   1      35.120  13.460  17.308  0.00  0.00     0.039 A 
HETATM    4  C   UNK N   1      35.181  10.676  17.247  0.00  0.00     0.039 A 
HETATM    5  C   UNK N   1      35.246  12.741  18.495  0.00  0.00     0.003 A 
HETATM    6  C   UNK N   1      35.276  11.350  18.464  0.00  0.00     0.003 A 
ENDROOT
BRANCH   1   7
HETATM    7  O   UNK N   1      34.900  13.520  14.924  0.00  0.00    -0.346 OA
BRANCH   7   8
HETATM    8  C   UNK N   1      36.000  13.959  14.217  0.00  0.00     0.209 C 
BRANCH   8   9
HETATM    9  C   UNK N   1      35.778  13.891  12.718  0.00  0.00     0.166 C 
BRANCH   9  10
HETATM   10  O   UNK N   1      34.441  13.604  12.435  0.00  0.00    -0.391 OA
HETATM   11  H   UNK N   1      33.882  12.949  12.879  0.00  0.00     0.210 HD
ENDBRANCH   9  10
BRANCH   9  12
HETATM   12  C   UNK N   1      36.664  12.781  12.180  0.00  0.00     0.198 C 
BRANCH  12  13
HETATM   13  O   UNK N   1      37.051  11.926  13.210  0.00  0.00    -0.398 OA
HETATM   14  H   UNK N   1      37.774  12.117  13.828  0.00  0.00     0.209 HD
ENDBRANCH  12  13
ENDBRANCH   9  12
ENDBRANCH   8   9
ENDBRANCH   7   8
ENDBRANCH   1   7
BRANCH   2  15
HETATM   15  O   UNK N   1      34.976  10.644  14.897  0.00  0.00    -0.353 OA
HETATM   16  C   UNK N   1      33.861  10.521  14.099  0.00  0.00     0.210 C 
ENDBRANCH   2  15
TORSDOF 7
ENDMDL
MODEL 8
REMARK VINA RESULT:      -4.6     17.337     19.242
REMARK  7 active torsions:
REMARK  status: ('A' for Active; 'I' for Inactive)
REMARK    1  A    between atoms: O_1  and  C_6 
REMARK    2  A    between atoms: O_1  and  C_8 
REMARK    3  A    between atoms: O_2  and  C_5 
REMARK    4  A    between atoms: O_3  and  C_7 
REMARK    5  A    between atoms: O_4  and  C_9 
REMARK    6  A    between atoms: C_5  and  C_6 
REMARK    7  A    between atoms: C_5  and  C_7 
ROOT
HETATM    1  C   UNK N   1      22.135  12.780   9.959  0.00  0.00     0.102 A 
HETATM    2  C   UNK N   1      23.442  12.913   9.409  0.00  0.00     0.101 A 
HETATM    3  C   UNK N   1      21.988  12.253  11.256  0.00  0.00     0.039 A 
HETATM    4  C   UNK N   1      24.544  12.513  10.178  0.00  0.00     0.039 A 
HETATM    5  C   UNK N   1      23.099  11.861  12.000  0.00  0.00     0.003 A 
HETATM    6  C   UNK N   1      24.376  11.991  11.461  0.00  0.00     0.003 A 
ENDROOT
BRANCH   1   7
HETATM    7  O   UNK N   1      21.037  13.155   9.252  0.00  0.00    -0.346 OA
BRANCH   7   8
HETATM    8  C   UNK N   1      20.108  14.039   9.760  0.00  0.00     0.209 C 
BRANCH   8   9
HETATM    9  C   UNK N   1      20.073  15.340   8.980  0.00  0.00     0.166 C 
BRANCH   9  10
HETATM   10  O   UNK N   1      18.787  15.882   8.995  0.00  0.00    -0.391 OA
HETATM   11  H   UNK N   1      18.527  16.749   9.341  0.00  0.00     0.210 HD
ENDBRANCH   9  10
BRANCH   9  12
HETATM   12  C   UNK N   1      20.479  15.022   7.552  0.00  0.00     0.198 C 
BRANCH  12  13
HETATM   13  O   UNK N   1      21.806  15.382   7.331  0.00  0.00    -0.398 OA
HETATM   14  H   UNK N   1      22.209  15.443   6.451  0.00  0.00     0.209 HD
ENDBRANCH  12  13
ENDBRANCH   9  12
ENDBRANCH   8   9
ENDBRANCH   7   8
ENDBRANCH   1   7
BRANCH   2  15
HETATM   15  O   UNK N   1      23.692  13.419   8.174  0.00  0.00    -0.353 OA
HETATM   16  C   UNK N   1      24.931  13.778   7.693  0.00  0.00     0.210 C 
ENDBRANCH   2  15
TORSDOF 7
ENDMDL
MODEL 9
REMARK VINA RESULT:      -4.5     21.389     24.439
REMARK  7 active torsions:
REMARK  status: ('A' for Active; 'I' for Inactive)
REMARK    1  A    between atoms: O_1  and  C_6 
REMARK    2  A    between atoms: O_1  and  C_8 
REMARK    3  A    between atoms: O_2  and  C_5 
REMARK    4  A    between atoms: O_3  and  C_7 
REMARK    5  A    between atoms: O_4  and  C_9 
REMARK    6  A    between atoms: C_5  and  C_6 
REMARK    7  A    between atoms: C_5  and  C_7 
ROOT
HETATM    1  C   UNK N   1      35.924  12.691  14.098  0.00  0.00     0.102 A 
HETATM    2  C   UNK N   1      34.944  11.695  13.820  0.00  0.00     0.101 A 
HETATM    3  C   UNK N   1      36.278  12.948  15.436  0.00  0.00     0.039 A 
HETATM    4  C   UNK N   1      34.362  11.001  14.890  0.00  0.00     0.039 A 
HETATM    5  C   UNK N   1      35.685  12.245  16.482  0.00  0.00     0.003 A 
HETATM    6  C   UNK N   1      34.727  11.272  16.209  0.00  0.00     0.003 A 
ENDROOT
BRANCH   1   7
HETATM    7  O   UNK N   1      36.515  13.388  13.093  0.00  0.00    -0.346 OA
BRANCH   7   8
HETATM    8  C   UNK N   1      36.187  14.700  12.824  0.00  0.00     0.209 C 
BRANCH   8   9
HETATM    9  C   UNK N   1      36.106  14.974  11.334  0.00  0.00     0.166 C 
BRANCH   9  10
HETATM   10  O   UNK N   1      36.830  16.123  11.010  0.00  0.00    -0.391 OA
HETATM   11  H   UNK N   1      37.426  16.239  10.255  0.00  0.00     0.210 HD
ENDBRANCH   9  10
BRANCH   9  12
HETATM   12  C   UNK N   1      34.641  15.177  10.991  0.00  0.00     0.198 C 
BRANCH  12  13
HETATM   13  O   UNK N   1      33.855  14.215  11.621  0.00  0.00    -0.398 OA
HETATM   14  H   UNK N   1      33.175  13.692  11.167  0.00  0.00     0.209 HD
ENDBRANCH  12  13
ENDBRANCH   9  12
ENDBRANCH   8   9
ENDBRANCH   7   8
ENDBRANCH   1   7
BRANCH   2  15
HETATM   15  O   UNK N   1      34.540  11.363  12.567  0.00  0.00    -0.353 OA
HETATM   16  C   UNK N   1      33.881  10.206  12.218  0.00  0.00     0.210 C 
ENDBRANCH   2  15
TORSDOF 7
ENDMDL
