REMARK  7 active torsions:
REMARK  status: ('A' for Active; 'I' for Inactive)
REMARK    1  A    between atoms: O_1  and  C_6 
REMARK    2  A    between atoms: O_1  and  C_8 
REMARK    3  A    between atoms: O_2  and  C_5 
REMARK    4  A    between atoms: O_3  and  C_7 
REMARK    5  A    between atoms: O_4  and  C_9 
REMARK    6  A    between atoms: C_5  and  C_6 
REMARK    7  A    between atoms: C_5  and  C_7 
ROOT
HETATM    1  C   UNK N   1       3.897  -1.374   0.075  0.00  0.00     0.102 A 
HETATM    2  C   UNK N   1       2.658  -2.076   0.085  0.00  0.00     0.101 A 
HETATM    3  C   UNK N   1       5.099  -2.107   0.052  0.00  0.00     0.039 A 
HETATM    4  C   UNK N   1       2.674  -3.478   0.071  0.00  0.00     0.039 A 
HETATM    5  C   UNK N   1       5.088  -3.500   0.040  0.00  0.00     0.003 A 
HETATM    6  C   UNK N   1       3.876  -4.185   0.050  0.00  0.00     0.003 A 
ENDROOT
BRANCH   1   7
HETATM    7  O   UNK N   1       3.931  -0.016   0.087  0.00  0.00    -0.346 OA
BRANCH   7   8
HETATM    8  C   UNK N   1       5.094   0.687  -0.148  0.00  0.00     0.209 C 
BRANCH   8   9
HETATM    9  C   UNK N   1       4.962   2.150   0.231  0.00  0.00     0.166 C 
BRANCH   9  10
HETATM   10  O   UNK N   1       3.846   2.715  -0.389  0.00  0.00    -0.391 OA
HETATM   11  H   UNK N   1       3.798   3.582  -0.819  0.00  0.00     0.210 HD
ENDBRANCH   9  10
BRANCH   9  12
HETATM   12  C   UNK N   1       6.222   2.854  -0.241  0.00  0.00     0.198 C 
BRANCH  12  13
HETATM   13  O   UNK N   1       6.249   4.167   0.223  0.00  0.00    -0.398 OA
HETATM   14  H   UNK N   1       7.050   4.609   0.546  0.00  0.00     0.209 HD
ENDBRANCH  12  13
ENDBRANCH   9  12
ENDBRANCH   8   9
ENDBRANCH   7   8
ENDBRANCH   1   7
BRANCH   2  15
HETATM   15  O   UNK N   1       1.445  -1.465   0.096  0.00  0.00    -0.353 OA
HETATM   16  C   UNK N   1       1.234  -0.105   0.067  0.00  0.00     0.210 C 
ENDBRANCH   2  15
TORSDOF 7
