MODEL 1
REMARK VINA RESULT:      -5.7      0.000      0.000
REMARK  4 active torsions:
REMARK  status: ('A' for Active; 'I' for Inactive)
REMARK    1  A    between atoms: O_4  and  C_13 
REMARK    2  A    between atoms: C_10  and  N_6 
REMARK    3  A    between atoms: N_9  and  C_17 
REMARK    4  A    between atoms: C_12  and  C_13 
ROOT
HETATM    1  F   UNK N   1      34.911  13.364  14.008  0.00  0.00    -0.201 F 
HETATM    2  O   UNK N   1      37.599  14.336   9.508  0.00  0.00    -0.246 OA
HETATM    3  N   UNK N   1      35.642  14.505  10.633  0.00  0.00    -0.279 N 
HETATM    4  N   UNK N   1      37.578  13.457  11.562  0.00  0.00    -0.292 N 
ATOM      5  HN  UNK N   1      38.548  13.162  11.464  1.00  0.00     0.172 HD
HETATM    6  C   UNK N   1      34.963  14.250  11.793  0.00  0.00     0.144 A 
HETATM    7  C   UNK N   1      36.964  14.108  10.526  0.00  0.00     0.330 A 
HETATM    8  C   UNK N   1      35.587  13.598  12.855  0.00  0.00     0.175 A 
HETATM    9  C   UNK N   1      36.915  13.200  12.716  0.00  0.00     0.143 A 
ENDROOT
BRANCH   3  10
HETATM   10  C   UNK N   1      34.982  15.237   9.535  0.00  0.00     0.243 C 
HETATM   11  O   UNK N   1      35.259  16.621   9.568  0.00  0.00    -0.348 OA
HETATM   12  C   UNK N   1      34.136  17.312   9.054  0.00  0.00     0.209 C 
HETATM   13  S   UNK N   1      32.952  16.164   8.283  0.00  0.00    -0.131 SA
HETATM   14  C   UNK N   1      33.487  15.042   9.553  0.00  0.00     0.131 C 
BRANCH  12  15
HETATM   15  C   UNK N   1      34.602  18.329   8.026  0.00  0.00     0.207 C 
BRANCH  15  16
HETATM   16  O   UNK N   1      35.381  19.311   8.640  0.00  0.00    -0.398 OA
HETATM   17  H   UNK N   1      36.338  19.424   8.535  0.00  0.00     0.209 HD
ENDBRANCH  15  16
ENDBRANCH  12  15
ENDBRANCH   3  10
BRANCH   9  18
HETATM   18  N   UNK N   1      37.576  12.539  13.771  0.00  0.00    -0.383 N 
HETATM   19  H   UNK N   1      38.339  11.945  13.582  0.00  0.00     0.157 HD
HETATM   20  H   UNK N   1      37.275  12.671  14.699  0.00  0.00     0.157 HD
ENDBRANCH   9  18
TORSDOF 4
ENDMDL
MODEL 2
REMARK VINA RESULT:      -5.5     13.721     14.893
REMARK  4 active torsions:
REMARK  status: ('A' for Active; 'I' for Inactive)
REMARK    1  A    between atoms: O_4  and  C_13 
REMARK    2  A    between atoms: C_10  and  N_6 
REMARK    3  A    between atoms: N_9  and  C_17 
REMARK    4  A    between atoms: C_12  and  C_13 
ROOT
HETATM    1  F   UNK N   1      24.369  12.402   9.569  0.00  0.00    -0.201 F 
HETATM    2  O   UNK N   1      19.318  14.069   9.929  0.00  0.00    -0.246 OA
HETATM    3  N   UNK N   1      21.285  14.175   8.814  0.00  0.00    -0.279 N 
HETATM    4  N   UNK N   1      20.981  12.834  10.768  0.00  0.00    -0.292 N 
ATOM      5  HN  UNK N   1      20.380  12.508  11.524  1.00  0.00     0.172 HD
HETATM    6  C   UNK N   1      22.580  13.740   8.732  0.00  0.00     0.144 A 
HETATM    7  C   UNK N   1      20.482  13.709   9.840  0.00  0.00     0.330 A 
HETATM    8  C   UNK N   1      23.089  12.841   9.668  0.00  0.00     0.175 A 
HETATM    9  C   UNK N   1      22.262  12.396  10.697  0.00  0.00     0.143 A 
ENDROOT
BRANCH   3  10
HETATM   10  C   UNK N   1      20.747  15.090   7.790  0.00  0.00     0.243 C 
HETATM   11  O   UNK N   1      20.001  14.414   6.801  0.00  0.00    -0.348 OA
HETATM   12  C   UNK N   1      20.147  15.110   5.578  0.00  0.00     0.209 C 
HETATM   13  S   UNK N   1      20.949  16.725   5.831  0.00  0.00    -0.131 SA
HETATM   14  C   UNK N   1      21.840  15.879   7.116  0.00  0.00     0.131 C 
BRANCH  12  15
HETATM   15  C   UNK N   1      18.779  15.314   4.951  0.00  0.00     0.207 C 
BRANCH  15  16
HETATM   16  O   UNK N   1      17.914  15.913   5.870  0.00  0.00    -0.398 OA
HETATM   17  H   UNK N   1      18.100  16.063   6.809  0.00  0.00     0.209 HD
ENDBRANCH  15  16
ENDBRANCH  12  15
ENDBRANCH   3  10
BRANCH   9  18
HETATM   18  N   UNK N   1      22.745  11.486  11.658  0.00  0.00    -0.383 N 
HETATM   19  H   UNK N   1      23.295  10.717  11.381  0.00  0.00     0.157 HD
HETATM   20  H   UNK N   1      22.531  11.618  12.611  0.00  0.00     0.157 HD
ENDBRANCH   9  18
TORSDOF 4
ENDMDL
MODEL 3
REMARK VINA RESULT:      -5.3      3.837      4.945
REMARK  4 active torsions:
REMARK  status: ('A' for Active; 'I' for Inactive)
REMARK    1  A    between atoms: O_4  and  C_13 
REMARK    2  A    between atoms: C_10  and  N_6 
REMARK    3  A    between atoms: N_9  and  C_17 
REMARK    4  A    between atoms: C_12  and  C_13 
ROOT
HETATM    1  F   UNK N   1      33.938  14.192  10.645  0.00  0.00    -0.201 F 
HETATM    2  O   UNK N   1      33.922  18.840   8.033  0.00  0.00    -0.246 OA
HETATM    3  N   UNK N   1      32.802  16.943   8.555  0.00  0.00    -0.279 N 
HETATM    4  N   UNK N   1      35.020  17.385   9.326  0.00  0.00    -0.292 N 
ATOM      5  HN  UNK N   1      35.835  17.996   9.351  1.00  0.00     0.172 HD
HETATM    6  C   UNK N   1      32.818  15.753   9.229  0.00  0.00     0.144 A 
HETATM    7  C   UNK N   1      33.914  17.765   8.614  0.00  0.00     0.330 A 
HETATM    8  C   UNK N   1      33.937  15.367   9.965  0.00  0.00     0.175 A 
HETATM    9  C   UNK N   1      35.047  16.208   9.999  0.00  0.00     0.143 A 
ENDROOT
BRANCH   3  10
HETATM   10  C   UNK N   1      31.593  17.360   7.819  0.00  0.00     0.243 C 
HETATM   11  O   UNK N   1      30.507  17.634   8.677  0.00  0.00    -0.348 OA
HETATM   12  C   UNK N   1      29.309  17.307   7.999  0.00  0.00     0.209 C 
HETATM   13  S   UNK N   1      29.619  16.978   6.235  0.00  0.00    -0.131 SA
HETATM   14  C   UNK N   1      31.165  16.320   6.815  0.00  0.00     0.131 C 
BRANCH  12  15
HETATM   15  C   UNK N   1      28.326  18.457   8.136  0.00  0.00     0.207 C 
BRANCH  15  16
HETATM   16  O   UNK N   1      27.514  18.263   9.255  0.00  0.00    -0.398 OA
HETATM   17  H   UNK N   1      26.748  17.670   9.305  0.00  0.00     0.209 HD
ENDBRANCH  15  16
ENDBRANCH  12  15
ENDBRANCH   3  10
BRANCH   9  18
HETATM   18  N   UNK N   1      36.194  15.848  10.734  0.00  0.00    -0.383 N 
HETATM   19  H   UNK N   1      36.579  14.947  10.640  0.00  0.00     0.157 HD
HETATM   20  H   UNK N   1      36.611  16.499  11.344  0.00  0.00     0.157 HD
ENDBRANCH   9  18
TORSDOF 4
ENDMDL
MODEL 4
REMARK VINA RESULT:      -5.3      6.434      8.534
REMARK  4 active torsions:
REMARK  status: ('A' for Active; 'I' for Inactive)
REMARK    1  A    between atoms: O_4  and  C_13 
REMARK    2  A    between atoms: C_10  and  N_6 
REMARK    3  A    between atoms: N_9  and  C_17 
REMARK    4  A    between atoms: C_12  and  C_13 
ROOT
HETATM    1  F   UNK N   1      28.131  18.327   4.416  0.00  0.00    -0.201 F 
HETATM    2  O   UNK N   1      29.283  18.555   9.616  0.00  0.00    -0.246 OA
HETATM    3  N   UNK N   1      29.884  17.820   7.561  0.00  0.00    -0.279 N 
HETATM    4  N   UNK N   1      27.882  19.063   7.952  0.00  0.00    -0.292 N 
ATOM      5  HN  UNK N   1      27.255  19.537   8.601  1.00  0.00     0.172 HD
HETATM    6  C   UNK N   1      29.578  17.767   6.229  0.00  0.00     0.144 A 
HETATM    7  C   UNK N   1      29.027  18.480   8.424  0.00  0.00     0.330 A 
HETATM    8  C   UNK N   1      28.419  18.369   5.742  0.00  0.00     0.175 A 
HETATM    9  C   UNK N   1      27.568  19.019   6.633  0.00  0.00     0.143 A 
ENDROOT
BRANCH   3  10
HETATM   10  C   UNK N   1      31.137  17.218   8.056  0.00  0.00     0.243 C 
HETATM   11  O   UNK N   1      32.236  18.098   7.947  0.00  0.00    -0.348 OA
HETATM   12  C   UNK N   1      33.402  17.329   7.720  0.00  0.00     0.209 C 
HETATM   13  S   UNK N   1      33.080  15.555   7.972  0.00  0.00    -0.131 SA
HETATM   14  C   UNK N   1      31.468  15.940   7.330  0.00  0.00     0.131 C 
BRANCH  12  15
HETATM   15  C   UNK N   1      34.496  17.787   8.668  0.00  0.00     0.207 C 
BRANCH  15  16
HETATM   16  O   UNK N   1      34.938  19.063   8.312  0.00  0.00    -0.398 OA
HETATM   17  H   UNK N   1      35.609  19.265   7.643  0.00  0.00     0.209 HD
ENDBRANCH  15  16
ENDBRANCH  12  15
ENDBRANCH   3  10
BRANCH   9  18
HETATM   18  N   UNK N   1      26.389  19.638   6.173  0.00  0.00    -0.383 N 
HETATM   19  H   UNK N   1      25.819  19.186   5.509  0.00  0.00     0.157 HD
HETATM   20  H   UNK N   1      26.134  20.525   6.516  0.00  0.00     0.157 HD
ENDBRANCH   9  18
TORSDOF 4
ENDMDL
MODEL 5
REMARK VINA RESULT:      -5.3      3.535      4.689
REMARK  4 active torsions:
REMARK  status: ('A' for Active; 'I' for Inactive)
REMARK    1  A    between atoms: O_4  and  C_13 
REMARK    2  A    between atoms: C_10  and  N_6 
REMARK    3  A    between atoms: N_9  and  C_17 
REMARK    4  A    between atoms: C_12  and  C_13 
ROOT
HETATM    1  F   UNK N   1      33.871  14.272  10.433  0.00  0.00    -0.201 F 
HETATM    2  O   UNK N   1      34.851  19.046   8.271  0.00  0.00    -0.246 OA
HETATM    3  N   UNK N   1      33.715  17.092   8.142  0.00  0.00    -0.279 N 
HETATM    4  N   UNK N   1      35.282  17.560   9.883  0.00  0.00    -0.292 N 
ATOM      5  HN  UNK N   1      35.956  18.194  10.310  1.00  0.00     0.172 HD
HETATM    6  C   UNK N   1      33.473  15.869   8.705  0.00  0.00     0.144 A 
HETATM    7  C   UNK N   1      34.625  17.943   8.745  0.00  0.00     0.330 A 
HETATM    8  C   UNK N   1      34.130  15.480   9.871  0.00  0.00     0.175 A 
HETATM    9  C   UNK N   1      35.049  16.351  10.452  0.00  0.00     0.143 A 
ENDROOT
BRANCH   3  10
HETATM   10  C   UNK N   1      32.977  17.508   6.934  0.00  0.00     0.243 C 
HETATM   11  O   UNK N   1      31.643  17.048   6.932  0.00  0.00    -0.348 OA
HETATM   12  C   UNK N   1      31.253  16.818   5.592  0.00  0.00     0.209 C 
HETATM   13  S   UNK N   1      32.477  17.491   4.424  0.00  0.00    -0.131 SA
HETATM   14  C   UNK N   1      33.654  17.033   5.674  0.00  0.00     0.131 C 
BRANCH  12  15
HETATM   15  C   UNK N   1      29.903  17.468   5.345  0.00  0.00     0.207 C 
BRANCH  15  16
HETATM   16  O   UNK N   1      29.935  18.207   4.160  0.00  0.00    -0.398 OA
HETATM   17  H   UNK N   1      29.201  18.309   3.535  0.00  0.00     0.209 HD
ENDBRANCH  15  16
ENDBRANCH  12  15
ENDBRANCH   3  10
BRANCH   9  18
HETATM   18  N   UNK N   1      35.730  15.990  11.631  0.00  0.00    -0.383 N 
HETATM   19  H   UNK N   1      35.436  16.344  12.502  0.00  0.00     0.157 HD
HETATM   20  H   UNK N   1      36.503  15.382  11.585  0.00  0.00     0.157 HD
ENDBRANCH   9  18
TORSDOF 4
ENDMDL
MODEL 6
REMARK VINA RESULT:      -5.3      3.063      3.978
REMARK  4 active torsions:
REMARK  status: ('A' for Active; 'I' for Inactive)
REMARK    1  A    between atoms: O_4  and  C_13 
REMARK    2  A    between atoms: C_10  and  N_6 
REMARK    3  A    between atoms: N_9  and  C_17 
REMARK    4  A    between atoms: C_12  and  C_13 
ROOT
HETATM    1  F   UNK N   1      33.713  10.550  15.062  0.00  0.00    -0.201 F 
HETATM    2  O   UNK N   1      37.057  14.699  15.202  0.00  0.00    -0.246 OA
HETATM    3  N   UNK N   1      35.691  13.394  13.955  0.00  0.00    -0.279 N 
HETATM    4  N   UNK N   1      36.058  13.021  16.286  0.00  0.00    -0.292 N 
ATOM      5  HN  UNK N   1      36.522  13.283  17.155  1.00  0.00     0.172 HD
HETATM    6  C   UNK N   1      34.835  12.327  13.932  0.00  0.00     0.144 A 
HETATM    7  C   UNK N   1      36.300  13.743  15.148  0.00  0.00     0.330 A 
HETATM    8  C   UNK N   1      34.577  11.596  15.090  0.00  0.00     0.175 A 
HETATM    9  C   UNK N   1      35.211  11.962  16.275  0.00  0.00     0.143 A 
ENDROOT
BRANCH   3  10
HETATM   10  C   UNK N   1      35.919  14.186  12.732  0.00  0.00     0.243 C 
HETATM   11  O   UNK N   1      34.713  14.568  12.105  0.00  0.00    -0.348 OA
HETATM   12  C   UNK N   1      34.937  14.634  10.709  0.00  0.00     0.209 C 
HETATM   13  S   UNK N   1      36.713  14.519  10.322  0.00  0.00    -0.131 SA
HETATM   14  C   UNK N   1      36.768  13.441  11.734  0.00  0.00     0.131 C 
BRANCH  12  15
HETATM   15  C   UNK N   1      34.384  15.943  10.174  0.00  0.00     0.207 C 
BRANCH  15  16
HETATM   16  O   UNK N   1      34.993  17.021  10.819  0.00  0.00    -0.398 OA
HETATM   17  H   UNK N   1      34.541  17.692  11.354  0.00  0.00     0.209 HD
ENDBRANCH  15  16
ENDBRANCH  12  15
ENDBRANCH   3  10
BRANCH   9  18
HETATM   18  N   UNK N   1      34.971  11.245  17.465  0.00  0.00    -0.383 N 
HETATM   19  H   UNK N   1      34.049  11.106  17.782  0.00  0.00     0.157 HD
HETATM   20  H   UNK N   1      35.727  10.883  17.981  0.00  0.00     0.157 HD
ENDBRANCH   9  18
TORSDOF 4
ENDMDL
MODEL 7
REMARK VINA RESULT:      -5.2      2.370      2.902
REMARK  4 active torsions:
REMARK  status: ('A' for Active; 'I' for Inactive)
REMARK    1  A    between atoms: O_4  and  C_13 
REMARK    2  A    between atoms: C_10  and  N_6 
REMARK    3  A    between atoms: N_9  and  C_17 
REMARK    4  A    between atoms: C_12  and  C_13 
ROOT
HETATM    1  F   UNK N   1      35.206  12.273  10.699  0.00  0.00    -0.201 F 
HETATM    2  O   UNK N   1      35.829  17.563  10.476  0.00  0.00    -0.246 OA
HETATM    3  N   UNK N   1      34.719  15.741   9.719  0.00  0.00    -0.279 N 
HETATM    4  N   UNK N   1      36.482  15.602  11.325  0.00  0.00    -0.292 N 
ATOM      5  HN  UNK N   1      37.194  16.064  11.889  1.00  0.00     0.172 HD
HETATM    6  C   UNK N   1      34.569  14.383   9.784  0.00  0.00     0.144 A 
HETATM    7  C   UNK N   1      35.683  16.350  10.504  0.00  0.00     0.330 A 
HETATM    8  C   UNK N   1      35.373  13.618  10.628  0.00  0.00     0.175 A 
HETATM    9  C   UNK N   1      36.342  14.255  11.399  0.00  0.00     0.143 A 
ENDROOT
BRANCH   3  10
HETATM   10  C   UNK N   1      33.830  16.542   8.857  0.00  0.00     0.243 C 
HETATM   11  O   UNK N   1      32.468  16.227   9.047  0.00  0.00    -0.348 OA
HETATM   12  C   UNK N   1      31.790  16.414   7.820  0.00  0.00     0.209 C 
HETATM   13  S   UNK N   1      32.848  17.266   6.607  0.00  0.00    -0.131 SA
HETATM   14  C   UNK N   1      34.165  16.372   7.397  0.00  0.00     0.131 C 
BRANCH  12  15
HETATM   15  C   UNK N   1      30.533  17.231   8.060  0.00  0.00     0.207 C 
BRANCH  15  16
HETATM   16  O   UNK N   1      30.421  17.554   9.414  0.00  0.00    -0.398 OA
HETATM   17  H   UNK N   1      29.617  17.863   9.859  0.00  0.00     0.209 HD
ENDBRANCH  15  16
ENDBRANCH  12  15
ENDBRANCH   3  10
BRANCH   9  18
HETATM   18  N   UNK N   1      37.171  13.512  12.263  0.00  0.00    -0.383 N 
HETATM   19  H   UNK N   1      38.138  13.449  12.088  0.00  0.00     0.157 HD
HETATM   20  H   UNK N   1      36.783  13.053  13.043  0.00  0.00     0.157 HD
ENDBRANCH   9  18
TORSDOF 4
ENDMDL
MODEL 8
REMARK VINA RESULT:      -5.1     16.477     18.127
REMARK  4 active torsions:
REMARK  status: ('A' for Active; 'I' for Inactive)
REMARK    1  A    between atoms: O_4  and  C_13 
REMARK    2  A    between atoms: C_10  and  N_6 
REMARK    3  A    between atoms: N_9  and  C_17 
REMARK    4  A    between atoms: C_12  and  C_13 
ROOT
HETATM    1  F   UNK N   1      30.793  20.231  -6.299  0.00  0.00    -0.201 F 
HETATM    2  O   UNK N   1      30.720  23.025  -1.760  0.00  0.00    -0.246 OA
HETATM    3  N   UNK N   1      29.958  22.815  -3.881  0.00  0.00    -0.279 N 
HETATM    4  N   UNK N   1      31.531  21.296  -2.920  0.00  0.00    -0.292 N 
ATOM      5  HN  UNK N   1      32.107  21.013  -2.128  1.00  0.00     0.172 HD
HETATM    6  C   UNK N   1      29.985  22.091  -5.041  0.00  0.00     0.144 A 
HETATM    7  C   UNK N   1      30.736  22.405  -2.812  0.00  0.00     0.330 A 
HETATM    8  C   UNK N   1      30.785  20.954  -5.151  0.00  0.00     0.175 A 
HETATM    9  C   UNK N   1      31.566  20.569  -4.064  0.00  0.00     0.143 A 
ENDROOT
BRANCH   3  10
HETATM   10  C   UNK N   1      29.072  23.989  -3.764  0.00  0.00     0.243 C 
HETATM   11  O   UNK N   1      27.852  23.815  -4.453  0.00  0.00    -0.348 OA
HETATM   12  C   UNK N   1      27.420  25.077  -4.921  0.00  0.00     0.209 C 
HETATM   13  S   UNK N   1      28.409  26.423  -4.195  0.00  0.00    -0.131 SA
HETATM   14  C   UNK N   1      29.737  25.244  -4.269  0.00  0.00     0.131 C 
BRANCH  12  15
HETATM   15  C   UNK N   1      25.957  25.271  -4.561  0.00  0.00     0.207 C 
BRANCH  15  16
HETATM   16  O   UNK N   1      25.146  24.565  -5.451  0.00  0.00    -0.398 OA
HETATM   17  H   UNK N   1      24.843  23.651  -5.340  0.00  0.00     0.209 HD
ENDBRANCH  15  16
ENDBRANCH  12  15
ENDBRANCH   3  10
BRANCH   9  18
HETATM   18  N   UNK N   1      32.385  19.425  -4.141  0.00  0.00    -0.383 N 
HETATM   19  H   UNK N   1      32.941  19.162  -3.372  0.00  0.00     0.157 HD
HETATM   20  H   UNK N   1      32.402  18.888  -4.966  0.00  0.00     0.157 HD
ENDBRANCH   9  18
TORSDOF 4
ENDMDL
MODEL 9
REMARK VINA RESULT:      -5.0      3.847      6.044
REMARK  4 active torsions:
REMARK  status: ('A' for Active; 'I' for Inactive)
REMARK    1  A    between atoms: O_4  and  C_13 
REMARK    2  A    between atoms: C_10  and  N_6 
REMARK    3  A    between atoms: N_9  and  C_17 
REMARK    4  A    between atoms: C_12  and  C_13 
ROOT
HETATM    1  F   UNK N   1      33.020  18.689   8.276  0.00  0.00    -0.201 F 
HETATM    2  O   UNK N   1      32.402  13.410   8.690  0.00  0.00    -0.246 OA
HETATM    3  N   UNK N   1      33.608  15.239   9.263  0.00  0.00    -0.279 N 
HETATM    4  N   UNK N   1      31.706  15.347   7.820  0.00  0.00    -0.292 N 
ATOM      5  HN  UNK N   1      30.951  14.874   7.326  1.00  0.00     0.172 HD
HETATM    6  C   UNK N   1      33.756  16.594   9.148  0.00  0.00     0.144 A 
HETATM    7  C   UNK N   1      32.567  14.617   8.595  0.00  0.00     0.330 A 
HETATM    8  C   UNK N   1      32.875  17.343   8.370  0.00  0.00     0.175 A 
HETATM    9  C   UNK N   1      31.843  16.691   7.700  0.00  0.00     0.143 A 
ENDROOT
BRANCH   3  10
HETATM   10  C   UNK N   1      34.519  14.465  10.127  0.00  0.00     0.243 C 
HETATM   11  O   UNK N   1      34.366  14.784  11.493  0.00  0.00    -0.348 OA
HETATM   12  C   UNK N   1      35.621  14.633  12.130  0.00  0.00     0.209 C 
HETATM   13  S   UNK N   1      36.819  13.805  11.036  0.00  0.00    -0.131 SA
HETATM   14  C   UNK N   1      35.962  14.670   9.742  0.00  0.00     0.131 C 
BRANCH  12  15
HETATM   15  C   UNK N   1      35.443  13.818  13.399  0.00  0.00     0.207 C 
BRANCH  15  16
HETATM   16  O   UNK N   1      34.448  12.856  13.217  0.00  0.00    -0.398 OA
HETATM   17  H   UNK N   1      34.475  11.943  13.542  0.00  0.00     0.209 HD
ENDBRANCH  15  16
ENDBRANCH  12  15
ENDBRANCH   3  10
BRANCH   9  18
HETATM   18  N   UNK N   1      30.935  17.418   6.906  0.00  0.00    -0.383 N 
HETATM   19  H   UNK N   1      31.257  18.148   6.327  0.00  0.00     0.157 HD
HETATM   20  H   UNK N   1      29.975  17.198   6.930  0.00  0.00     0.157 HD
ENDBRANCH   9  18
TORSDOF 4
ENDMDL
