MODEL 1
REMARK VINA RESULT:      -6.0      0.000      0.000
REMARK  2 active torsions:
REMARK  status: ('A' for Active; 'I' for Inactive)
REMARK    1  A    between atoms: S_3  and  N_11 
REMARK    2  A    between atoms: S_3  and  C_14 
ROOT
HETATM    1 Cl   UNK N   1      27.457  16.446   6.365  0.00  0.00    -0.083 Cl
HETATM    2  S   UNK N   1      33.694  16.918   7.177  0.00  0.00     0.265 S 
HETATM    3  O   UNK N   1      34.271  18.326   7.379  0.00  0.00    -0.200 OA
HETATM    4  O   UNK N   1      34.304  16.061   8.297  0.00  0.00    -0.200 OA
HETATM    5  N   UNK N   1      32.307  15.657   4.838  0.00  0.00    -0.351 N 
HETATM    6  N   UNK N   1      34.439  16.325   5.719  0.00  0.00    -0.277 N 
ATOM      7  HN  UNK N   1      35.449  16.405   5.604  1.00  0.00     0.179 HD
HETATM    8  C   UNK N   1      31.948  16.806   6.990  0.00  0.00     0.108 A 
HETATM    9  C   UNK N   1      31.445  16.170   5.852  0.00  0.00     0.058 A 
HETATM   10  C   UNK N   1      29.703  17.258   7.774  0.00  0.00     0.102 A 
HETATM   11  C   UNK N   1      31.088  17.349   7.943  0.00  0.00     0.054 A 
HETATM   12  C   UNK N   1      30.060  16.057   5.691  0.00  0.00     0.056 A 
HETATM   13  C   UNK N   1      29.185  16.593   6.642  0.00  0.00     0.059 A 
HETATM   14  C   UNK N   1      33.735  15.788   4.780  0.00  0.00     0.192 A 
HETATM   15  H   UNK N   1      31.878  15.162   4.102  0.00  0.00     0.166 HD
ENDROOT
BRANCH  10  16
HETATM   16  S   UNK N   1      28.639  18.057   8.979  0.00  0.00     0.258 S 
HETATM   17  O   UNK N   1      27.797  17.054   9.781  0.00  0.00    -0.201 OA
HETATM   18  O   UNK N   1      29.456  18.733  10.090  0.00  0.00    -0.201 OA
BRANCH  16  19
HETATM   19  N   UNK N   1      27.489  19.286   8.449  0.00  0.00    -0.324 N 
HETATM   20  H   UNK N   1      26.886  19.876   9.021  0.00  0.00     0.169 HD
HETATM   21  H   UNK N   1      27.419  19.423   7.440  0.00  0.00     0.169 HD
ENDBRANCH  16  19
ENDBRANCH  10  16
TORSDOF 2
ENDMDL
MODEL 2
REMARK VINA RESULT:      -5.6      7.102      8.396
REMARK  2 active torsions:
REMARK  status: ('A' for Active; 'I' for Inactive)
REMARK    1  A    between atoms: S_3  and  N_11 
REMARK    2  A    between atoms: S_3  and  C_14 
ROOT
HETATM    1 Cl   UNK N   1      20.560  17.120   3.442  0.00  0.00    -0.083 Cl
HETATM    2  S   UNK N   1      26.425  19.020   4.772  0.00  0.00     0.265 S 
HETATM    3  O   UNK N   1      27.218  19.692   3.643  0.00  0.00    -0.200 OA
HETATM    4  O   UNK N   1      26.585  19.943   5.990  0.00  0.00    -0.200 OA
HETATM    5  N   UNK N   1      25.362  16.233   5.064  0.00  0.00    -0.351 N 
HETATM    6  N   UNK N   1      27.336  17.594   5.182  0.00  0.00    -0.277 N 
ATOM      7  HN  UNK N   1      28.342  17.670   5.337  1.00  0.00     0.179 HD
HETATM    8  C   UNK N   1      24.778  18.532   4.390  0.00  0.00     0.108 A 
HETATM    9  C   UNK N   1      24.420  17.197   4.596  0.00  0.00     0.058 A 
HETATM   10  C   UNK N   1      22.557  19.039   3.575  0.00  0.00     0.102 A 
HETATM   11  C   UNK N   1      23.859  19.448   3.881  0.00  0.00     0.054 A 
HETATM   12  C   UNK N   1      23.112  16.791   4.313  0.00  0.00     0.056 A 
HETATM   13  C   UNK N   1      22.176  17.701   3.806  0.00  0.00     0.059 A 
HETATM   14  C   UNK N   1      26.763  16.443   5.291  0.00  0.00     0.192 A 
HETATM   15  H   UNK N   1      25.014  15.330   5.250  0.00  0.00     0.166 HD
ENDROOT
BRANCH  10  16
HETATM   16  S   UNK N   1      21.439  20.232   2.832  0.00  0.00     0.258 S 
HETATM   17  O   UNK N   1      20.290  20.630   3.771  0.00  0.00    -0.201 OA
HETATM   18  O   UNK N   1      22.131  21.583   2.600  0.00  0.00    -0.201 OA
BRANCH  16  19
HETATM   19  N   UNK N   1      20.654  19.854   1.297  0.00  0.00    -0.324 N 
HETATM   20  H   UNK N   1      19.882  20.342   0.844  0.00  0.00     0.169 HD
HETATM   21  H   UNK N   1      21.020  19.042   0.799  0.00  0.00     0.169 HD
ENDBRANCH  16  19
ENDBRANCH  10  16
TORSDOF 2
ENDMDL
MODEL 3
REMARK VINA RESULT:      -5.6      4.633      6.367
REMARK  2 active torsions:
REMARK  status: ('A' for Active; 'I' for Inactive)
REMARK    1  A    between atoms: S_3  and  N_11 
REMARK    2  A    between atoms: S_3  and  C_14 
ROOT
HETATM    1 Cl   UNK N   1      36.622  12.173   9.232  0.00  0.00    -0.083 Cl
HETATM    2  S   UNK N   1      34.012  17.784   8.014  0.00  0.00     0.265 S 
HETATM    3  O   UNK N   1      32.724  18.138   8.771  0.00  0.00    -0.200 OA
HETATM    4  O   UNK N   1      34.926  19.009   8.163  0.00  0.00    -0.200 OA
HETATM    5  N   UNK N   1      34.606  15.638   6.006  0.00  0.00    -0.351 N 
HETATM    6  N   UNK N   1      33.562  17.776   6.331  0.00  0.00    -0.277 N 
ATOM      7  HN  UNK N   1      33.032  18.560   5.951  1.00  0.00     0.179 HD
HETATM    8  C   UNK N   1      34.743  16.230   8.396  0.00  0.00     0.108 A 
HETATM    9  C   UNK N   1      34.979  15.335   7.349  0.00  0.00     0.058 A 
HETATM   10  C   UNK N   1      35.639  14.650   9.996  0.00  0.00     0.102 A 
HETATM   11  C   UNK N   1      35.065  15.893   9.710  0.00  0.00     0.054 A 
HETATM   12  C   UNK N   1      35.573  14.100   7.630  0.00  0.00     0.056 A 
HETATM   13  C   UNK N   1      35.907  13.750   8.943  0.00  0.00     0.059 A 
HETATM   14  C   UNK N   1      33.886  16.796   5.557  0.00  0.00     0.192 A 
HETATM   15  H   UNK N   1      34.870  14.986   5.317  0.00  0.00     0.166 HD
ENDROOT
BRANCH  10  16
HETATM   16  S   UNK N   1      35.946  14.224  11.714  0.00  0.00     0.258 S 
HETATM   17  O   UNK N   1      36.011  15.459  12.626  0.00  0.00    -0.201 OA
HETATM   18  O   UNK N   1      34.765  13.453  12.321  0.00  0.00    -0.201 OA
BRANCH  16  19
HETATM   19  N   UNK N   1      37.374  13.278  12.136  0.00  0.00    -0.324 N 
HETATM   20  H   UNK N   1      37.933  13.323  12.988  0.00  0.00     0.169 HD
HETATM   21  H   UNK N   1      37.679  12.599  11.438  0.00  0.00     0.169 HD
ENDBRANCH  16  19
ENDBRANCH  10  16
TORSDOF 2
ENDMDL
MODEL 4
REMARK VINA RESULT:      -5.5      2.624      3.264
REMARK  2 active torsions:
REMARK  status: ('A' for Active; 'I' for Inactive)
REMARK    1  A    between atoms: S_3  and  N_11 
REMARK    2  A    between atoms: S_3  and  C_14 
ROOT
HETATM    1 Cl   UNK N   1      27.938  17.961   9.142  0.00  0.00    -0.083 Cl
HETATM    2  S   UNK N   1      33.404  16.785   6.222  0.00  0.00     0.265 S 
HETATM    3  O   UNK N   1      33.498  15.489   5.404  0.00  0.00    -0.200 OA
HETATM    4  O   UNK N   1      33.938  17.891   5.301  0.00  0.00    -0.200 OA
HETATM    5  N   UNK N   1      33.035  17.255   9.160  0.00  0.00    -0.351 N 
HETATM    6  N   UNK N   1      34.615  16.628   7.464  0.00  0.00    -0.277 N 
ATOM      7  HN  UNK N   1      35.559  16.338   7.209  1.00  0.00     0.179 HD
HETATM    8  C   UNK N   1      31.858  17.112   6.997  0.00  0.00     0.108 A 
HETATM    9  C   UNK N   1      31.845  17.330   8.377  0.00  0.00     0.058 A 
HETATM   10  C   UNK N   1      29.457  17.389   6.893  0.00  0.00     0.102 A 
HETATM   11  C   UNK N   1      30.677  17.136   6.259  0.00  0.00     0.054 A 
HETATM   12  C   UNK N   1      30.629  17.606   9.011  0.00  0.00     0.056 A 
HETATM   13  C   UNK N   1      29.435  17.640   8.281  0.00  0.00     0.059 A 
HETATM   14  C   UNK N   1      34.339  16.870   8.701  0.00  0.00     0.192 A 
HETATM   15  H   UNK N   1      32.953  17.490  10.113  0.00  0.00     0.166 HD
ENDROOT
BRANCH  10  16
HETATM   16  S   UNK N   1      27.952  17.315   5.916  0.00  0.00     0.258 S 
HETATM   17  O   UNK N   1      28.229  17.087   4.422  0.00  0.00    -0.201 OA
HETATM   18  O   UNK N   1      27.114  16.077   6.268  0.00  0.00    -0.201 OA
BRANCH  16  19
HETATM   19  N   UNK N   1      26.815  18.663   5.961  0.00  0.00    -0.324 N 
HETATM   20  H   UNK N   1      25.803  18.633   6.093  0.00  0.00     0.169 HD
HETATM   21  H   UNK N   1      27.220  19.591   5.840  0.00  0.00     0.169 HD
ENDBRANCH  16  19
ENDBRANCH  10  16
TORSDOF 2
ENDMDL
MODEL 5
REMARK VINA RESULT:      -5.4      5.181      6.450
REMARK  2 active torsions:
REMARK  status: ('A' for Active; 'I' for Inactive)
REMARK    1  A    between atoms: S_3  and  N_11 
REMARK    2  A    between atoms: S_3  and  C_14 
ROOT
HETATM    1 Cl   UNK N   1      35.485  15.001   5.618  0.00  0.00    -0.083 Cl
HETATM    2  S   UNK N   1      35.911  14.322  11.874  0.00  0.00     0.265 S 
HETATM    3  O   UNK N   1      36.180  15.587  12.700  0.00  0.00    -0.200 OA
HETATM    4  O   UNK N   1      34.732  13.623  12.567  0.00  0.00    -0.200 OA
HETATM    5  N   UNK N   1      37.573  12.898   9.825  0.00  0.00    -0.351 N 
HETATM    6  N   UNK N   1      37.275  13.282  12.176  0.00  0.00    -0.277 N 
ATOM      7  HN  UNK N   1      37.579  13.121  13.137  1.00  0.00     0.179 HD
HETATM    8  C   UNK N   1      35.758  14.540  10.135  0.00  0.00     0.108 A 
HETATM    9  C   UNK N   1      36.591  13.790   9.299  0.00  0.00     0.058 A 
HETATM   10  C   UNK N   1      34.742  15.612   8.218  0.00  0.00     0.102 A 
HETATM   11  C   UNK N   1      34.843  15.447   9.603  0.00  0.00     0.054 A 
HETATM   12  C   UNK N   1      36.476  13.938   7.913  0.00  0.00     0.056 A 
HETATM   13  C   UNK N   1      35.557  14.840   7.365  0.00  0.00     0.059 A 
HETATM   14  C   UNK N   1      37.909  12.711  11.207  0.00  0.00     0.192 A 
HETATM   15  H   UNK N   1      38.071  12.356   9.171  0.00  0.00     0.166 HD
ENDROOT
BRANCH  10  16
HETATM   16  S   UNK N   1      33.616  16.861   7.586  0.00  0.00     0.258 S 
HETATM   17  O   UNK N   1      34.339  17.959   6.791  0.00  0.00    -0.201 OA
HETATM   18  O   UNK N   1      32.672  16.280   6.524  0.00  0.00    -0.201 OA
BRANCH  16  19
HETATM   19  N   UNK N   1      32.564  17.733   8.702  0.00  0.00    -0.324 N 
HETATM   20  H   UNK N   1      31.656  18.158   8.514  0.00  0.00     0.169 HD
HETATM   21  H   UNK N   1      32.908  17.824   9.658  0.00  0.00     0.169 HD
ENDBRANCH  16  19
ENDBRANCH  10  16
TORSDOF 2
ENDMDL
MODEL 6
REMARK VINA RESULT:      -5.4     13.229     14.435
REMARK  2 active torsions:
REMARK  status: ('A' for Active; 'I' for Inactive)
REMARK    1  A    between atoms: S_3  and  N_11 
REMARK    2  A    between atoms: S_3  and  C_14 
ROOT
HETATM    1 Cl   UNK N   1      31.272  20.473  -6.913  0.00  0.00    -0.083 Cl
HETATM    2  S   UNK N   1      27.384  24.480  -3.980  0.00  0.00     0.265 S 
HETATM    3  O   UNK N   1      26.886  24.079  -2.584  0.00  0.00    -0.200 OA
HETATM    4  O   UNK N   1      27.875  25.929  -3.839  0.00  0.00    -0.200 OA
HETATM    5  N   UNK N   1      26.943  23.244  -6.675  0.00  0.00    -0.351 N 
HETATM    6  N   UNK N   1      25.949  24.598  -4.959  0.00  0.00    -0.277 N 
ATOM      7  HN  UNK N   1      25.147  25.125  -4.612  1.00  0.00     0.179 HD
HETATM    8  C   UNK N   1      28.497  23.366  -4.764  0.00  0.00     0.108 A 
HETATM    9  C   UNK N   1      28.166  22.885  -6.034  0.00  0.00     0.058 A 
HETATM   10  C   UNK N   1      30.539  22.067  -4.766  0.00  0.00     0.102 A 
HETATM   11  C   UNK N   1      29.671  22.960  -4.131  0.00  0.00     0.054 A 
HETATM   12  C   UNK N   1      29.044  22.010  -6.681  0.00  0.00     0.056 A 
HETATM   13  C   UNK N   1      30.229  21.598  -6.060  0.00  0.00     0.059 A 
HETATM   14  C   UNK N   1      25.880  24.029  -6.115  0.00  0.00     0.192 A 
HETATM   15  H   UNK N   1      26.816  22.920  -7.596  0.00  0.00     0.166 HD
ENDROOT
BRANCH  10  16
HETATM   16  S   UNK N   1      31.989  21.500  -3.871  0.00  0.00     0.258 S 
HETATM   17  O   UNK N   1      33.276  22.207  -4.323  0.00  0.00    -0.201 OA
HETATM   18  O   UNK N   1      31.924  21.895  -2.388  0.00  0.00    -0.201 OA
BRANCH  16  19
HETATM   19  N   UNK N   1      32.396  19.784  -3.867  0.00  0.00    -0.324 N 
HETATM   20  H   UNK N   1      33.238  19.332  -4.226  0.00  0.00     0.169 HD
HETATM   21  H   UNK N   1      31.701  19.163  -3.452  0.00  0.00     0.169 HD
ENDBRANCH  16  19
ENDBRANCH  10  16
TORSDOF 2
ENDMDL
MODEL 7
REMARK VINA RESULT:      -5.3      8.586     10.004
REMARK  2 active torsions:
REMARK  status: ('A' for Active; 'I' for Inactive)
REMARK    1  A    between atoms: S_3  and  N_11 
REMARK    2  A    between atoms: S_3  and  C_14 
ROOT
HETATM    1 Cl   UNK N   1      23.675  20.602   3.009  0.00  0.00    -0.083 Cl
HETATM    2  S   UNK N   1      22.103  15.134   5.731  0.00  0.00     0.265 S 
HETATM    3  O   UNK N   1      20.935  15.156   6.727  0.00  0.00    -0.200 OA
HETATM    4  O   UNK N   1      21.813  13.958   4.786  0.00  0.00    -0.200 OA
HETATM    5  N   UNK N   1      24.803  16.435   5.809  0.00  0.00    -0.351 N 
HETATM    6  N   UNK N   1      23.483  14.618   6.660  0.00  0.00    -0.277 N 
ATOM      7  HN  UNK N   1      23.404  13.797   7.261  1.00  0.00     0.179 HD
HETATM    8  C   UNK N   1      22.500  16.662   4.956  0.00  0.00     0.108 A 
HETATM    9  C   UNK N   1      23.810  17.136   5.062  0.00  0.00     0.058 A 
HETATM   10  C   UNK N   1      21.864  18.607   3.663  0.00  0.00     0.102 A 
HETATM   11  C   UNK N   1      21.531  17.390   4.267  0.00  0.00     0.054 A 
HETATM   12  C   UNK N   1      24.151  18.342   4.440  0.00  0.00     0.056 A 
HETATM   13  C   UNK N   1      23.190  19.081   3.740  0.00  0.00     0.059 A 
HETATM   14  C   UNK N   1      24.604  15.256   6.603  0.00  0.00     0.192 A 
HETATM   15  H   UNK N   1      25.718  16.797   5.778  0.00  0.00     0.166 HD
ENDROOT
BRANCH  10  16
HETATM   16  S   UNK N   1      20.559  19.553   2.870  0.00  0.00     0.258 S 
HETATM   17  O   UNK N   1      19.210  18.819   2.876  0.00  0.00    -0.201 OA
HETATM   18  O   UNK N   1      20.224  20.823   3.665  0.00  0.00    -0.201 OA
BRANCH  16  19
HETATM   19  N   UNK N   1      20.766  20.099   1.206  0.00  0.00    -0.324 N 
HETATM   20  H   UNK N   1      21.380  20.834   0.853  0.00  0.00     0.169 HD
HETATM   21  H   UNK N   1      20.199  19.619   0.506  0.00  0.00     0.169 HD
ENDBRANCH  16  19
ENDBRANCH  10  16
TORSDOF 2
ENDMDL
MODEL 8
REMARK VINA RESULT:      -5.2      3.421      3.923
REMARK  2 active torsions:
REMARK  status: ('A' for Active; 'I' for Inactive)
REMARK    1  A    between atoms: S_3  and  N_11 
REMARK    2  A    between atoms: S_3  and  C_14 
ROOT
HETATM    1 Cl   UNK N   1      27.839  19.507   7.551  0.00  0.00    -0.083 Cl
HETATM    2  S   UNK N   1      32.049  14.886   6.714  0.00  0.00     0.265 S 
HETATM    3  O   UNK N   1      31.529  13.557   6.148  0.00  0.00    -0.200 OA
HETATM    4  O   UNK N   1      33.286  15.232   5.873  0.00  0.00    -0.200 OA
HETATM    5  N   UNK N   1      31.474  16.307   9.290  0.00  0.00    -0.351 N 
HETATM    6  N   UNK N   1      32.686  14.493   8.287  0.00  0.00    -0.277 N 
ATOM      7  HN  UNK N   1      33.316  13.697   8.387  1.00  0.00     0.179 HD
HETATM    8  C   UNK N   1      30.865  16.173   6.904  0.00  0.00     0.108 A 
HETATM    9  C   UNK N   1      30.720  16.757   8.166  0.00  0.00     0.058 A 
HETATM   10  C   UNK N   1      29.138  17.609   6.002  0.00  0.00     0.102 A 
HETATM   11  C   UNK N   1      30.080  16.590   5.830  0.00  0.00     0.054 A 
HETATM   12  C   UNK N   1      29.795  17.792   8.335  0.00  0.00     0.056 A 
HETATM   13  C   UNK N   1      29.004  18.225   7.264  0.00  0.00     0.059 A 
HETATM   14  C   UNK N   1      32.373  15.189   9.327  0.00  0.00     0.192 A 
HETATM   15  H   UNK N   1      31.366  16.815  10.127  0.00  0.00     0.166 HD
ENDROOT
BRANCH  10  16
HETATM   16  S   UNK N   1      28.085  18.044   4.614  0.00  0.00     0.258 S 
HETATM   17  O   UNK N   1      28.340  17.164   3.381  0.00  0.00    -0.201 OA
HETATM   18  O   UNK N   1      26.610  17.740   4.912  0.00  0.00    -0.201 OA
BRANCH  16  19
HETATM   19  N   UNK N   1      28.094  19.697   3.997  0.00  0.00    -0.324 N 
HETATM   20  H   UNK N   1      27.528  20.489   4.302  0.00  0.00     0.169 HD
HETATM   21  H   UNK N   1      28.749  19.884   3.238  0.00  0.00     0.169 HD
ENDBRANCH  16  19
ENDBRANCH  10  16
TORSDOF 2
ENDMDL
MODEL 9
REMARK VINA RESULT:      -5.2     16.293     17.121
REMARK  2 active torsions:
REMARK  status: ('A' for Active; 'I' for Inactive)
REMARK    1  A    between atoms: S_3  and  N_11 
REMARK    2  A    between atoms: S_3  and  C_14 
ROOT
HETATM    1 Cl   UNK N   1      25.203  25.189  -9.987  0.00  0.00    -0.083 Cl
HETATM    2  S   UNK N   1      26.943  25.088  -3.926  0.00  0.00     0.265 S 
HETATM    3  O   UNK N   1      26.347  23.982  -3.043  0.00  0.00    -0.200 OA
HETATM    4  O   UNK N   1      28.453  25.065  -3.649  0.00  0.00    -0.200 OA
HETATM    5  N   UNK N   1      25.661  27.389  -5.358  0.00  0.00    -0.351 N 
HETATM    6  N   UNK N   1      26.391  26.581  -3.218  0.00  0.00    -0.277 N 
ATOM      7  HN  UNK N   1      26.487  26.723  -2.212  1.00  0.00     0.179 HD
HETATM    8  C   UNK N   1      26.473  25.075  -5.621  0.00  0.00     0.108 A 
HETATM    9  C   UNK N   1      25.902  26.232  -6.158  0.00  0.00     0.058 A 
HETATM   10  C   UNK N   1      26.264  23.942  -7.750  0.00  0.00     0.102 A 
HETATM   11  C   UNK N   1      26.651  23.936  -6.406  0.00  0.00     0.054 A 
HETATM   12  C   UNK N   1      25.536  26.248  -7.507  0.00  0.00     0.056 A 
HETATM   13  C   UNK N   1      25.713  25.114  -8.309  0.00  0.00     0.059 A 
HETATM   14  C   UNK N   1      25.863  27.509  -3.942  0.00  0.00     0.192 A 
HETATM   15  H   UNK N   1      25.321  28.186  -5.825  0.00  0.00     0.166 HD
ENDROOT
BRANCH  10  16
HETATM   16  S   UNK N   1      26.424  22.422  -8.693  0.00  0.00     0.258 S 
HETATM   17  O   UNK N   1      27.026  21.275  -7.867  0.00  0.00    -0.201 OA
HETATM   18  O   UNK N   1      25.050  21.846  -9.066  0.00  0.00    -0.201 OA
BRANCH  16  19
HETATM   19  N   UNK N   1      27.342  22.422 -10.199  0.00  0.00    -0.324 N 
HETATM   20  H   UNK N   1      27.458  23.182 -10.869  0.00  0.00     0.169 HD
HETATM   21  H   UNK N   1      27.820  21.550 -10.428  0.00  0.00     0.169 HD
ENDBRANCH  16  19
ENDBRANCH  10  16
TORSDOF 2
ENDMDL
