MODEL 1
REMARK VINA RESULT:      -7.9      0.000      0.000
REMARK  11 active torsions:
REMARK  status: ('A' for Active; 'I' for Inactive)
REMARK    1  A    between atoms: O_2  and  C_16 
REMARK    2  A    between atoms: O_4  and  C_24 
REMARK    3  A    between atoms: O_4  and  C_28 
REMARK       I    between atoms: N_6  and  C_14 
REMARK    4  A    between atoms: C_13  and  N_7 
REMARK    5  A    between atoms: C_15  and  N_7 
REMARK    6  A    between atoms: C_8  and  C_16 
REMARK    7  A    between atoms: C_13  and  C_14 
REMARK    8  A    between atoms: C_15  and  C_17 
REMARK    9  A    between atoms: C_15  and  C_24 
REMARK   10  A    between atoms: C_17  and  C_21 
REMARK   11  A    between atoms: C_21  and  C_25 
ROOT
HETATM    1  C   UNK N   1      21.465  16.576   4.145  0.00  0.00     0.166 C 
HETATM    2  C   UNK N   1      21.217  15.635   2.979  0.00  0.00     0.042 C 
ENDROOT
BRANCH   1   3
HETATM    3  N   UNK N   1      20.417  16.446   5.151  0.00  0.00    -0.397 N 
HETATM    4  H   UNK N   1      19.427  16.451   4.904  0.00  0.00     0.154 HD
BRANCH   3   5
HETATM    5  C   UNK N   1      20.873  16.305   6.549  0.00  0.00     0.178 C 
BRANCH   5   6
HETATM    6  C   UNK N   1      22.226  15.599   6.529  0.00  0.00     0.039 C 
BRANCH   6   7
HETATM    7  C   UNK N   1      22.027  14.093   6.662  0.00  0.00     0.041 C 
BRANCH   7   8
HETATM    8  C   UNK N   1      22.076  13.634   8.078  0.00  0.00    -0.058 A 
HETATM    9  C   UNK N   1      20.951  13.740   8.907  0.00  0.00     0.007 A 
HETATM   10  C   UNK N   1      21.004  13.269  10.221  0.00  0.00     0.001 A 
HETATM   11  C   UNK N   1      22.177  12.684  10.707  0.00  0.00     0.000 A 
HETATM   12  C   UNK N   1      23.299  12.573   9.879  0.00  0.00     0.001 A 
HETATM   13  C   UNK N   1      23.248  13.047   8.565  0.00  0.00     0.007 A 
ENDBRANCH   7   8
ENDBRANCH   6   7
ENDBRANCH   5   6
BRANCH   5  14
HETATM   14  C   UNK N   1      20.760  17.546   7.462  0.00  0.00     0.281 C 
HETATM   15  O   UNK N   1      21.009  18.642   6.985  0.00  0.00    -0.263 OA
BRANCH  14  16
HETATM   16  O   UNK N   1      20.320  17.508   8.752  0.00  0.00    -0.320 OA
BRANCH  16  17
HETATM   17  C   UNK N   1      19.110  17.991   9.197  0.00  0.00     0.174 C 
HETATM   18  C   UNK N   1      18.037  16.931   9.064  0.00  0.00     0.034 C 
ENDBRANCH  16  17
ENDBRANCH  14  16
ENDBRANCH   5  14
ENDBRANCH   3   5
ENDBRANCH   1   3
BRANCH   1  19
HETATM   19  C   UNK N   1      21.587  18.020   3.729  0.00  0.00     0.242 C 
HETATM   20  O   UNK N   1      20.578  18.558   3.306  0.00  0.00    -0.271 OA
HETATM   21  N   UNK N   1      22.788  18.705   3.804  0.00  0.00    -0.331 N 
HETATM   22  C   UNK N   1      22.961  20.102   3.339  0.00  0.00     0.189 C 
HETATM   23  C   UNK N   1      23.922  18.036   4.444  0.00  0.00     0.166 C 
HETATM   24  C   UNK N   1      24.276  20.250   2.586  0.00  0.00     0.075 C 
HETATM   25  C   UNK N   1      25.402  19.833   3.462  0.00  0.00    -0.048 A 
HETATM   26  C   UNK N   1      25.235  18.758   4.347  0.00  0.00    -0.034 A 
HETATM   27  C   UNK N   1      26.631  20.496   3.388  0.00  0.00     0.008 A 
HETATM   28  C   UNK N   1      26.304  18.349   5.149  0.00  0.00     0.009 A 
HETATM   29  C   UNK N   1      27.533  19.012   5.075  0.00  0.00     0.001 A 
HETATM   30  C   UNK N   1      27.696  20.087   4.196  0.00  0.00     0.001 A 
BRANCH  22  31
HETATM   31  C   UNK N   1      21.873  20.659   2.458  0.00  0.00     0.164 C 
HETATM   32  O   UNK N   1      21.935  20.534   1.243  0.00  0.00    -0.648 OA
BRANCH  31  33
HETATM   33  O   UNK N   1      20.836  21.317   3.008  0.00  0.00    -0.775 OA
HETATM   34  H   UNK N   1      20.538  22.204   2.960  0.00  0.00     0.167 HD
ENDBRANCH  31  33
ENDBRANCH  22  31
ENDBRANCH   1  19
TORSDOF 11
ENDMDL
MODEL 2
REMARK VINA RESULT:      -7.4      1.672      2.698
REMARK  11 active torsions:
REMARK  status: ('A' for Active; 'I' for Inactive)
REMARK    1  A    between atoms: O_2  and  C_16 
REMARK    2  A    between atoms: O_4  and  C_24 
REMARK    3  A    between atoms: O_4  and  C_28 
REMARK       I    between atoms: N_6  and  C_14 
REMARK    4  A    between atoms: C_13  and  N_7 
REMARK    5  A    between atoms: C_15  and  N_7 
REMARK    6  A    between atoms: C_8  and  C_16 
REMARK    7  A    between atoms: C_13  and  C_14 
REMARK    8  A    between atoms: C_15  and  C_17 
REMARK    9  A    between atoms: C_15  and  C_24 
REMARK   10  A    between atoms: C_17  and  C_21 
REMARK   11  A    between atoms: C_21  and  C_25 
ROOT
HETATM    1  C   UNK N   1      21.468  16.337   3.678  0.00  0.00     0.166 C 
HETATM    2  C   UNK N   1      20.906  15.596   2.477  0.00  0.00     0.042 C 
ENDROOT
BRANCH   1   3
HETATM    3  N   UNK N   1      20.692  16.047   4.878  0.00  0.00    -0.397 N 
HETATM    4  H   UNK N   1      19.701  16.278   4.951  0.00  0.00     0.154 HD
BRANCH   3   5
HETATM    5  C   UNK N   1      21.426  15.397   5.984  0.00  0.00     0.178 C 
BRANCH   5   6
HETATM    6  C   UNK N   1      20.426  15.107   7.100  0.00  0.00     0.039 C 
BRANCH   6   7
HETATM    7  C   UNK N   1      21.030  15.485   8.449  0.00  0.00     0.041 C 
BRANCH   7   8
HETATM    8  C   UNK N   1      21.303  14.296   9.303  0.00  0.00    -0.058 A 
HETATM    9  C   UNK N   1      22.594  13.758   9.393  0.00  0.00     0.007 A 
HETATM   10  C   UNK N   1      22.839  12.667  10.230  0.00  0.00     0.001 A 
HETATM   11  C   UNK N   1      21.799  12.117  10.986  0.00  0.00     0.000 A 
HETATM   12  C   UNK N   1      20.511  12.657  10.900  0.00  0.00     0.001 A 
HETATM   13  C   UNK N   1      20.264  13.746  10.061  0.00  0.00     0.007 A 
ENDBRANCH   7   8
ENDBRANCH   6   7
ENDBRANCH   5   6
BRANCH   5  14
HETATM   14  C   UNK N   1      22.397  14.253   5.617  0.00  0.00     0.281 C 
HETATM   15  O   UNK N   1      21.942  13.253   5.085  0.00  0.00    -0.263 OA
BRANCH  14  16
HETATM   16  O   UNK N   1      23.750  14.319   5.777  0.00  0.00    -0.320 OA
BRANCH  16  17
HETATM   17  C   UNK N   1      24.418  15.247   6.543  0.00  0.00     0.174 C 
HETATM   18  C   UNK N   1      25.573  14.596   7.273  0.00  0.00     0.034 C 
ENDBRANCH  16  17
ENDBRANCH  14  16
ENDBRANCH   5  14
ENDBRANCH   3   5
ENDBRANCH   1   3
BRANCH   1  19
HETATM   19  C   UNK N   1      21.542  17.829   3.475  0.00  0.00     0.242 C 
HETATM   20  O   UNK N   1      20.512  18.391   3.144  0.00  0.00    -0.271 OA
HETATM   21  N   UNK N   1      22.723  18.532   3.637  0.00  0.00    -0.331 N 
HETATM   22  C   UNK N   1      22.850  19.987   3.378  0.00  0.00     0.189 C 
HETATM   23  C   UNK N   1      23.885  17.812   4.163  0.00  0.00     0.166 C 
HETATM   24  C   UNK N   1      24.150  20.283   2.642  0.00  0.00     0.075 C 
HETATM   25  C   UNK N   1      25.299  19.777   3.437  0.00  0.00    -0.048 A 
HETATM   26  C   UNK N   1      25.176  18.581   4.159  0.00  0.00    -0.034 A 
HETATM   27  C   UNK N   1      26.507  20.481   3.449  0.00  0.00     0.008 A 
HETATM   28  C   UNK N   1      26.267  18.093   4.883  0.00  0.00     0.009 A 
HETATM   29  C   UNK N   1      27.475  18.797   4.894  0.00  0.00     0.001 A 
HETATM   30  C   UNK N   1      27.595  19.992   4.179  0.00  0.00     0.001 A 
BRANCH  22  31
HETATM   31  C   UNK N   1      21.734  20.632   2.598  0.00  0.00     0.164 C 
HETATM   32  O   UNK N   1      21.775  20.671   1.376  0.00  0.00    -0.648 OA
BRANCH  31  33
HETATM   33  O   UNK N   1      20.696  21.187   3.248  0.00  0.00    -0.775 OA
HETATM   34  H   UNK N   1      20.594  21.556   4.104  0.00  0.00     0.167 HD
ENDBRANCH  31  33
ENDBRANCH  22  31
ENDBRANCH   1  19
TORSDOF 11
ENDMDL
MODEL 3
REMARK VINA RESULT:      -7.3     13.449     15.948
REMARK  11 active torsions:
REMARK  status: ('A' for Active; 'I' for Inactive)
REMARK    1  A    between atoms: O_2  and  C_16 
REMARK    2  A    between atoms: O_4  and  C_24 
REMARK    3  A    between atoms: O_4  and  C_28 
REMARK       I    between atoms: N_6  and  C_14 
REMARK    4  A    between atoms: C_13  and  N_7 
REMARK    5  A    between atoms: C_15  and  N_7 
REMARK    6  A    between atoms: C_8  and  C_16 
REMARK    7  A    between atoms: C_13  and  C_14 
REMARK    8  A    between atoms: C_15  and  C_17 
REMARK    9  A    between atoms: C_15  and  C_24 
REMARK   10  A    between atoms: C_17  and  C_21 
REMARK   11  A    between atoms: C_21  and  C_25 
ROOT
HETATM    1  C   UNK N   1      30.176  26.111  -4.965  0.00  0.00     0.166 C 
HETATM    2  C   UNK N   1      31.181  27.170  -4.543  0.00  0.00     0.042 C 
ENDROOT
BRANCH   1   3
HETATM    3  N   UNK N   1      28.818  26.643  -4.936  0.00  0.00    -0.397 N 
HETATM    4  H   UNK N   1      28.183  26.461  -4.160  0.00  0.00     0.154 HD
BRANCH   3   5
HETATM    5  C   UNK N   1      28.418  27.461  -6.100  0.00  0.00     0.178 C 
BRANCH   5   6
HETATM    6  C   UNK N   1      27.446  26.635  -6.938  0.00  0.00     0.039 C 
BRANCH   6   7
HETATM    7  C   UNK N   1      26.617  25.731  -6.031  0.00  0.00     0.041 C 
BRANCH   7   8
HETATM    8  C   UNK N   1      26.118  24.519  -6.738  0.00  0.00    -0.058 A 
HETATM    9  C   UNK N   1      25.808  23.351  -6.028  0.00  0.00     0.007 A 
HETATM   10  C   UNK N   1      25.304  22.236  -6.702  0.00  0.00     0.001 A 
HETATM   11  C   UNK N   1      25.100  22.289  -8.085  0.00  0.00     0.000 A 
HETATM   12  C   UNK N   1      25.403  23.456  -8.793  0.00  0.00     0.001 A 
HETATM   13  C   UNK N   1      25.911  24.571  -8.120  0.00  0.00     0.007 A 
ENDBRANCH   7   8
ENDBRANCH   6   7
ENDBRANCH   5   6
BRANCH   5  14
HETATM   14  C   UNK N   1      28.018  28.929  -5.832  0.00  0.00     0.281 C 
HETATM   15  O   UNK N   1      28.775  29.813  -6.200  0.00  0.00    -0.263 OA
BRANCH  14  16
HETATM   16  O   UNK N   1      26.830  29.308  -5.280  0.00  0.00    -0.320 OA
BRANCH  16  17
HETATM   17  C   UNK N   1      26.538  29.303  -3.934  0.00  0.00     0.174 C 
HETATM   18  C   UNK N   1      25.721  28.080  -3.576  0.00  0.00     0.034 C 
ENDBRANCH  16  17
ENDBRANCH  14  16
ENDBRANCH   5  14
ENDBRANCH   3   5
ENDBRANCH   1   3
BRANCH   1  19
HETATM   19  C   UNK N   1      30.244  24.859  -4.128  0.00  0.00     0.242 C 
HETATM   20  O   UNK N   1      30.535  24.998  -2.952  0.00  0.00    -0.271 OA
HETATM   21  N   UNK N   1      30.009  23.605  -4.665  0.00  0.00    -0.331 N 
HETATM   22  C   UNK N   1      30.135  22.348  -3.889  0.00  0.00     0.189 C 
HETATM   23  C   UNK N   1      29.537  23.528  -6.049  0.00  0.00     0.166 C 
HETATM   24  C   UNK N   1      30.829  21.279  -4.724  0.00  0.00     0.075 C 
HETATM   25  C   UNK N   1      30.070  21.059  -5.983  0.00  0.00    -0.048 A 
HETATM   26  C   UNK N   1      29.460  22.144  -6.627  0.00  0.00    -0.034 A 
HETATM   27  C   UNK N   1      29.984  19.777  -6.534  0.00  0.00     0.008 A 
HETATM   28  C   UNK N   1      28.771  21.940  -7.826  0.00  0.00     0.009 A 
HETATM   29  C   UNK N   1      28.684  20.658  -8.378  0.00  0.00     0.001 A 
HETATM   30  C   UNK N   1      29.289  19.576  -7.731  0.00  0.00     0.001 A 
BRANCH  22  31
HETATM   31  C   UNK N   1      30.866  22.437  -2.575  0.00  0.00     0.164 C 
HETATM   32  O   UNK N   1      32.040  22.104  -2.495  0.00  0.00    -0.648 OA
BRANCH  31  33
HETATM   33  O   UNK N   1      30.219  22.867  -1.476  0.00  0.00    -0.775 OA
HETATM   34  H   UNK N   1      30.506  23.226  -0.660  0.00  0.00     0.167 HD
ENDBRANCH  31  33
ENDBRANCH  22  31
ENDBRANCH   1  19
TORSDOF 11
ENDMDL
MODEL 4
REMARK VINA RESULT:      -7.3      4.181      7.248
REMARK  11 active torsions:
REMARK  status: ('A' for Active; 'I' for Inactive)
REMARK    1  A    between atoms: O_2  and  C_16 
REMARK    2  A    between atoms: O_4  and  C_24 
REMARK    3  A    between atoms: O_4  and  C_28 
REMARK       I    between atoms: N_6  and  C_14 
REMARK    4  A    between atoms: C_13  and  N_7 
REMARK    5  A    between atoms: C_15  and  N_7 
REMARK    6  A    between atoms: C_8  and  C_16 
REMARK    7  A    between atoms: C_13  and  C_14 
REMARK    8  A    between atoms: C_15  and  C_17 
REMARK    9  A    between atoms: C_15  and  C_24 
REMARK   10  A    between atoms: C_17  and  C_21 
REMARK   11  A    between atoms: C_21  and  C_25 
ROOT
HETATM    1  C   UNK N   1      27.134  20.315   5.601  0.00  0.00     0.166 C 
HETATM    2  C   UNK N   1      27.150  21.794   5.947  0.00  0.00     0.042 C 
ENDROOT
BRANCH   1   3
HETATM    3  N   UNK N   1      25.809  19.899   5.158  0.00  0.00    -0.397 N 
HETATM    4  H   UNK N   1      25.066  19.665   5.817  0.00  0.00     0.154 HD
BRANCH   3   5
HETATM    5  C   UNK N   1      25.604  19.837   3.695  0.00  0.00     0.178 C 
BRANCH   5   6
HETATM    6  C   UNK N   1      25.948  18.423   3.237  0.00  0.00     0.039 C 
BRANCH   6   7
HETATM    7  C   UNK N   1      25.299  17.403   4.166  0.00  0.00     0.041 C 
BRANCH   7   8
HETATM    8  C   UNK N   1      26.067  16.129   4.240  0.00  0.00    -0.058 A 
HETATM    9  C   UNK N   1      26.559  15.519   3.077  0.00  0.00     0.007 A 
HETATM   10  C   UNK N   1      27.311  14.345   3.168  0.00  0.00     0.001 A 
HETATM   11  C   UNK N   1      27.581  13.783   4.420  0.00  0.00     0.000 A 
HETATM   12  C   UNK N   1      27.096  14.395   5.581  0.00  0.00     0.001 A 
HETATM   13  C   UNK N   1      26.341  15.567   5.490  0.00  0.00     0.007 A 
ENDBRANCH   7   8
ENDBRANCH   6   7
ENDBRANCH   5   6
BRANCH   5  14
HETATM   14  C   UNK N   1      24.298  20.442   3.135  0.00  0.00     0.281 C 
HETATM   15  O   UNK N   1      24.358  21.107   2.113  0.00  0.00    -0.263 OA
BRANCH  14  16
HETATM   16  O   UNK N   1      23.062  20.214   3.664  0.00  0.00    -0.320 OA
BRANCH  16  17
HETATM   17  C   UNK N   1      21.948  19.828   2.952  0.00  0.00     0.174 C 
HETATM   18  C   UNK N   1      21.345  18.576   3.554  0.00  0.00     0.034 C 
ENDBRANCH  16  17
ENDBRANCH  14  16
ENDBRANCH   5  14
ENDBRANCH   3   5
ENDBRANCH   1   3
BRANCH   1  19
HETATM   19  C   UNK N   1      27.585  19.433   6.738  0.00  0.00     0.242 C 
HETATM   20  O   UNK N   1      27.144  19.693   7.844  0.00  0.00    -0.271 OA
HETATM   21  N   UNK N   1      28.472  18.388   6.546  0.00  0.00    -0.331 N 
HETATM   22  C   UNK N   1      28.990  17.545   7.650  0.00  0.00     0.189 C 
HETATM   23  C   UNK N   1      28.855  18.055   5.173  0.00  0.00     0.166 C 
HETATM   24  C   UNK N   1      30.481  17.288   7.465  0.00  0.00     0.075 C 
HETATM   25  C   UNK N   1      30.716  16.648   6.145  0.00  0.00    -0.048 A 
HETATM   26  C   UNK N   1      29.943  17.027   5.038  0.00  0.00    -0.034 A 
HETATM   27  C   UNK N   1      31.721  15.687   6.001  0.00  0.00     0.008 A 
HETATM   28  C   UNK N   1      30.185  16.444   3.791  0.00  0.00     0.009 A 
HETATM   29  C   UNK N   1      31.190  15.483   3.648  0.00  0.00     0.001 A 
HETATM   30  C   UNK N   1      31.956  15.103   4.753  0.00  0.00     0.001 A 
BRANCH  22  31
HETATM   31  C   UNK N   1      28.795  18.070   9.048  0.00  0.00     0.164 C 
HETATM   32  O   UNK N   1      29.675  18.719   9.595  0.00  0.00    -0.648 OA
BRANCH  31  33
HETATM   33  O   UNK N   1      27.653  17.806   9.709  0.00  0.00    -0.775 OA
HETATM   34  H   UNK N   1      27.105  17.048   9.772  0.00  0.00     0.167 HD
ENDBRANCH  31  33
ENDBRANCH  22  31
ENDBRANCH   1  19
TORSDOF 11
ENDMDL
MODEL 5
REMARK VINA RESULT:      -7.3      1.743      3.056
REMARK  11 active torsions:
REMARK  status: ('A' for Active; 'I' for Inactive)
REMARK    1  A    between atoms: O_2  and  C_16 
REMARK    2  A    between atoms: O_4  and  C_24 
REMARK    3  A    between atoms: O_4  and  C_28 
REMARK       I    between atoms: N_6  and  C_14 
REMARK    4  A    between atoms: C_13  and  N_7 
REMARK    5  A    between atoms: C_15  and  N_7 
REMARK    6  A    between atoms: C_8  and  C_16 
REMARK    7  A    between atoms: C_13  and  C_14 
REMARK    8  A    between atoms: C_15  and  C_17 
REMARK    9  A    between atoms: C_15  and  C_24 
REMARK   10  A    between atoms: C_17  and  C_21 
REMARK   11  A    between atoms: C_21  and  C_25 
ROOT
HETATM    1  C   UNK N   1      21.604  16.506   4.055  0.00  0.00     0.166 C 
HETATM    2  C   UNK N   1      21.254  15.617   2.874  0.00  0.00     0.042 C 
ENDROOT
BRANCH   1   3
HETATM    3  N   UNK N   1      20.650  16.325   5.143  0.00  0.00    -0.397 N 
HETATM    4  H   UNK N   1      19.750  16.805   5.158  0.00  0.00     0.154 HD
BRANCH   3   5
HETATM    5  C   UNK N   1      21.064  15.404   6.222  0.00  0.00     0.178 C 
BRANCH   5   6
HETATM    6  C   UNK N   1      22.497  15.757   6.610  0.00  0.00     0.039 C 
BRANCH   6   7
HETATM    7  C   UNK N   1      23.334  14.486   6.716  0.00  0.00     0.041 C 
BRANCH   7   8
HETATM    8  C   UNK N   1      24.603  14.573   5.942  0.00  0.00    -0.058 A 
HETATM    9  C   UNK N   1      24.603  14.451   4.546  0.00  0.00     0.007 A 
HETATM   10  C   UNK N   1      25.798  14.575   3.833  0.00  0.00     0.001 A 
HETATM   11  C   UNK N   1      26.993  14.830   4.512  0.00  0.00     0.000 A 
HETATM   12  C   UNK N   1      26.994  14.958   5.905  0.00  0.00     0.001 A 
HETATM   13  C   UNK N   1      25.799  14.831   6.619  0.00  0.00     0.007 A 
ENDBRANCH   7   8
ENDBRANCH   6   7
ENDBRANCH   5   6
BRANCH   5  14
HETATM   14  C   UNK N   1      20.072  15.180   7.384  0.00  0.00     0.281 C 
HETATM   15  O   UNK N   1      19.106  15.921   7.474  0.00  0.00    -0.263 OA
BRANCH  14  16
HETATM   16  O   UNK N   1      20.161  14.153   8.277  0.00  0.00    -0.320 OA
BRANCH  16  17
HETATM   17  C   UNK N   1      20.429  14.284   9.620  0.00  0.00     0.174 C 
HETATM   18  C   UNK N   1      21.472  13.275  10.052  0.00  0.00     0.034 C 
ENDBRANCH  16  17
ENDBRANCH  14  16
ENDBRANCH   5  14
ENDBRANCH   3   5
ENDBRANCH   1   3
BRANCH   1  19
HETATM   19  C   UNK N   1      21.686  17.968   3.695  0.00  0.00     0.242 C 
HETATM   20  O   UNK N   1      20.660  18.496   3.300  0.00  0.00    -0.271 OA
HETATM   21  N   UNK N   1      22.869  18.680   3.787  0.00  0.00    -0.331 N 
HETATM   22  C   UNK N   1      23.003  20.099   3.377  0.00  0.00     0.189 C 
HETATM   23  C   UNK N   1      24.025  18.016   4.393  0.00  0.00     0.166 C 
HETATM   24  C   UNK N   1      24.308  20.310   2.621  0.00  0.00     0.075 C 
HETATM   25  C   UNK N   1      25.451  19.887   3.471  0.00  0.00    -0.048 A 
HETATM   26  C   UNK N   1      25.319  18.775   4.314  0.00  0.00    -0.034 A 
HETATM   27  C   UNK N   1      26.662  20.584   3.414  0.00  0.00     0.008 A 
HETATM   28  C   UNK N   1      26.404  18.362   5.092  0.00  0.00     0.009 A 
HETATM   29  C   UNK N   1      27.615  19.059   5.036  0.00  0.00     0.001 A 
HETATM   30  C   UNK N   1      27.744  20.171   4.198  0.00  0.00     0.001 A 
BRANCH  22  31
HETATM   31  C   UNK N   1      21.894  20.662   2.527  0.00  0.00     0.164 C 
HETATM   32  O   UNK N   1      21.957  20.602   1.307  0.00  0.00    -0.648 OA
BRANCH  31  33
HETATM   33  O   UNK N   1      20.836  21.253   3.111  0.00  0.00    -0.775 OA
HETATM   34  H   UNK N   1      19.928  21.314   2.886  0.00  0.00     0.167 HD
ENDBRANCH  31  33
ENDBRANCH  22  31
ENDBRANCH   1  19
TORSDOF 11
ENDMDL
MODEL 6
REMARK VINA RESULT:      -7.3     13.422     15.604
REMARK  11 active torsions:
REMARK  status: ('A' for Active; 'I' for Inactive)
REMARK    1  A    between atoms: O_2  and  C_16 
REMARK    2  A    between atoms: O_4  and  C_24 
REMARK    3  A    between atoms: O_4  and  C_28 
REMARK       I    between atoms: N_6  and  C_14 
REMARK    4  A    between atoms: C_13  and  N_7 
REMARK    5  A    between atoms: C_15  and  N_7 
REMARK    6  A    between atoms: C_8  and  C_16 
REMARK    7  A    between atoms: C_13  and  C_14 
REMARK    8  A    between atoms: C_15  and  C_17 
REMARK    9  A    between atoms: C_15  and  C_24 
REMARK   10  A    between atoms: C_17  and  C_21 
REMARK   11  A    between atoms: C_21  and  C_25 
ROOT
HETATM    1  C   UNK N   1      27.023  24.890  -4.977  0.00  0.00     0.166 C 
HETATM    2  C   UNK N   1      26.333  24.307  -3.756  0.00  0.00     0.042 C 
ENDROOT
BRANCH   1   3
HETATM    3  N   UNK N   1      26.876  26.341  -5.014  0.00  0.00    -0.397 N 
HETATM    4  H   UNK N   1      26.348  26.812  -5.748  0.00  0.00     0.154 HD
BRANCH   3   5
HETATM    5  C   UNK N   1      27.537  27.088  -3.924  0.00  0.00     0.178 C 
BRANCH   5   6
HETATM    6  C   UNK N   1      28.888  27.571  -4.444  0.00  0.00     0.039 C 
BRANCH   6   7
HETATM    7  C   UNK N   1      29.980  27.250  -3.429  0.00  0.00     0.041 C 
BRANCH   7   8
HETATM    8  C   UNK N   1      30.763  26.038  -3.800  0.00  0.00    -0.058 A 
HETATM    9  C   UNK N   1      30.349  24.763  -3.390  0.00  0.00     0.007 A 
HETATM   10  C   UNK N   1      31.074  23.634  -3.780  0.00  0.00     0.001 A 
HETATM   11  C   UNK N   1      32.207  23.775  -4.587  0.00  0.00     0.000 A 
HETATM   12  C   UNK N   1      32.618  25.047  -5.000  0.00  0.00     0.001 A 
HETATM   13  C   UNK N   1      31.895  26.177  -4.608  0.00  0.00     0.007 A 
ENDBRANCH   7   8
ENDBRANCH   6   7
ENDBRANCH   5   6
BRANCH   5  14
HETATM   14  C   UNK N   1      26.687  28.121  -3.153  0.00  0.00     0.281 C 
HETATM   15  O   UNK N   1      25.493  27.907  -3.020  0.00  0.00    -0.263 OA
BRANCH  14  16
HETATM   16  O   UNK N   1      27.200  29.226  -2.539  0.00  0.00    -0.320 OA
BRANCH  16  17
HETATM   17  C   UNK N   1      26.943  30.529  -2.898  0.00  0.00     0.174 C 
HETATM   18  C   UNK N   1      27.017  30.687  -4.402  0.00  0.00     0.034 C 
ENDBRANCH  16  17
ENDBRANCH  14  16
ENDBRANCH   5  14
ENDBRANCH   3   5
ENDBRANCH   1   3
BRANCH   1  19
HETATM   19  C   UNK N   1      26.533  24.301  -6.276  0.00  0.00     0.242 C 
HETATM   20  O   UNK N   1      25.530  24.797  -6.761  0.00  0.00    -0.271 OA
HETATM   21  N   UNK N   1      27.174  23.237  -6.886  0.00  0.00    -0.331 N 
HETATM   22  C   UNK N   1      26.682  22.588  -8.125  0.00  0.00     0.189 C 
HETATM   23  C   UNK N   1      28.444  22.783  -6.316  0.00  0.00     0.166 C 
HETATM   24  C   UNK N   1      26.807  21.074  -8.015  0.00  0.00     0.075 C 
HETATM   25  C   UNK N   1      28.222  20.710  -7.744  0.00  0.00    -0.048 A 
HETATM   26  C   UNK N   1      29.006  21.525  -6.916  0.00  0.00    -0.034 A 
HETATM   27  C   UNK N   1      28.764  19.545  -8.297  0.00  0.00     0.008 A 
HETATM   28  C   UNK N   1      30.329  21.165  -6.639  0.00  0.00     0.009 A 
HETATM   29  C   UNK N   1      30.870  20.001  -7.192  0.00  0.00     0.001 A 
HETATM   30  C   UNK N   1      30.089  19.192  -8.022  0.00  0.00     0.001 A 
BRANCH  22  31
HETATM   31  C   UNK N   1      25.263  22.894  -8.527  0.00  0.00     0.164 C 
HETATM   32  O   UNK N   1      24.340  22.202  -8.120  0.00  0.00    -0.648 OA
BRANCH  31  33
HETATM   33  O   UNK N   1      25.008  23.922  -9.357  0.00  0.00    -0.775 OA
HETATM   34  H   UNK N   1      25.044  24.022 -10.288  0.00  0.00     0.167 HD
ENDBRANCH  31  33
ENDBRANCH  22  31
ENDBRANCH   1  19
TORSDOF 11
ENDMDL
MODEL 7
REMARK VINA RESULT:      -7.3      6.723     10.308
REMARK  11 active torsions:
REMARK  status: ('A' for Active; 'I' for Inactive)
REMARK    1  A    between atoms: O_2  and  C_16 
REMARK    2  A    between atoms: O_4  and  C_24 
REMARK    3  A    between atoms: O_4  and  C_28 
REMARK       I    between atoms: N_6  and  C_14 
REMARK    4  A    between atoms: C_13  and  N_7 
REMARK    5  A    between atoms: C_15  and  N_7 
REMARK    6  A    between atoms: C_8  and  C_16 
REMARK    7  A    between atoms: C_13  and  C_14 
REMARK    8  A    between atoms: C_15  and  C_17 
REMARK    9  A    between atoms: C_15  and  C_24 
REMARK   10  A    between atoms: C_17  and  C_21 
REMARK   11  A    between atoms: C_21  and  C_25 
ROOT
HETATM    1  C   UNK N   1      29.566  17.199   8.576  0.00  0.00     0.166 C 
HETATM    2  C   UNK N   1      28.657  17.365   9.782  0.00  0.00     0.042 C 
ENDROOT
BRANCH   1   3
HETATM    3  N   UNK N   1      30.924  17.632   8.885  0.00  0.00    -0.397 N 
HETATM    4  H   UNK N   1      31.115  18.385   9.545  0.00  0.00     0.154 HD
BRANCH   3   5
HETATM    5  C   UNK N   1      32.009  16.913   8.184  0.00  0.00     0.178 C 
BRANCH   5   6
HETATM    6  C   UNK N   1      33.023  17.950   7.709  0.00  0.00     0.039 C 
BRANCH   6   7
HETATM    7  C   UNK N   1      34.121  17.268   6.899  0.00  0.00     0.041 C 
BRANCH   7   8
HETATM    8  C   UNK N   1      33.677  16.910   5.524  0.00  0.00    -0.058 A 
HETATM    9  C   UNK N   1      34.083  15.709   4.928  0.00  0.00     0.007 A 
HETATM   10  C   UNK N   1      33.625  15.371   3.652  0.00  0.00     0.001 A 
HETATM   11  C   UNK N   1      32.753  16.228   2.973  0.00  0.00     0.000 A 
HETATM   12  C   UNK N   1      32.343  17.425   3.569  0.00  0.00     0.001 A 
HETATM   13  C   UNK N   1      32.803  17.765   4.844  0.00  0.00     0.007 A 
ENDBRANCH   7   8
ENDBRANCH   6   7
ENDBRANCH   5   6
BRANCH   5  14
HETATM   14  C   UNK N   1      32.584  15.653   8.868  0.00  0.00     0.281 C 
HETATM   15  O   UNK N   1      32.379  14.567   8.350  0.00  0.00    -0.263 OA
BRANCH  14  16
HETATM   16  O   UNK N   1      33.378  15.681   9.977  0.00  0.00    -0.320 OA
BRANCH  16  17
HETATM   17  C   UNK N   1      34.731  15.432   9.994  0.00  0.00     0.174 C 
HETATM   18  C   UNK N   1      35.446  16.457  10.849  0.00  0.00     0.034 C 
ENDBRANCH  16  17
ENDBRANCH  14  16
ENDBRANCH   5  14
ENDBRANCH   3   5
ENDBRANCH   1   3
BRANCH   1  19
HETATM   19  C   UNK N   1      29.071  17.929   7.353  0.00  0.00     0.242 C 
HETATM   20  O   UNK N   1      28.677  19.071   7.516  0.00  0.00    -0.271 OA
HETATM   21  N   UNK N   1      29.043  17.331   6.105  0.00  0.00    -0.331 N 
HETATM   22  C   UNK N   1      28.499  17.992   4.895  0.00  0.00     0.189 C 
HETATM   23  C   UNK N   1      29.653  16.007   5.963  0.00  0.00     0.166 C 
HETATM   24  C   UNK N   1      27.667  17.008   4.082  0.00  0.00     0.075 C 
HETATM   25  C   UNK N   1      28.499  15.831   3.722  0.00  0.00    -0.048 A 
HETATM   26  C   UNK N   1      29.446  15.341   4.633  0.00  0.00    -0.034 A 
HETATM   27  C   UNK N   1      28.323  15.200   2.487  0.00  0.00     0.008 A 
HETATM   28  C   UNK N   1      30.208  14.216   4.303  0.00  0.00     0.009 A 
HETATM   29  C   UNK N   1      30.032  13.586   3.068  0.00  0.00     0.001 A 
HETATM   30  C   UNK N   1      29.091  14.079   2.159  0.00  0.00     0.001 A 
BRANCH  22  31
HETATM   31  C   UNK N   1      27.653  19.218   5.120  0.00  0.00     0.164 C 
HETATM   32  O   UNK N   1      26.454  19.112   5.340  0.00  0.00    -0.648 OA
BRANCH  31  33
HETATM   33  O   UNK N   1      28.213  20.440   5.058  0.00  0.00    -0.775 OA
HETATM   34  H   UNK N   1      28.666  20.907   4.384  0.00  0.00     0.167 HD
ENDBRANCH  31  33
ENDBRANCH  22  31
ENDBRANCH   1  19
TORSDOF 11
ENDMDL
MODEL 8
REMARK VINA RESULT:      -7.2      1.796      2.689
REMARK  11 active torsions:
REMARK  status: ('A' for Active; 'I' for Inactive)
REMARK    1  A    between atoms: O_2  and  C_16 
REMARK    2  A    between atoms: O_4  and  C_24 
REMARK    3  A    between atoms: O_4  and  C_28 
REMARK       I    between atoms: N_6  and  C_14 
REMARK    4  A    between atoms: C_13  and  N_7 
REMARK    5  A    between atoms: C_15  and  N_7 
REMARK    6  A    between atoms: C_8  and  C_16 
REMARK    7  A    between atoms: C_13  and  C_14 
REMARK    8  A    between atoms: C_15  and  C_17 
REMARK    9  A    between atoms: C_15  and  C_24 
REMARK   10  A    between atoms: C_17  and  C_21 
REMARK   11  A    between atoms: C_21  and  C_25 
ROOT
HETATM    1  C   UNK N   1      21.496  16.329   3.764  0.00  0.00     0.166 C 
HETATM    2  C   UNK N   1      20.814  15.585   2.629  0.00  0.00     0.042 C 
ENDROOT
BRANCH   1   3
HETATM    3  N   UNK N   1      20.826  16.071   5.033  0.00  0.00    -0.397 N 
HETATM    4  H   UNK N   1      20.116  16.700   5.408  0.00  0.00     0.154 HD
BRANCH   3   5
HETATM    5  C   UNK N   1      21.235  14.842   5.743  0.00  0.00     0.178 C 
BRANCH   5   6
HETATM    6  C   UNK N   1      21.945  15.261   7.028  0.00  0.00     0.039 C 
BRANCH   6   7
HETATM    7  C   UNK N   1      23.245  14.477   7.182  0.00  0.00     0.041 C 
BRANCH   7   8
HETATM    8  C   UNK N   1      23.262  13.639   8.412  0.00  0.00    -0.058 A 
HETATM    9  C   UNK N   1      24.378  12.853   8.730  0.00  0.00     0.007 A 
HETATM   10  C   UNK N   1      24.392  12.103   9.909  0.00  0.00     0.001 A 
HETATM   11  C   UNK N   1      23.296  12.143  10.776  0.00  0.00     0.000 A 
HETATM   12  C   UNK N   1      22.184  12.931  10.462  0.00  0.00     0.001 A 
HETATM   13  C   UNK N   1      22.168  13.679   9.282  0.00  0.00     0.007 A 
ENDBRANCH   7   8
ENDBRANCH   6   7
ENDBRANCH   5   6
BRANCH   5  14
HETATM   14  C   UNK N   1      20.188  13.714   5.874  0.00  0.00     0.281 C 
HETATM   15  O   UNK N   1      19.135  13.825   5.265  0.00  0.00    -0.263 OA
BRANCH  14  16
HETATM   16  O   UNK N   1      20.394  12.556   6.565  0.00  0.00    -0.320 OA
BRANCH  16  17
HETATM   17  C   UNK N   1      21.132  11.483   6.121  0.00  0.00     0.174 C 
HETATM   18  C   UNK N   1      20.247  10.507   5.374  0.00  0.00     0.034 C 
ENDBRANCH  16  17
ENDBRANCH  14  16
ENDBRANCH   5  14
ENDBRANCH   3   5
ENDBRANCH   1   3
BRANCH   1  19
HETATM   19  C   UNK N   1      21.581  17.817   3.533  0.00  0.00     0.242 C 
HETATM   20  O   UNK N   1      20.559  18.378   3.177  0.00  0.00    -0.271 OA
HETATM   21  N   UNK N   1      22.763  18.518   3.698  0.00  0.00    -0.331 N 
HETATM   22  C   UNK N   1      22.900  19.966   3.414  0.00  0.00     0.189 C 
HETATM   23  C   UNK N   1      23.914  17.803   4.254  0.00  0.00     0.166 C 
HETATM   24  C   UNK N   1      24.212  20.242   2.691  0.00  0.00     0.075 C 
HETATM   25  C   UNK N   1      25.348  19.746   3.512  0.00  0.00    -0.048 A 
HETATM   26  C   UNK N   1      25.208  18.565   4.254  0.00  0.00    -0.034 A 
HETATM   27  C   UNK N   1      26.559  20.445   3.527  0.00  0.00     0.008 A 
HETATM   28  C   UNK N   1      26.287  18.085   5.003  0.00  0.00     0.009 A 
HETATM   29  C   UNK N   1      27.498  18.784   5.018  0.00  0.00     0.001 A 
HETATM   30  C   UNK N   1      27.633  19.964   4.282  0.00  0.00     0.001 A 
BRANCH  22  31
HETATM   31  C   UNK N   1      21.799  20.602   2.605  0.00  0.00     0.164 C 
HETATM   32  O   UNK N   1      21.863  20.628   1.384  0.00  0.00    -0.648 OA
BRANCH  31  33
HETATM   33  O   UNK N   1      20.748  21.162   3.230  0.00  0.00    -0.775 OA
HETATM   34  H   UNK N   1      20.051  21.720   2.943  0.00  0.00     0.167 HD
ENDBRANCH  31  33
ENDBRANCH  22  31
ENDBRANCH   1  19
TORSDOF 11
ENDMDL
MODEL 9
REMARK VINA RESULT:      -7.2      1.841      3.746
REMARK  11 active torsions:
REMARK  status: ('A' for Active; 'I' for Inactive)
REMARK    1  A    between atoms: O_2  and  C_16 
REMARK    2  A    between atoms: O_4  and  C_24 
REMARK    3  A    between atoms: O_4  and  C_28 
REMARK       I    between atoms: N_6  and  C_14 
REMARK    4  A    between atoms: C_13  and  N_7 
REMARK    5  A    between atoms: C_15  and  N_7 
REMARK    6  A    between atoms: C_8  and  C_16 
REMARK    7  A    between atoms: C_13  and  C_14 
REMARK    8  A    between atoms: C_15  and  C_17 
REMARK    9  A    between atoms: C_15  and  C_24 
REMARK   10  A    between atoms: C_17  and  C_21 
REMARK   11  A    between atoms: C_21  and  C_25 
ROOT
HETATM    1  C   UNK N   1      21.353  16.466   3.940  0.00  0.00     0.166 C 
HETATM    2  C   UNK N   1      20.625  15.684   2.861  0.00  0.00     0.042 C 
ENDROOT
BRANCH   1   3
HETATM    3  N   UNK N   1      20.706  16.293   5.235  0.00  0.00    -0.397 N 
HETATM    4  H   UNK N   1      19.719  16.508   5.380  0.00  0.00     0.154 HD
BRANCH   3   5
HETATM    5  C   UNK N   1      21.563  15.786   6.327  0.00  0.00     0.178 C 
BRANCH   5   6
HETATM    6  C   UNK N   1      20.877  16.115   7.649  0.00  0.00     0.039 C 
BRANCH   6   7
HETATM    7  C   UNK N   1      20.477  17.587   7.675  0.00  0.00     0.041 C 
BRANCH   7   8
HETATM    8  C   UNK N   1      19.489  17.890   8.747  0.00  0.00    -0.058 A 
HETATM    9  C   UNK N   1      19.709  18.938   9.650  0.00  0.00     0.007 A 
HETATM   10  C   UNK N   1      18.753  19.233  10.625  0.00  0.00     0.001 A 
HETATM   11  C   UNK N   1      17.572  18.488  10.694  0.00  0.00     0.000 A 
HETATM   12  C   UNK N   1      17.349  17.445   9.789  0.00  0.00     0.001 A 
HETATM   13  C   UNK N   1      18.306  17.148   8.815  0.00  0.00     0.007 A 
ENDBRANCH   7   8
ENDBRANCH   6   7
ENDBRANCH   5   6
BRANCH   5  14
HETATM   14  C   UNK N   1      22.127  14.355   6.182  0.00  0.00     0.281 C 
HETATM   15  O   UNK N   1      21.344  13.441   5.979  0.00  0.00    -0.263 OA
BRANCH  14  16
HETATM   16  O   UNK N   1      23.457  14.054   6.186  0.00  0.00    -0.320 OA
BRANCH  16  17
HETATM   17  C   UNK N   1      24.462  14.890   6.616  0.00  0.00     0.174 C 
HETATM   18  C   UNK N   1      25.321  14.195   7.651  0.00  0.00     0.034 C 
ENDBRANCH  16  17
ENDBRANCH  14  16
ENDBRANCH   5  14
ENDBRANCH   3   5
ENDBRANCH   1   3
BRANCH   1  19
HETATM   19  C   UNK N   1      21.474  17.937   3.630  0.00  0.00     0.242 C 
HETATM   20  O   UNK N   1      20.462  18.506   3.258  0.00  0.00    -0.271 OA
HETATM   21  N   UNK N   1      22.677  18.613   3.742  0.00  0.00    -0.331 N 
HETATM   22  C   UNK N   1      22.848  20.040   3.380  0.00  0.00     0.189 C 
HETATM   23  C   UNK N   1      23.816  17.897   4.320  0.00  0.00     0.166 C 
HETATM   24  C   UNK N   1      24.156  20.242   2.625  0.00  0.00     0.075 C 
HETATM   25  C   UNK N   1      25.290  19.759   3.456  0.00  0.00    -0.048 A 
HETATM   26  C   UNK N   1      25.130  18.623   4.262  0.00  0.00    -0.034 A 
HETATM   27  C   UNK N   1      26.519  20.425   3.418  0.00  0.00     0.008 A 
HETATM   28  C   UNK N   1      26.206  18.154   5.021  0.00  0.00     0.009 A 
HETATM   29  C   UNK N   1      27.436  18.819   4.983  0.00  0.00     0.001 A 
HETATM   30  C   UNK N   1      27.592  19.955   4.183  0.00  0.00     0.001 A 
BRANCH  22  31
HETATM   31  C   UNK N   1      21.752  20.662   2.554  0.00  0.00     0.164 C 
HETATM   32  O   UNK N   1      21.814  20.649   1.332  0.00  0.00    -0.648 OA
BRANCH  31  33
HETATM   33  O   UNK N   1      20.708  21.254   3.162  0.00  0.00    -0.775 OA
HETATM   34  H   UNK N   1      19.848  20.963   3.393  0.00  0.00     0.167 HD
ENDBRANCH  31  33
ENDBRANCH  22  31
ENDBRANCH   1  19
TORSDOF 11
ENDMDL
