MODEL 1
REMARK VINA RESULT:      -6.0      0.000      0.000
REMARK  4 active torsions:
REMARK  status: ('A' for Active; 'I' for Inactive)
REMARK    1  A    between atoms: O_3  and  N_9 
REMARK    2  A    between atoms: C_13  and  O_3 
REMARK    3  A    between atoms: O_4  and  N_10 
REMARK    4  A    between atoms: C_14  and  O_4 
ROOT
HETATM    1  O   UNK N   1      36.690  15.354   9.915  0.00  0.00    -0.378 OA
HETATM    2  O   UNK N   1      34.014  14.480  10.762  0.00  0.00    -0.378 OA
HETATM    3  C   UNK N   1      34.897  15.323  11.461  0.00  0.00     0.186 C 
HETATM    4  C   UNK N   1      35.611  16.129  10.404  0.00  0.00     0.186 C 
HETATM    5  C   UNK N   1      36.061  14.587  12.049  0.00  0.00     0.214 C 
HETATM    6  C   UNK N   1      34.582  16.252   9.310  0.00  0.00     0.214 C 
HETATM    7  C   UNK N   1      36.874  14.286  10.817  0.00  0.00     0.205 C 
HETATM    8  C   UNK N   1      33.466  15.334   9.785  0.00  0.00     0.205 C 
ENDROOT
BRANCH   5   9
HETATM    9  O   UNK N   1      35.694  13.437  12.721  0.00  0.00    -0.211 OA
BRANCH   9  10
HETATM   10  N   UNK N   1      35.521  13.414  14.034  0.00  0.00     0.005 N 
HETATM   11  O   UNK N   1      34.399  12.947  14.534  0.00  0.00    -0.511 OA
HETATM   12  O   UNK N   1      36.360  13.845  14.771  0.00  0.00    -0.511 OA
ENDBRANCH   9  10
ENDBRANCH   5   9
BRANCH   6  13
HETATM   13  O   UNK N   1      34.171  17.560   9.142  0.00  0.00    -0.211 OA
BRANCH  13  14
HETATM   14  N   UNK N   1      34.697  18.366   8.233  0.00  0.00     0.005 N 
HETATM   15  O   UNK N   1      35.444  19.377   8.620  0.00  0.00    -0.511 OA
HETATM   16  O   UNK N   1      34.554  18.152   7.065  0.00  0.00    -0.511 OA
ENDBRANCH  13  14
ENDBRANCH   6  13
TORSDOF 4
ENDMDL
MODEL 2
REMARK VINA RESULT:      -5.6      0.806      5.880
REMARK  4 active torsions:
REMARK  status: ('A' for Active; 'I' for Inactive)
REMARK    1  A    between atoms: O_3  and  N_9 
REMARK    2  A    between atoms: C_13  and  O_3 
REMARK    3  A    between atoms: O_4  and  N_10 
REMARK    4  A    between atoms: C_14  and  O_4 
ROOT
HETATM    1  O   UNK N   1      34.063  14.782  11.277  0.00  0.00    -0.378 OA
HETATM    2  O   UNK N   1      36.582  14.892   9.767  0.00  0.00    -0.378 OA
HETATM    3  C   UNK N   1      36.083  15.853  10.665  0.00  0.00     0.186 C 
HETATM    4  C   UNK N   1      35.369  15.071  11.740  0.00  0.00     0.186 C 
HETATM    5  C   UNK N   1      34.931  16.629  10.106  0.00  0.00     0.214 C 
HETATM    6  C   UNK N   1      36.146  13.782  11.803  0.00  0.00     0.214 C 
HETATM    7  C   UNK N   1      33.831  15.601  10.154  0.00  0.00     0.205 C 
HETATM    8  C   UNK N   1      37.095  13.895  10.619  0.00  0.00     0.205 C 
ENDROOT
BRANCH   5   9
HETATM    9  O   UNK N   1      35.156  17.088   8.824  0.00  0.00    -0.211 OA
BRANCH   9  10
HETATM   10  N   UNK N   1      34.704  18.263   8.407  0.00  0.00     0.005 N 
HETATM   11  O   UNK N   1      35.419  19.345   8.616  0.00  0.00    -0.511 OA
HETATM   12  O   UNK N   1      33.638  18.355   7.873  0.00  0.00    -0.511 OA
ENDBRANCH   9  10
ENDBRANCH   5   9
BRANCH   6  13
HETATM   13  O   UNK N   1      36.802  13.641  13.010  0.00  0.00    -0.211 OA
BRANCH  13  14
HETATM   14  N   UNK N   1      36.258  13.983  14.168  0.00  0.00     0.005 N 
HETATM   15  O   UNK N   1      35.106  13.457  14.521  0.00  0.00    -0.511 OA
HETATM   16  O   UNK N   1      36.828  14.715  14.922  0.00  0.00    -0.511 OA
ENDBRANCH  13  14
ENDBRANCH   6  13
TORSDOF 4
ENDMDL
MODEL 3
REMARK VINA RESULT:      -5.0     16.814     19.432
REMARK  4 active torsions:
REMARK  status: ('A' for Active; 'I' for Inactive)
REMARK    1  A    between atoms: O_3  and  N_9 
REMARK    2  A    between atoms: C_13  and  O_3 
REMARK    3  A    between atoms: O_4  and  N_10 
REMARK    4  A    between atoms: C_14  and  O_4 
ROOT
HETATM    1  O   UNK N   1      28.579  26.027  -5.645  0.00  0.00    -0.378 OA
HETATM    2  O   UNK N   1      26.770  24.077  -4.394  0.00  0.00    -0.378 OA
HETATM    3  C   UNK N   1      27.540  25.062  -3.749  0.00  0.00     0.186 C 
HETATM    4  C   UNK N   1      27.558  26.242  -4.689  0.00  0.00     0.186 C 
HETATM    5  C   UNK N   1      29.001  24.733  -3.725  0.00  0.00     0.214 C 
HETATM    6  C   UNK N   1      26.226  26.147  -5.387  0.00  0.00     0.214 C 
HETATM    7  C   UNK N   1      29.383  24.973  -5.163  0.00  0.00     0.205 C 
HETATM    8  C   UNK N   1      25.683  24.809  -4.908  0.00  0.00     0.205 C 
ENDROOT
BRANCH   5   9
HETATM    9  O   UNK N   1      29.261  23.436  -3.331  0.00  0.00    -0.211 OA
BRANCH   9  10
HETATM   10  N   UNK N   1      29.351  23.093  -2.054  0.00  0.00     0.005 N 
HETATM   11  O   UNK N   1      28.255  22.918  -1.349  0.00  0.00    -0.511 OA
HETATM   12  O   UNK N   1      30.417  22.973  -1.525  0.00  0.00    -0.511 OA
ENDBRANCH   9  10
ENDBRANCH   5   9
BRANCH   6  13
HETATM   13  O   UNK N   1      25.405  27.211  -5.065  0.00  0.00    -0.211 OA
BRANCH  13  14
HETATM   14  N   UNK N   1      25.696  28.078  -4.107  0.00  0.00     0.005 N 
HETATM   15  O   UNK N   1      26.252  29.226  -4.422  0.00  0.00    -0.511 OA
HETATM   16  O   UNK N   1      25.403  27.857  -2.969  0.00  0.00    -0.511 OA
ENDBRANCH  13  14
ENDBRANCH   6  13
TORSDOF 4
ENDMDL
MODEL 4
REMARK VINA RESULT:      -5.0      1.535      2.142
REMARK  4 active torsions:
REMARK  status: ('A' for Active; 'I' for Inactive)
REMARK    1  A    between atoms: O_3  and  N_9 
REMARK    2  A    between atoms: C_13  and  O_3 
REMARK    3  A    between atoms: O_4  and  N_10 
REMARK    4  A    between atoms: C_14  and  O_4 
ROOT
HETATM    1  O   UNK N   1      36.949  13.333  10.994  0.00  0.00    -0.378 OA
HETATM    2  O   UNK N   1      34.405  14.276  12.125  0.00  0.00    -0.378 OA
HETATM    3  C   UNK N   1      35.682  14.839  12.309  0.00  0.00     0.186 C 
HETATM    4  C   UNK N   1      36.405  14.639  11.000  0.00  0.00     0.186 C 
HETATM    5  C   UNK N   1      36.554  14.021  13.209  0.00  0.00     0.214 C 
HETATM    6  C   UNK N   1      35.296  14.696   9.981  0.00  0.00     0.214 C 
HETATM    7  C   UNK N   1      36.887  12.853  12.318  0.00  0.00     0.205 C 
HETATM    8  C   UNK N   1      34.041  14.723  10.841  0.00  0.00     0.205 C 
ENDROOT
BRANCH   5   9
HETATM    9  O   UNK N   1      35.919  13.624  14.369  0.00  0.00    -0.211 OA
BRANCH   9  10
HETATM   10  N   UNK N   1      36.369  13.958  15.569  0.00  0.00     0.005 N 
HETATM   11  O   UNK N   1      37.474  14.660  15.676  0.00  0.00    -0.511 OA
HETATM   12  O   UNK N   1      35.801  13.598  16.559  0.00  0.00    -0.511 OA
ENDBRANCH   9  10
ENDBRANCH   5   9
BRANCH   6  13
HETATM   13  O   UNK N   1      35.414  15.800   9.160  0.00  0.00    -0.211 OA
BRANCH  13  14
HETATM   14  N   UNK N   1      34.935  16.991   9.486  0.00  0.00     0.005 N 
HETATM   15  O   UNK N   1      33.758  17.361   9.032  0.00  0.00    -0.511 OA
HETATM   16  O   UNK N   1      35.529  17.708  10.236  0.00  0.00    -0.511 OA
ENDBRANCH  13  14
ENDBRANCH   6  13
TORSDOF 4
ENDMDL
MODEL 5
REMARK VINA RESULT:      -4.9      1.179      5.749
REMARK  4 active torsions:
REMARK  status: ('A' for Active; 'I' for Inactive)
REMARK    1  A    between atoms: O_3  and  N_9 
REMARK    2  A    between atoms: C_13  and  O_3 
REMARK    3  A    between atoms: O_4  and  N_10 
REMARK    4  A    between atoms: C_14  and  O_4 
ROOT
HETATM    1  O   UNK N   1      35.680  14.573   8.624  0.00  0.00    -0.378 OA
HETATM    2  O   UNK N   1      35.759  16.427  10.903  0.00  0.00    -0.378 OA
HETATM    3  C   UNK N   1      34.642  15.727  10.411  0.00  0.00     0.186 C 
HETATM    4  C   UNK N   1      35.174  14.398   9.934  0.00  0.00     0.186 C 
HETATM    5  C   UNK N   1      34.134  16.278   9.114  0.00  0.00     0.214 C 
HETATM    6  C   UNK N   1      36.334  14.139  10.860  0.00  0.00     0.214 C 
HETATM    7  C   UNK N   1      35.202  15.814   8.157  0.00  0.00     0.205 C 
HETATM    8  C   UNK N   1      36.454  15.444  11.633  0.00  0.00     0.205 C 
ENDROOT
BRANCH   5   9
HETATM    9  O   UNK N   1      34.007  17.653   9.121  0.00  0.00    -0.211 OA
BRANCH   9  10
HETATM   10  N   UNK N   1      34.602  18.420   8.218  0.00  0.00     0.005 N 
HETATM   11  O   UNK N   1      34.368  18.222   6.941  0.00  0.00    -0.511 OA
HETATM   12  O   UNK N   1      35.377  19.269   8.551  0.00  0.00    -0.511 OA
ENDBRANCH   9  10
ENDBRANCH   5   9
BRANCH   6  13
HETATM   13  O   UNK N   1      36.103  13.048  11.674  0.00  0.00    -0.211 OA
BRANCH  13  14
HETATM   14  N   UNK N   1      35.848  13.160  12.969  0.00  0.00     0.005 N 
HETATM   15  O   UNK N   1      34.640  13.495  13.364  0.00  0.00    -0.511 OA
HETATM   16  O   UNK N   1      36.684  12.899  13.784  0.00  0.00    -0.511 OA
ENDBRANCH  13  14
ENDBRANCH   6  13
TORSDOF 4
ENDMDL
MODEL 6
REMARK VINA RESULT:      -4.9     16.551     19.410
REMARK  4 active torsions:
REMARK  status: ('A' for Active; 'I' for Inactive)
REMARK    1  A    between atoms: O_3  and  N_9 
REMARK    2  A    between atoms: C_13  and  O_3 
REMARK    3  A    between atoms: O_4  and  N_10 
REMARK    4  A    between atoms: C_14  and  O_4 
ROOT
HETATM    1  O   UNK N   1      27.623  23.563  -5.517  0.00  0.00    -0.378 OA
HETATM    2  O   UNK N   1      29.336  25.560  -4.205  0.00  0.00    -0.378 OA
HETATM    3  C   UNK N   1      28.192  24.936  -3.674  0.00  0.00     0.186 C 
HETATM    4  C   UNK N   1      28.203  23.532  -4.225  0.00  0.00     0.186 C 
HETATM    5  C   UNK N   1      26.920  25.439  -4.282  0.00  0.00     0.214 C 
HETATM    6  C   UNK N   1      29.671  23.230  -4.372  0.00  0.00     0.214 C 
HETATM    7  C   UNK N   1      26.976  24.808  -5.650  0.00  0.00     0.205 C 
HETATM    8  C   UNK N   1      30.328  24.569  -4.074  0.00  0.00     0.205 C 
ENDROOT
BRANCH   5   9
HETATM    9  O   UNK N   1      26.856  26.817  -4.350  0.00  0.00    -0.211 OA
BRANCH   9  10
HETATM   10  N   UNK N   1      25.737  27.484  -4.110  0.00  0.00     0.005 N 
HETATM   11  O   UNK N   1      25.473  27.892  -2.889  0.00  0.00    -0.511 OA
HETATM   12  O   UNK N   1      24.946  27.688  -4.983  0.00  0.00    -0.511 OA
ENDBRANCH   9  10
ENDBRANCH   5   9
BRANCH   6  13
HETATM   13  O   UNK N   1      30.074  22.227  -3.512  0.00  0.00    -0.211 OA
BRANCH  13  14
HETATM   14  N   UNK N   1      30.806  22.457  -2.433  0.00  0.00     0.005 N 
HETATM   15  O   UNK N   1      30.254  23.035  -1.389  0.00  0.00    -0.511 OA
HETATM   16  O   UNK N   1      31.942  22.092  -2.372  0.00  0.00    -0.511 OA
ENDBRANCH  13  14
ENDBRANCH   6  13
TORSDOF 4
ENDMDL
MODEL 7
REMARK VINA RESULT:      -4.9      1.665      2.103
REMARK  4 active torsions:
REMARK  status: ('A' for Active; 'I' for Inactive)
REMARK    1  A    between atoms: O_3  and  N_9 
REMARK    2  A    between atoms: C_13  and  O_3 
REMARK    3  A    between atoms: O_4  and  N_10 
REMARK    4  A    between atoms: C_14  and  O_4 
ROOT
HETATM    1  O   UNK N   1      35.552  17.060  10.344  0.00  0.00    -0.378 OA
HETATM    2  O   UNK N   1      35.080  14.433   9.114  0.00  0.00    -0.378 OA
HETATM    3  C   UNK N   1      34.349  15.030  10.157  0.00  0.00     0.186 C 
HETATM    4  C   UNK N   1      34.344  16.508   9.855  0.00  0.00     0.186 C 
HETATM    5  C   UNK N   1      35.092  15.038  11.457  0.00  0.00     0.214 C 
HETATM    6  C   UNK N   1      34.379  16.552   8.349  0.00  0.00     0.214 C 
HETATM    7  C   UNK N   1      36.131  16.099  11.198  0.00  0.00     0.205 C 
HETATM    8  C   UNK N   1      34.599  15.096   7.968  0.00  0.00     0.205 C 
ENDROOT
BRANCH   5   9
HETATM    9  O   UNK N   1      35.663  13.819  11.766  0.00  0.00    -0.211 OA
BRANCH   9  10
HETATM   10  N   UNK N   1      35.007  12.884  12.437  0.00  0.00     0.005 N 
HETATM   11  O   UNK N   1      34.620  13.119  13.670  0.00  0.00    -0.511 OA
HETATM   12  O   UNK N   1      34.792  11.815  11.946  0.00  0.00    -0.511 OA
ENDBRANCH   9  10
ENDBRANCH   5   9
BRANCH   6  13
HETATM   13  O   UNK N   1      33.212  17.076   7.828  0.00  0.00    -0.211 OA
BRANCH  13  14
HETATM   14  N   UNK N   1      33.106  17.482   6.571  0.00  0.00     0.005 N 
HETATM   15  O   UNK N   1      34.163  17.962   5.956  0.00  0.00    -0.511 OA
HETATM   16  O   UNK N   1      32.079  17.360   5.972  0.00  0.00    -0.511 OA
ENDBRANCH  13  14
ENDBRANCH   6  13
TORSDOF 4
ENDMDL
MODEL 8
REMARK VINA RESULT:      -4.8      3.467      6.019
REMARK  4 active torsions:
REMARK  status: ('A' for Active; 'I' for Inactive)
REMARK    1  A    between atoms: O_3  and  N_9 
REMARK    2  A    between atoms: C_13  and  O_3 
REMARK    3  A    between atoms: O_4  and  N_10 
REMARK    4  A    between atoms: C_14  and  O_4 
ROOT
HETATM    1  O   UNK N   1      32.357  15.609   7.018  0.00  0.00    -0.378 OA
HETATM    2  O   UNK N   1      32.538  18.292   8.205  0.00  0.00    -0.378 OA
HETATM    3  C   UNK N   1      32.065  17.118   8.819  0.00  0.00     0.186 C 
HETATM    4  C   UNK N   1      32.911  16.000   8.261  0.00  0.00     0.186 C 
HETATM    5  C   UNK N   1      30.720  16.698   8.312  0.00  0.00     0.214 C 
HETATM    6  C   UNK N   1      34.237  16.667   8.001  0.00  0.00     0.214 C 
HETATM    7  C   UNK N   1      31.070  16.178   6.941  0.00  0.00     0.205 C 
HETATM    8  C   UNK N   1      33.937  18.137   8.255  0.00  0.00     0.205 C 
ENDROOT
BRANCH   5   9
HETATM    9  O   UNK N   1      29.811  17.736   8.256  0.00  0.00    -0.211 OA
BRANCH   9  10
HETATM   10  N   UNK N   1      29.079  18.088   9.303  0.00  0.00     0.005 N 
HETATM   11  O   UNK N   1      27.860  17.617   9.432  0.00  0.00    -0.511 OA
HETATM   12  O   UNK N   1      29.503  18.859  10.115  0.00  0.00    -0.511 OA
ENDBRANCH   9  10
ENDBRANCH   5   9
BRANCH   6  13
HETATM   13  O   UNK N   1      35.228  16.168   8.822  0.00  0.00    -0.211 OA
BRANCH  13  14
HETATM   14  N   UNK N   1      35.327  16.487  10.104  0.00  0.00     0.005 N 
HETATM   15  O   UNK N   1      34.795  15.698  11.010  0.00  0.00    -0.511 OA
HETATM   16  O   UNK N   1      35.947  17.449  10.451  0.00  0.00    -0.511 OA
ENDBRANCH  13  14
ENDBRANCH   6  13
TORSDOF 4
ENDMDL
MODEL 9
REMARK VINA RESULT:      -4.8      3.499      6.695
REMARK  4 active torsions:
REMARK  status: ('A' for Active; 'I' for Inactive)
REMARK    1  A    between atoms: O_3  and  N_9 
REMARK    2  A    between atoms: C_13  and  O_3 
REMARK    3  A    between atoms: O_4  and  N_10 
REMARK    4  A    between atoms: C_14  and  O_4 
ROOT
HETATM    1  O   UNK N   1      32.816  15.188   8.087  0.00  0.00    -0.378 OA
HETATM    2  O   UNK N   1      33.134  17.947   7.127  0.00  0.00    -0.378 OA
HETATM    3  C   UNK N   1      32.200  17.473   8.067  0.00  0.00     0.186 C 
HETATM    4  C   UNK N   1      32.913  16.387   8.834  0.00  0.00     0.186 C 
HETATM    5  C   UNK N   1      31.104  16.667   7.442  0.00  0.00     0.214 C 
HETATM    6  C   UNK N   1      34.350  16.839   8.819  0.00  0.00     0.214 C 
HETATM    7  C   UNK N   1      31.832  15.393   7.099  0.00  0.00     0.205 C 
HETATM    8  C   UNK N   1      34.324  18.033   7.876  0.00  0.00     0.205 C 
ENDROOT
BRANCH   5   9
HETATM    9  O   UNK N   1      30.557  17.267   6.325  0.00  0.00    -0.211 OA
BRANCH   9  10
HETATM   10  N   UNK N   1      29.248  17.318   6.122  0.00  0.00     0.005 N 
HETATM   11  O   UNK N   1      28.652  18.483   6.015  0.00  0.00    -0.511 OA
HETATM   12  O   UNK N   1      28.597  16.315   6.070  0.00  0.00    -0.511 OA
ENDBRANCH   9  10
ENDBRANCH   5   9
BRANCH   6  13
HETATM   13  O   UNK N   1      34.795  17.162  10.086  0.00  0.00    -0.211 OA
BRANCH  13  14
HETATM   14  N   UNK N   1      35.519  16.334  10.825  0.00  0.00     0.005 N 
HETATM   15  O   UNK N   1      34.914  15.445  11.581  0.00  0.00    -0.511 OA
HETATM   16  O   UNK N   1      36.713  16.344  10.766  0.00  0.00    -0.511 OA
ENDBRANCH  13  14
ENDBRANCH   6  13
TORSDOF 4
ENDMDL
