MODEL 1
REMARK VINA RESULT:      -5.5      0.000      0.000
REMARK  9 active torsions:
REMARK  status: ('A' for Active; 'I' for Inactive)
REMARK    1  A    between atoms: P_1  and  O_4 
REMARK    2  A    between atoms: P_1  and  O_5 
REMARK    3  A    between atoms: P_1  and  C_12 
REMARK    4  A    between atoms: P_2  and  O_6 
REMARK    5  A    between atoms: P_2  and  O_7 
REMARK    6  A    between atoms: P_2  and  C_12 
REMARK    7  A    between atoms: O_3  and  C_12 
REMARK    8  A    between atoms: C_12  and  C_13 
REMARK    9  A    between atoms: C_13  and  C_14 
ROOT
HETATM    1  C   UNK N   1      34.386  16.176   8.780  0.00  0.00     0.256 C 
ENDROOT
BRANCH   1   2
HETATM    2  P   UNK N   1      34.155  17.828   7.944  0.00  0.00     0.284 P 
HETATM    3  O   UNK N   1      32.733  18.380   8.229  0.00  0.00    -0.651 OA
BRANCH   2   4
HETATM    4  O   UNK N   1      35.209  19.089   8.501  0.00  0.00    -0.327 OA
HETATM    5  H   UNK N   1      35.601  19.901   8.143  0.00  0.00     0.220 HD
ENDBRANCH   2   4
BRANCH   2   6
HETATM    6  O   UNK N   1      34.256  17.814   6.211  0.00  0.00    -0.327 OA
HETATM    7  H   UNK N   1      35.015  18.168   5.722  0.00  0.00     0.220 HD
ENDBRANCH   2   6
ENDBRANCH   1   2
BRANCH   1   8
HETATM    8  P   UNK N   1      32.763  15.272   8.837  0.00  0.00     0.284 P 
HETATM    9  O   UNK N   1      32.956  13.755   8.569  0.00  0.00    -0.651 OA
BRANCH   8  10
HETATM   10  O   UNK N   1      31.924  15.344  10.353  0.00  0.00    -0.327 OA
HETATM   11  H   UNK N   1      32.083  15.599  11.275  0.00  0.00     0.220 HD
ENDBRANCH   8  10
BRANCH   8  12
HETATM   12  O   UNK N   1      31.637  15.775   7.615  0.00  0.00    -0.327 OA
HETATM   13  H   UNK N   1      30.934  15.206   7.263  0.00  0.00     0.220 HD
ENDBRANCH   8  12
ENDBRANCH   1   8
BRANCH   1  14
HETATM   14  O   UNK N   1      35.291  15.406   8.043  0.00  0.00    -0.368 OA
HETATM   15  H   UNK N   1      35.560  15.188   7.137  0.00  0.00     0.212 HD
ENDBRANCH   1  14
BRANCH   1  16
HETATM   16  C   UNK N   1      34.857  16.362  10.228  0.00  0.00     0.103 C 
BRANCH  16  17
HETATM   17  C   UNK N   1      35.614  15.204  10.797  0.00  0.00    -0.039 A 
HETATM   18  C   UNK N   1      34.978  14.358  11.706  0.00  0.00     0.010 A 
HETATM   19  C   UNK N   1      35.662  13.264  12.232  0.00  0.00     0.018 A 
HETATM   20  C   UNK N   1      36.984  13.034  11.842  0.00  0.00     0.087 A 
HETATM   21  N   UNK N   1      37.591  13.872  10.957  0.00  0.00    -0.375 N 
HETATM   22  C   UNK N   1      36.938  14.943  10.430  0.00  0.00     0.094 A 
ATOM     23  HN  UNK N   1      38.558  13.694  10.685  1.00  0.00     0.164 HD
ENDBRANCH  16  17
ENDBRANCH   1  16
TORSDOF 9
ENDMDL
MODEL 2
REMARK VINA RESULT:      -5.5      4.058      6.040
REMARK  9 active torsions:
REMARK  status: ('A' for Active; 'I' for Inactive)
REMARK    1  A    between atoms: P_1  and  O_4 
REMARK    2  A    between atoms: P_1  and  O_5 
REMARK    3  A    between atoms: P_1  and  C_12 
REMARK    4  A    between atoms: P_2  and  O_6 
REMARK    5  A    between atoms: P_2  and  O_7 
REMARK    6  A    between atoms: P_2  and  C_12 
REMARK    7  A    between atoms: O_3  and  C_12 
REMARK    8  A    between atoms: C_12  and  C_13 
REMARK    9  A    between atoms: C_13  and  C_14 
ROOT
HETATM    1  C   UNK N   1      32.839  16.420   8.216  0.00  0.00     0.256 C 
ENDROOT
BRANCH   1   2
HETATM    2  P   UNK N   1      33.909  15.888   9.648  0.00  0.00     0.284 P 
HETATM    3  O   UNK N   1      35.004  14.901   9.164  0.00  0.00    -0.651 OA
BRANCH   2   4
HETATM    4  O   UNK N   1      34.807  17.163  10.409  0.00  0.00    -0.327 OA
HETATM    5  H   UNK N   1      35.134  18.046  10.171  0.00  0.00     0.220 HD
ENDBRANCH   2   4
BRANCH   2   6
HETATM    6  O   UNK N   1      33.095  15.019  10.912  0.00  0.00    -0.327 OA
HETATM    7  H   UNK N   1      32.166  14.749  10.854  0.00  0.00     0.220 HD
ENDBRANCH   2   6
ENDBRANCH   1   2
BRANCH   1   8
HETATM    8  P   UNK N   1      33.913  16.881   6.771  0.00  0.00     0.284 P 
HETATM    9  O   UNK N   1      34.626  18.239   7.012  0.00  0.00    -0.651 OA
BRANCH   8  10
HETATM   10  O   UNK N   1      35.198  15.772   6.415  0.00  0.00    -0.327 OA
HETATM   11  H   UNK N   1      35.617  14.979   6.787  0.00  0.00     0.220 HD
ENDBRANCH   8  10
BRANCH   8  12
HETATM   12  O   UNK N   1      33.035  17.122   5.293  0.00  0.00    -0.327 OA
HETATM   13  H   UNK N   1      33.125  16.551   4.513  0.00  0.00     0.220 HD
ENDBRANCH   8  12
ENDBRANCH   1   8
BRANCH   1  14
HETATM   14  O   UNK N   1      32.019  15.356   7.829  0.00  0.00    -0.368 OA
HETATM   15  H   UNK N   1      31.149  15.149   7.453  0.00  0.00     0.212 HD
ENDBRANCH   1  14
BRANCH   1  16
HETATM   16  C   UNK N   1      32.014  17.659   8.585  0.00  0.00     0.103 C 
BRANCH  16  17
HETATM   17  C   UNK N   1      30.537  17.508   8.405  0.00  0.00    -0.039 A 
HETATM   18  C   UNK N   1      30.007  17.500   7.114  0.00  0.00     0.010 A 
HETATM   19  C   UNK N   1      28.635  17.342   6.928  0.00  0.00     0.018 A 
HETATM   20  C   UNK N   1      27.807  17.198   8.043  0.00  0.00     0.087 A 
HETATM   21  N   UNK N   1      28.339  17.213   9.296  0.00  0.00    -0.375 N 
HETATM   22  C   UNK N   1      29.677  17.362   9.498  0.00  0.00     0.094 A 
ATOM     23  HN  UNK N   1      27.721  17.112  10.102  1.00  0.00     0.164 HD
ENDBRANCH  16  17
ENDBRANCH   1  16
TORSDOF 9
ENDMDL
MODEL 3
REMARK VINA RESULT:      -5.4      1.090      3.267
REMARK  9 active torsions:
REMARK  status: ('A' for Active; 'I' for Inactive)
REMARK    1  A    between atoms: P_1  and  O_4 
REMARK    2  A    between atoms: P_1  and  O_5 
REMARK    3  A    between atoms: P_1  and  C_12 
REMARK    4  A    between atoms: P_2  and  O_6 
REMARK    5  A    between atoms: P_2  and  O_7 
REMARK    6  A    between atoms: P_2  and  C_12 
REMARK    7  A    between atoms: O_3  and  C_12 
REMARK    8  A    between atoms: C_12  and  C_13 
REMARK    9  A    between atoms: C_13  and  C_14 
ROOT
HETATM    1  C   UNK N   1      34.130  16.026   9.209  0.00  0.00     0.256 C 
ENDROOT
BRANCH   1   2
HETATM    2  P   UNK N   1      32.440  15.253   9.054  0.00  0.00     0.284 P 
HETATM    3  O   UNK N   1      31.568  16.061   8.056  0.00  0.00    -0.651 OA
BRANCH   2   4
HETATM    4  O   UNK N   1      32.423  13.642   8.408  0.00  0.00    -0.327 OA
HETATM    5  H   UNK N   1      32.877  13.152   7.704  0.00  0.00     0.220 HD
ENDBRANCH   2   4
BRANCH   2   6
HETATM    6  O   UNK N   1      31.490  15.224  10.507  0.00  0.00    -0.327 OA
HETATM    7  H   UNK N   1      31.866  15.377  11.388  0.00  0.00     0.220 HD
ENDBRANCH   2   6
ENDBRANCH   1   2
BRANCH   1   8
HETATM    8  P   UNK N   1      34.180  17.617   8.251  0.00  0.00     0.284 P 
HETATM    9  O   UNK N   1      35.227  18.598   8.845  0.00  0.00    -0.651 OA
BRANCH   8  10
HETATM   10  O   UNK N   1      34.622  17.467   6.580  0.00  0.00    -0.327 OA
HETATM   11  H   UNK N   1      34.481  16.870   5.828  0.00  0.00     0.220 HD
ENDBRANCH   8  10
BRANCH   8  12
HETATM   12  O   UNK N   1      32.692  18.511   8.297  0.00  0.00    -0.327 OA
HETATM   13  H   UNK N   1      31.849  18.139   8.603  0.00  0.00     0.220 HD
ENDBRANCH   8  12
ENDBRANCH   1   8
BRANCH   1  14
HETATM   14  O   UNK N   1      34.386  16.316  10.553  0.00  0.00    -0.368 OA
HETATM   15  H   UNK N   1      34.668  15.914  11.389  0.00  0.00     0.212 HD
ENDBRANCH   1  14
BRANCH   1  16
HETATM   16  C   UNK N   1      35.205  15.104   8.619  0.00  0.00     0.103 C 
BRANCH  16  17
HETATM   17  C   UNK N   1      35.956  14.290   9.625  0.00  0.00    -0.039 A 
HETATM   18  C   UNK N   1      35.367  13.136  10.142  0.00  0.00     0.010 A 
HETATM   19  C   UNK N   1      36.061  12.356  11.066  0.00  0.00     0.018 A 
HETATM   20  C   UNK N   1      37.340  12.749  11.466  0.00  0.00     0.087 A 
HETATM   21  N   UNK N   1      37.898  13.881  10.956  0.00  0.00    -0.375 N 
HETATM   22  C   UNK N   1      37.238  14.653  10.050  0.00  0.00     0.094 A 
ATOM     23  HN  UNK N   1      38.831  14.158  11.261  1.00  0.00     0.164 HD
ENDBRANCH  16  17
ENDBRANCH   1  16
TORSDOF 9
ENDMDL
MODEL 4
REMARK VINA RESULT:      -5.3      4.085      4.978
REMARK  9 active torsions:
REMARK  status: ('A' for Active; 'I' for Inactive)
REMARK    1  A    between atoms: P_1  and  O_4 
REMARK    2  A    between atoms: P_1  and  O_5 
REMARK    3  A    between atoms: P_1  and  C_12 
REMARK    4  A    between atoms: P_2  and  O_6 
REMARK    5  A    between atoms: P_2  and  O_7 
REMARK    6  A    between atoms: P_2  and  C_12 
REMARK    7  A    between atoms: O_3  and  C_12 
REMARK    8  A    between atoms: C_12  and  C_13 
REMARK    9  A    between atoms: C_13  and  C_14 
ROOT
HETATM    1  C   UNK N   1      35.156  14.001  11.294  0.00  0.00     0.256 C 
ENDROOT
BRANCH   1   2
HETATM    2  P   UNK N   1      35.725  15.581  10.483  0.00  0.00     0.284 P 
HETATM    3  O   UNK N   1      35.518  15.501   8.946  0.00  0.00    -0.651 OA
BRANCH   2   4
HETATM    4  O   UNK N   1      34.847  17.004  10.946  0.00  0.00    -0.327 OA
HETATM    5  H   UNK N   1      34.337  17.309  11.714  0.00  0.00     0.220 HD
ENDBRANCH   2   4
BRANCH   2   6
HETATM    6  O   UNK N   1      37.413  15.949  10.656  0.00  0.00    -0.327 OA
HETATM    7  H   UNK N   1      38.074  15.732   9.981  0.00  0.00     0.220 HD
ENDBRANCH   2   6
ENDBRANCH   1   2
BRANCH   1   8
HETATM    8  P   UNK N   1      35.964  13.826  12.959  0.00  0.00     0.284 P 
HETATM    9  O   UNK N   1      34.941  13.375  14.035  0.00  0.00    -0.651 OA
BRANCH   8  10
HETATM   10  O   UNK N   1      37.238  12.652  13.049  0.00  0.00    -0.327 OA
HETATM   11  H   UNK N   1      37.525  11.914  13.609  0.00  0.00     0.220 HD
ENDBRANCH   8  10
BRANCH   8  12
HETATM   12  O   UNK N   1      36.606  15.312  13.586  0.00  0.00    -0.327 OA
HETATM   13  H   UNK N   1      36.991  15.401  14.473  0.00  0.00     0.220 HD
ENDBRANCH   8  12
ENDBRANCH   1   8
BRANCH   1  14
HETATM   14  O   UNK N   1      33.772  14.049  11.483  0.00  0.00    -0.368 OA
HETATM   15  H   UNK N   1      33.086  14.049  12.168  0.00  0.00     0.212 HD
ENDBRANCH   1  14
BRANCH   1  16
HETATM   16  C   UNK N   1      35.567  12.782  10.458  0.00  0.00     0.103 C 
BRANCH  16  17
HETATM   17  C   UNK N   1      34.491  11.761  10.263  0.00  0.00    -0.039 A 
HETATM   18  C   UNK N   1      34.360  10.728  11.191  0.00  0.00     0.010 A 
HETATM   19  C   UNK N   1      33.351   9.778  11.036  0.00  0.00     0.018 A 
HETATM   20  C   UNK N   1      32.487   9.875   9.943  0.00  0.00     0.087 A 
HETATM   21  N   UNK N   1      32.631  10.886   9.043  0.00  0.00    -0.375 N 
HETATM   22  C   UNK N   1      33.607  11.825   9.181  0.00  0.00     0.094 A 
ATOM     23  HN  UNK N   1      31.996  10.942   8.248  1.00  0.00     0.164 HD
ENDBRANCH  16  17
ENDBRANCH   1  16
TORSDOF 9
ENDMDL
MODEL 5
REMARK VINA RESULT:      -5.3      3.650      5.975
REMARK  9 active torsions:
REMARK  status: ('A' for Active; 'I' for Inactive)
REMARK    1  A    between atoms: P_1  and  O_4 
REMARK    2  A    between atoms: P_1  and  O_5 
REMARK    3  A    between atoms: P_1  and  C_12 
REMARK    4  A    between atoms: P_2  and  O_6 
REMARK    5  A    between atoms: P_2  and  O_7 
REMARK    6  A    between atoms: P_2  and  C_12 
REMARK    7  A    between atoms: O_3  and  C_12 
REMARK    8  A    between atoms: C_12  and  C_13 
REMARK    9  A    between atoms: C_13  and  C_14 
ROOT
HETATM    1  C   UNK N   1      33.634  15.545   7.915  0.00  0.00     0.256 C 
ENDROOT
BRANCH   1   2
HETATM    2  P   UNK N   1      33.529  14.356   9.348  0.00  0.00     0.284 P 
HETATM    3  O   UNK N   1      34.921  13.729   9.630  0.00  0.00    -0.651 OA
BRANCH   2   4
HETATM    4  O   UNK N   1      33.082  15.070  10.866  0.00  0.00    -0.327 OA
HETATM    5  H   UNK N   1      33.338  15.843  11.393  0.00  0.00     0.220 HD
ENDBRANCH   2   4
BRANCH   2   6
HETATM    6  O   UNK N   1      32.494  12.983   9.111  0.00  0.00    -0.327 OA
HETATM    7  H   UNK N   1      32.626  12.338   8.399  0.00  0.00     0.220 HD
ENDBRANCH   2   6
ENDBRANCH   1   2
BRANCH   1   8
HETATM    8  P   UNK N   1      33.842  17.278   8.555  0.00  0.00     0.284 P 
HETATM    9  O   UNK N   1      34.650  17.293   9.880  0.00  0.00    -0.651 OA
BRANCH   8  10
HETATM   10  O   UNK N   1      34.703  18.360   7.507  0.00  0.00    -0.327 OA
HETATM   11  H   UNK N   1      35.233  18.338   6.695  0.00  0.00     0.220 HD
ENDBRANCH   8  10
BRANCH   8  12
HETATM   12  O   UNK N   1      32.347  18.059   8.963  0.00  0.00    -0.327 OA
HETATM   13  H   UNK N   1      31.579  18.096   8.372  0.00  0.00     0.220 HD
ENDBRANCH   8  12
ENDBRANCH   1   8
BRANCH   1  14
HETATM   14  O   UNK N   1      34.749  15.231   7.132  0.00  0.00    -0.368 OA
HETATM   15  H   UNK N   1      35.663  14.912   7.184  0.00  0.00     0.212 HD
ENDBRANCH   1  14
BRANCH   1  16
HETATM   16  C   UNK N   1      32.341  15.515   7.090  0.00  0.00     0.103 C 
BRANCH  16  17
HETATM   17  C   UNK N   1      32.515  15.833   5.638  0.00  0.00    -0.039 A 
HETATM   18  C   UNK N   1      32.427  17.160   5.218  0.00  0.00     0.010 A 
HETATM   19  C   UNK N   1      32.604  17.476   3.872  0.00  0.00     0.018 A 
HETATM   20  C   UNK N   1      32.863  16.450   2.959  0.00  0.00     0.087 A 
HETATM   21  N   UNK N   1      32.941  15.159   3.385  0.00  0.00    -0.375 N 
HETATM   22  C   UNK N   1      32.775  14.832   4.696  0.00  0.00     0.094 A 
ATOM     23  HN  UNK N   1      33.126  14.421   2.707  1.00  0.00     0.164 HD
ENDBRANCH  16  17
ENDBRANCH   1  16
TORSDOF 9
ENDMDL
MODEL 6
REMARK VINA RESULT:      -5.2      1.818      3.711
REMARK  9 active torsions:
REMARK  status: ('A' for Active; 'I' for Inactive)
REMARK    1  A    between atoms: P_1  and  O_4 
REMARK    2  A    between atoms: P_1  and  O_5 
REMARK    3  A    between atoms: P_1  and  C_12 
REMARK    4  A    between atoms: P_2  and  O_6 
REMARK    5  A    between atoms: P_2  and  O_7 
REMARK    6  A    between atoms: P_2  and  C_12 
REMARK    7  A    between atoms: O_3  and  C_12 
REMARK    8  A    between atoms: C_12  and  C_13 
REMARK    9  A    between atoms: C_13  and  C_14 
ROOT
HETATM    1  C   UNK N   1      33.972  14.815   9.946  0.00  0.00     0.256 C 
ENDROOT
BRANCH   1   2
HETATM    2  P   UNK N   1      33.222  13.613   8.733  0.00  0.00     0.284 P 
HETATM    3  O   UNK N   1      34.332  12.966   7.861  0.00  0.00    -0.651 OA
BRANCH   2   4
HETATM    4  O   UNK N   1      32.411  12.256   9.447  0.00  0.00    -0.327 OA
HETATM    5  H   UNK N   1      31.893  11.493   9.143  0.00  0.00     0.220 HD
ENDBRANCH   2   4
BRANCH   2   6
HETATM    6  O   UNK N   1      32.130  14.301   7.572  0.00  0.00    -0.327 OA
HETATM    7  H   UNK N   1      31.548  15.049   7.772  0.00  0.00     0.220 HD
ENDBRANCH   2   6
ENDBRANCH   1   2
BRANCH   1   8
HETATM    8  P   UNK N   1      34.144  16.485   9.148  0.00  0.00     0.284 P 
HETATM    9  O   UNK N   1      34.609  16.356   7.672  0.00  0.00    -0.651 OA
BRANCH   8  10
HETATM   10  O   UNK N   1      32.687  17.424   9.065  0.00  0.00    -0.327 OA
HETATM   11  H   UNK N   1      31.740  17.339   9.259  0.00  0.00     0.220 HD
ENDBRANCH   8  10
BRANCH   8  12
HETATM   12  O   UNK N   1      35.350  17.494   9.883  0.00  0.00    -0.327 OA
HETATM   13  H   UNK N   1      36.267  17.215  10.033  0.00  0.00     0.220 HD
ENDBRANCH   8  12
ENDBRANCH   1   8
BRANCH   1  14
HETATM   14  O   UNK N   1      33.128  14.944  11.053  0.00  0.00    -0.368 OA
HETATM   15  H   UNK N   1      32.227  14.763  11.361  0.00  0.00     0.212 HD
ENDBRANCH   1  14
BRANCH   1  16
HETATM   16  C   UNK N   1      35.378  14.361  10.361  0.00  0.00     0.103 C 
BRANCH  16  17
HETATM   17  C   UNK N   1      35.475  13.805  11.747  0.00  0.00    -0.039 A 
HETATM   18  C   UNK N   1      36.044  14.585  12.754  0.00  0.00     0.010 A 
HETATM   19  C   UNK N   1      36.126  14.090  14.054  0.00  0.00     0.018 A 
HETATM   20  C   UNK N   1      35.639  12.810  14.328  0.00  0.00     0.087 A 
HETATM   21  N   UNK N   1      35.091  12.059  13.333  0.00  0.00    -0.375 N 
HETATM   22  C   UNK N   1      34.998  12.527  12.058  0.00  0.00     0.094 A 
ATOM     23  HN  UNK N   1      34.744  11.124  13.547  1.00  0.00     0.164 HD
ENDBRANCH  16  17
ENDBRANCH   1  16
TORSDOF 9
ENDMDL
MODEL 7
REMARK VINA RESULT:      -5.2      3.075      4.863
REMARK  9 active torsions:
REMARK  status: ('A' for Active; 'I' for Inactive)
REMARK    1  A    between atoms: P_1  and  O_4 
REMARK    2  A    between atoms: P_1  and  O_5 
REMARK    3  A    between atoms: P_1  and  C_12 
REMARK    4  A    between atoms: P_2  and  O_6 
REMARK    5  A    between atoms: P_2  and  O_7 
REMARK    6  A    between atoms: P_2  and  C_12 
REMARK    7  A    between atoms: O_3  and  C_12 
REMARK    8  A    between atoms: C_12  and  C_13 
REMARK    9  A    between atoms: C_13  and  C_14 
ROOT
HETATM    1  C   UNK N   1      34.434  16.033   8.530  0.00  0.00     0.256 C 
ENDROOT
BRANCH   1   2
HETATM    2  P   UNK N   1      35.178  16.065  10.240  0.00  0.00     0.284 P 
HETATM    3  O   UNK N   1      35.242  17.522  10.771  0.00  0.00    -0.651 OA
BRANCH   2   4
HETATM    4  O   UNK N   1      34.268  15.221  11.454  0.00  0.00    -0.327 OA
HETATM    5  H   UNK N   1      33.884  15.419  12.323  0.00  0.00     0.220 HD
ENDBRANCH   2   4
BRANCH   2   6
HETATM    6  O   UNK N   1      36.817  15.506  10.358  0.00  0.00    -0.327 OA
HETATM    7  H   UNK N   1      37.111  14.866  11.025  0.00  0.00     0.220 HD
ENDBRANCH   2   6
ENDBRANCH   1   2
BRANCH   1   8
HETATM    8  P   UNK N   1      34.185  17.772   7.924  0.00  0.00     0.284 P 
HETATM    9  O   UNK N   1      32.796  18.320   8.347  0.00  0.00    -0.651 OA
BRANCH   8  10
HETATM   10  O   UNK N   1      35.317  18.940   8.528  0.00  0.00    -0.327 OA
HETATM   11  H   UNK N   1      36.015  19.017   9.197  0.00  0.00     0.220 HD
ENDBRANCH   8  10
BRANCH   8  12
HETATM   12  O   UNK N   1      34.187  17.919   6.194  0.00  0.00    -0.327 OA
HETATM   13  H   UNK N   1      34.137  18.768   5.726  0.00  0.00     0.220 HD
ENDBRANCH   8  12
ENDBRANCH   1   8
BRANCH   1  14
HETATM   14  O   UNK N   1      35.312  15.386   7.655  0.00  0.00    -0.368 OA
HETATM   15  H   UNK N   1      36.189  15.460   7.246  0.00  0.00     0.212 HD
ENDBRANCH   1  14
BRANCH   1  16
HETATM   16  C   UNK N   1      33.059  15.354   8.548  0.00  0.00     0.103 C 
BRANCH  16  17
HETATM   17  C   UNK N   1      32.849  14.328   7.480  0.00  0.00    -0.039 A 
HETATM   18  C   UNK N   1      32.307  14.723   6.256  0.00  0.00     0.010 A 
HETATM   19  C   UNK N   1      32.122  13.784   5.243  0.00  0.00     0.018 A 
HETATM   20  C   UNK N   1      32.479  12.454   5.473  0.00  0.00     0.087 A 
HETATM   21  N   UNK N   1      33.002  12.083   6.674  0.00  0.00    -0.375 N 
HETATM   22  C   UNK N   1      33.195  12.987   7.674  0.00  0.00     0.094 A 
ATOM     23  HN  UNK N   1      33.254  11.107   6.829  1.00  0.00     0.164 HD
ENDBRANCH  16  17
ENDBRANCH   1  16
TORSDOF 9
ENDMDL
MODEL 8
REMARK VINA RESULT:      -5.2      4.220      5.853
REMARK  9 active torsions:
REMARK  status: ('A' for Active; 'I' for Inactive)
REMARK    1  A    between atoms: P_1  and  O_4 
REMARK    2  A    between atoms: P_1  and  O_5 
REMARK    3  A    between atoms: P_1  and  C_12 
REMARK    4  A    between atoms: P_2  and  O_6 
REMARK    5  A    between atoms: P_2  and  O_7 
REMARK    6  A    between atoms: P_2  and  C_12 
REMARK    7  A    between atoms: O_3  and  C_12 
REMARK    8  A    between atoms: C_12  and  C_13 
REMARK    9  A    between atoms: C_13  and  C_14 
ROOT
HETATM    1  C   UNK N   1      32.478  16.021   8.073  0.00  0.00     0.256 C 
ENDROOT
BRANCH   1   2
HETATM    2  P   UNK N   1      34.190  16.709   8.348  0.00  0.00     0.284 P 
HETATM    3  O   UNK N   1      35.257  15.605   8.117  0.00  0.00    -0.651 OA
BRANCH   2   4
HETATM    4  O   UNK N   1      34.659  17.974   7.255  0.00  0.00    -0.327 OA
HETATM    5  H   UNK N   1      34.220  18.667   6.736  0.00  0.00     0.220 HD
ENDBRANCH   2   4
BRANCH   2   6
HETATM    6  O   UNK N   1      34.522  17.280   9.953  0.00  0.00    -0.327 OA
HETATM    7  H   UNK N   1      35.421  17.382  10.303  0.00  0.00     0.220 HD
ENDBRANCH   2   6
ENDBRANCH   1   2
BRANCH   1   8
HETATM    8  P   UNK N   1      32.591  14.423   7.130  0.00  0.00     0.284 P 
HETATM    9  O   UNK N   1      31.297  14.162   6.313  0.00  0.00    -0.651 OA
BRANCH   8  10
HETATM   10  O   UNK N   1      33.870  14.337   5.961  0.00  0.00    -0.327 OA
HETATM   11  H   UNK N   1      34.810  14.562   5.875  0.00  0.00     0.220 HD
ENDBRANCH   8  10
BRANCH   8  12
HETATM   12  O   UNK N   1      32.740  13.021   8.141  0.00  0.00    -0.327 OA
HETATM   13  H   UNK N   1      31.986  12.483   8.432  0.00  0.00     0.220 HD
ENDBRANCH   8  12
ENDBRANCH   1   8
BRANCH   1  14
HETATM   14  O   UNK N   1      31.880  15.758   9.309  0.00  0.00    -0.368 OA
HETATM   15  H   UNK N   1      31.079  15.395   9.718  0.00  0.00     0.212 HD
ENDBRANCH   1  14
BRANCH   1  16
HETATM   16  C   UNK N   1      31.633  16.988   7.235  0.00  0.00     0.103 C 
BRANCH  16  17
HETATM   17  C   UNK N   1      30.362  17.438   7.885  0.00  0.00    -0.039 A 
HETATM   18  C   UNK N   1      30.427  18.322   8.962  0.00  0.00     0.010 A 
HETATM   19  C   UNK N   1      29.252  18.766   9.568  0.00  0.00     0.018 A 
HETATM   20  C   UNK N   1      28.023  18.311   9.086  0.00  0.00     0.087 A 
HETATM   21  N   UNK N   1      27.977  17.444   8.038  0.00  0.00    -0.375 N 
HETATM   22  C   UNK N   1      29.113  17.003   7.431  0.00  0.00     0.094 A 
ATOM     23  HN  UNK N   1      27.073  17.116   7.700  1.00  0.00     0.164 HD
ENDBRANCH  16  17
ENDBRANCH   1  16
TORSDOF 9
ENDMDL
MODEL 9
REMARK VINA RESULT:      -5.2      3.695      5.522
REMARK  9 active torsions:
REMARK  status: ('A' for Active; 'I' for Inactive)
REMARK    1  A    between atoms: P_1  and  O_4 
REMARK    2  A    between atoms: P_1  and  O_5 
REMARK    3  A    between atoms: P_1  and  C_12 
REMARK    4  A    between atoms: P_2  and  O_6 
REMARK    5  A    between atoms: P_2  and  O_7 
REMARK    6  A    between atoms: P_2  and  C_12 
REMARK    7  A    between atoms: O_3  and  C_12 
REMARK    8  A    between atoms: C_12  and  C_13 
REMARK    9  A    between atoms: C_13  and  C_14 
ROOT
HETATM    1  C   UNK N   1      33.258  15.825   8.131  0.00  0.00     0.256 C 
ENDROOT
BRANCH   1   2
HETATM    2  P   UNK N   1      31.618  16.670   8.407  0.00  0.00     0.284 P 
HETATM    3  O   UNK N   1      31.809  18.210   8.458  0.00  0.00    -0.651 OA
BRANCH   2   4
HETATM    4  O   UNK N   1      30.449  16.439   7.146  0.00  0.00    -0.327 OA
HETATM    5  H   UNK N   1      30.199  15.735   6.526  0.00  0.00     0.220 HD
ENDBRANCH   2   4
BRANCH   2   6
HETATM    6  O   UNK N   1      30.825  16.300   9.906  0.00  0.00    -0.327 OA
HETATM    7  H   UNK N   1      31.299  16.206  10.746  0.00  0.00     0.220 HD
ENDBRANCH   2   6
ENDBRANCH   1   2
BRANCH   1   8
HETATM    8  P   UNK N   1      34.175  15.699   9.743  0.00  0.00     0.284 P 
HETATM    9  O   UNK N   1      35.423  14.785   9.608  0.00  0.00    -0.651 OA
BRANCH   8  10
HETATM   10  O   UNK N   1      34.795  17.194  10.365  0.00  0.00    -0.327 OA
HETATM   11  H   UNK N   1      34.872  18.127  10.110  0.00  0.00     0.220 HD
ENDBRANCH   8  10
BRANCH   8  12
HETATM   12  O   UNK N   1      33.254  14.967  11.019  0.00  0.00    -0.327 OA
HETATM   13  H   UNK N   1      32.286  15.011  11.078  0.00  0.00     0.220 HD
ENDBRANCH   8  12
ENDBRANCH   1   8
BRANCH   1  14
HETATM   14  O   UNK N   1      33.037  14.530   7.651  0.00  0.00    -0.368 OA
HETATM   15  H   UNK N   1      32.379  13.819   7.623  0.00  0.00     0.212 HD
ENDBRANCH   1  14
BRANCH   1  16
HETATM   16  C   UNK N   1      34.133  16.639   7.170  0.00  0.00     0.103 C 
BRANCH  16  17
HETATM   17  C   UNK N   1      33.784  16.490   5.723  0.00  0.00    -0.039 A 
HETATM   18  C   UNK N   1      33.043  17.492   5.096  0.00  0.00     0.010 A 
HETATM   19  C   UNK N   1      32.724  17.378   3.744  0.00  0.00     0.018 A 
HETATM   20  C   UNK N   1      33.150  16.252   3.035  0.00  0.00     0.087 A 
HETATM   21  N   UNK N   1      33.868  15.280   3.663  0.00  0.00    -0.375 N 
HETATM   22  C   UNK N   1      34.192  15.376   4.981  0.00  0.00     0.094 A 
ATOM     23  HN  UNK N   1      34.168  14.461   3.134  1.00  0.00     0.164 HD
ENDBRANCH  16  17
ENDBRANCH   1  16
TORSDOF 9
ENDMDL
