MODEL 1
REMARK VINA RESULT:      -6.8      0.000      0.000
REMARK  1 active torsions:
REMARK  status: ('A' for Active; 'I' for Inactive)
REMARK    1  A    between atoms: C_14  and  C_20 
ROOT
HETATM    1  O   UNK N   1      34.610  17.362   6.306  0.00  0.00    -0.267 OA
HETATM    2  N   UNK N   1      32.524  17.073   5.503  0.00  0.00    -0.274 N 
HETATM    3  N   UNK N   1      30.773  16.661   7.050  0.00  0.00    -0.350 N 
ATOM      4  HN  UNK N   1      29.786  16.481   7.232  1.00  0.00     0.166 HD
HETATM    5  C   UNK N   1      31.194  16.830   5.767  0.00  0.00     0.120 A 
HETATM    6  C   UNK N   1      30.272  16.756   4.712  0.00  0.00    -0.017 A 
HETATM    7  C   UNK N   1      33.429  17.146   6.539  0.00  0.00     0.268 A 
HETATM    8  C   UNK N   1      32.992  16.971   7.862  0.00  0.00     0.094 A 
HETATM    9  C   UNK N   1      32.955  17.244   4.218  0.00  0.00     0.102 A 
HETATM   10  C   UNK N   1      30.715  16.930   3.403  0.00  0.00     0.012 A 
HETATM   11  C   UNK N   1      31.639  16.726   8.090  0.00  0.00     0.110 A 
HETATM   12  C   UNK N   1      32.062  17.176   3.152  0.00  0.00     0.018 A 
HETATM   13  C   UNK N   1      28.827  16.494   4.967  0.00  0.00     0.052 C 
ENDROOT
BRANCH   8  14
HETATM   14  C   UNK N   1      33.920  17.039   9.004  0.00  0.00     0.151 A 
HETATM   15  N   UNK N   1      33.850  16.268  10.102  0.00  0.00    -0.271 N 
HETATM   16  N   UNK N   1      34.859  16.650  10.867  0.00  0.00    -0.225 N 
ATOM     17  HN  UNK N   1      33.163  15.542  10.303  1.00  0.00     0.190 HD
HETATM   18  N   UNK N   1      35.526  17.621  10.262  0.00  0.00    -0.005 NA
HETATM   19  H   UNK N   1      35.079  16.272  11.748  0.00  0.00     0.205 HD
HETATM   20  N   UNK N   1      34.961  17.884   9.095  0.00  0.00    -0.266 N 
ATOM     21  HN  UNK N   1      35.253  18.581   8.410  1.00  0.00     0.186 HD
ENDBRANCH   8  14
TORSDOF 1
ENDMDL
MODEL 2
REMARK VINA RESULT:      -6.5      1.223      2.284
REMARK  1 active torsions:
REMARK  status: ('A' for Active; 'I' for Inactive)
REMARK    1  A    between atoms: C_14  and  C_20 
ROOT
HETATM    1  O   UNK N   1      31.277  16.829   8.784  0.00  0.00    -0.267 OA
HETATM    2  N   UNK N   1      31.263  16.933   6.533  0.00  0.00    -0.274 N 
HETATM    3  N   UNK N   1      33.347  17.006   5.401  0.00  0.00    -0.350 N 
ATOM      4  HN  UNK N   1      33.872  17.051   4.528  1.00  0.00     0.166 HD
HETATM    5  C   UNK N   1      31.988  16.994   5.363  0.00  0.00     0.120 A 
HETATM    6  C   UNK N   1      31.322  17.045   4.129  0.00  0.00    -0.017 A 
HETATM    7  C   UNK N   1      31.918  16.883   7.745  0.00  0.00     0.268 A 
HETATM    8  C   UNK N   1      33.322  16.895   7.781  0.00  0.00     0.094 A 
HETATM    9  C   UNK N   1      29.898  16.921   6.503  0.00  0.00     0.102 A 
HETATM   10  C   UNK N   1      29.929  17.032   4.102  0.00  0.00     0.012 A 
HETATM   11  C   UNK N   1      34.019  16.958   6.577  0.00  0.00     0.110 A 
HETATM   12  C   UNK N   1      29.211  16.970   5.293  0.00  0.00     0.018 A 
HETATM   13  C   UNK N   1      32.078  17.111   2.846  0.00  0.00     0.052 C 
ENDROOT
BRANCH   8  14
HETATM   14  C   UNK N   1      34.067  16.844   9.051  0.00  0.00     0.151 A 
HETATM   15  N   UNK N   1      33.884  15.928  10.017  0.00  0.00    -0.271 N 
HETATM   16  N   UNK N   1      34.745  16.241  10.969  0.00  0.00    -0.225 N 
ATOM     17  HN  UNK N   1      33.220  15.153  10.014  1.00  0.00     0.190 HD
HETATM   18  N   UNK N   1      35.434  17.312  10.604  0.00  0.00    -0.005 NA
HETATM   19  H   UNK N   1      34.857  15.755  11.818  0.00  0.00     0.205 HD
HETATM   20  N   UNK N   1      35.030  17.710   9.408  0.00  0.00    -0.266 N 
ATOM     21  HN  UNK N   1      35.377  18.504   8.872  1.00  0.00     0.186 HD
ENDBRANCH   8  14
TORSDOF 1
ENDMDL
MODEL 3
REMARK VINA RESULT:      -6.4     17.203     18.292
REMARK  1 active torsions:
REMARK  status: ('A' for Active; 'I' for Inactive)
REMARK    1  A    between atoms: C_14  and  C_20 
ROOT
HETATM    1  O   UNK N   1      24.766  25.689  -5.217  0.00  0.00    -0.267 OA
HETATM    2  N   UNK N   1      26.241  27.324  -5.694  0.00  0.00    -0.274 N 
HETATM    3  N   UNK N   1      27.638  27.056  -7.592  0.00  0.00    -0.350 N 
ATOM      4  HN  UNK N   1      28.377  27.414  -8.197  1.00  0.00     0.166 HD
HETATM    5  C   UNK N   1      27.237  27.793  -6.522  0.00  0.00     0.120 A 
HETATM    6  C   UNK N   1      27.839  29.033  -6.261  0.00  0.00    -0.017 A 
HETATM    7  C   UNK N   1      25.650  26.106  -5.951  0.00  0.00     0.268 A 
HETATM    8  C   UNK N   1      26.066  25.347  -7.056  0.00  0.00     0.094 A 
HETATM    9  C   UNK N   1      25.832  28.058  -4.618  0.00  0.00     0.102 A 
HETATM   10  C   UNK N   1      27.420  29.780  -5.162  0.00  0.00     0.012 A 
HETATM   11  C   UNK N   1      27.077  25.855  -7.870  0.00  0.00     0.110 A 
HETATM   12  C   UNK N   1      26.412  29.292  -4.335  0.00  0.00     0.018 A 
HETATM   13  C   UNK N   1      28.919  29.566  -7.139  0.00  0.00     0.052 C 
ENDROOT
BRANCH   8  14
HETATM   14  C   UNK N   1      25.466  24.039  -7.373  0.00  0.00     0.151 A 
HETATM   15  N   UNK N   1      25.372  23.007  -6.519  0.00  0.00    -0.271 N 
HETATM   16  N   UNK N   1      24.776  22.041  -7.196  0.00  0.00    -0.225 N 
ATOM     17  HN  UNK N   1      25.693  22.975  -5.551  1.00  0.00     0.190 HD
HETATM   18  N   UNK N   1      24.512  22.463  -8.423  0.00  0.00    -0.005 NA
HETATM   19  H   UNK N   1      24.561  21.147  -6.843  0.00  0.00     0.205 HD
HETATM   20  N   UNK N   1      24.933  23.709  -8.561  0.00  0.00    -0.266 N 
ATOM     21  HN  UNK N   1      24.867  24.295  -9.393  1.00  0.00     0.186 HD
ENDBRANCH   8  14
TORSDOF 1
ENDMDL
MODEL 4
REMARK VINA RESULT:      -6.3      5.964      8.795
REMARK  1 active torsions:
REMARK  status: ('A' for Active; 'I' for Inactive)
REMARK    1  A    between atoms: C_14  and  C_20 
ROOT
HETATM    1  O   UNK N   1      36.330  15.084  13.567  0.00  0.00    -0.267 OA
HETATM    2  N   UNK N   1      35.918  12.873  13.697  0.00  0.00    -0.274 N 
HETATM    3  N   UNK N   1      34.727  11.847  11.920  0.00  0.00    -0.350 N 
ATOM      4  HN  UNK N   1      34.318  11.011  11.504  1.00  0.00     0.166 HD
HETATM    5  C   UNK N   1      35.360  11.753  13.120  0.00  0.00     0.120 A 
HETATM    6  C   UNK N   1      35.445  10.513  13.772  0.00  0.00    -0.017 A 
HETATM    7  C   UNK N   1      35.835  14.090  13.057  0.00  0.00     0.268 A 
HETATM    8  C   UNK N   1      35.181  14.184  11.818  0.00  0.00     0.094 A 
HETATM    9  C   UNK N   1      36.556  12.787  14.902  0.00  0.00     0.102 A 
HETATM   10  C   UNK N   1      36.096  10.429  15.001  0.00  0.00     0.012 A 
HETATM   11  C   UNK N   1      34.629  13.029  11.266  0.00  0.00     0.110 A 
HETATM   12  C   UNK N   1      36.655  11.569  15.570  0.00  0.00     0.018 A 
HETATM   13  C   UNK N   1      34.851   9.285  13.172  0.00  0.00     0.052 C 
ENDROOT
BRANCH   8  14
HETATM   14  C   UNK N   1      35.065  15.462  11.094  0.00  0.00     0.151 A 
HETATM   15  N   UNK N   1      33.963  15.890  10.456  0.00  0.00    -0.271 N 
HETATM   16  N   UNK N   1      34.284  17.068   9.948  0.00  0.00    -0.225 N 
ATOM     17  HN  UNK N   1      33.067  15.408  10.380  1.00  0.00     0.190 HD
HETATM   18  N   UNK N   1      35.538  17.355  10.262  0.00  0.00    -0.005 NA
HETATM   19  H   UNK N   1      33.684  17.642   9.419  0.00  0.00     0.205 HD
HETATM   20  N   UNK N   1      36.051  16.368  10.978  0.00  0.00    -0.266 N 
ATOM     21  HN  UNK N   1      36.993  16.307  11.361  1.00  0.00     0.186 HD
ENDBRANCH   8  14
TORSDOF 1
ENDMDL
MODEL 5
REMARK VINA RESULT:      -6.3     11.702     13.440
REMARK  1 active torsions:
REMARK  status: ('A' for Active; 'I' for Inactive)
REMARK    1  A    between atoms: C_14  and  C_20 
ROOT
HETATM    1  O   UNK N   1      21.965  19.535   4.383  0.00  0.00    -0.267 OA
HETATM    2  N   UNK N   1      21.075  17.531   4.905  0.00  0.00    -0.274 N 
HETATM    3  N   UNK N   1      19.503  16.577   3.407  0.00  0.00    -0.350 N 
ATOM      4  HN  UNK N   1      18.872  15.813   3.163  1.00  0.00     0.166 HD
HETATM    5  C   UNK N   1      20.219  16.508   4.560  0.00  0.00     0.120 A 
HETATM    6  C   UNK N   1      20.087  15.392   5.401  0.00  0.00    -0.017 A 
HETATM    7  C   UNK N   1      21.205  18.626   4.079  0.00  0.00     0.268 A 
HETATM    8  C   UNK N   1      20.464  18.695   2.889  0.00  0.00     0.094 A 
HETATM    9  C   UNK N   1      21.799  17.469   6.062  0.00  0.00     0.102 A 
HETATM   10  C   UNK N   1      20.826  15.332   6.581  0.00  0.00     0.012 A 
HETATM   11  C   UNK N   1      19.609  17.641   2.574  0.00  0.00     0.110 A 
HETATM   12  C   UNK N   1      21.687  16.374   6.915  0.00  0.00     0.018 A 
HETATM   13  C   UNK N   1      19.169  14.270   5.055  0.00  0.00     0.052 C 
ENDROOT
BRANCH   8  14
HETATM   14  C   UNK N   1      20.568  19.844   1.973  0.00  0.00     0.151 A 
HETATM   15  N   UNK N   1      20.510  19.770   0.632  0.00  0.00    -0.271 N 
HETATM   16  N   UNK N   1      20.643  21.013   0.204  0.00  0.00    -0.225 N 
ATOM     17  HN  UNK N   1      20.389  18.931   0.065  1.00  0.00     0.190 HD
HETATM   18  N   UNK N   1      20.778  21.824   1.242  0.00  0.00    -0.005 NA
HETATM   19  H   UNK N   1      20.642  21.293  -0.740  0.00  0.00     0.205 HD
HETATM   20  N   UNK N   1      20.735  21.119   2.361  0.00  0.00    -0.266 N 
ATOM     21  HN  UNK N   1      20.812  21.470   3.315  1.00  0.00     0.186 HD
ENDBRANCH   8  14
TORSDOF 1
ENDMDL
MODEL 6
REMARK VINA RESULT:      -6.1      5.013      7.822
REMARK  1 active torsions:
REMARK  status: ('A' for Active; 'I' for Inactive)
REMARK    1  A    between atoms: C_14  and  C_20 
ROOT
HETATM    1  O   UNK N   1      27.899  18.037   3.633  0.00  0.00    -0.267 OA
HETATM    2  N   UNK N   1      28.622  18.044   5.767  0.00  0.00    -0.274 N 
HETATM    3  N   UNK N   1      27.564  19.507   7.306  0.00  0.00    -0.350 N 
ATOM      4  HN  UNK N   1      27.485  19.880   8.252  1.00  0.00     0.166 HD
HETATM    5  C   UNK N   1      28.501  18.558   7.040  0.00  0.00     0.120 A 
HETATM    6  C   UNK N   1      29.345  18.101   8.063  0.00  0.00    -0.017 A 
HETATM    7  C   UNK N   1      27.793  18.492   4.762  0.00  0.00     0.268 A 
HETATM    8  C   UNK N   1      26.827  19.473   5.040  0.00  0.00     0.094 A 
HETATM    9  C   UNK N   1      29.560  17.090   5.492  0.00  0.00     0.102 A 
HETATM   10  C   UNK N   1      30.301  17.128   7.778  0.00  0.00     0.012 A 
HETATM   11  C   UNK N   1      26.734  19.968   6.339  0.00  0.00     0.110 A 
HETATM   12  C   UNK N   1      30.411  16.619   6.488  0.00  0.00     0.018 A 
HETATM   13  C   UNK N   1      29.238  18.639   9.449  0.00  0.00     0.052 C 
ENDROOT
BRANCH   8  14
HETATM   14  C   UNK N   1      25.917  19.985   4.001  0.00  0.00     0.151 A 
HETATM   15  N   UNK N   1      24.578  19.874   4.025  0.00  0.00    -0.271 N 
HETATM   16  N   UNK N   1      24.155  20.459   2.918  0.00  0.00    -0.225 N 
ATOM     17  HN  UNK N   1      24.008  19.431   4.746  1.00  0.00     0.190 HD
HETATM   18  N   UNK N   1      25.195  20.914   2.236  0.00  0.00    -0.005 NA
HETATM   19  H   UNK N   1      23.214  20.543   2.642  0.00  0.00     0.205 HD
HETATM   20  N   UNK N   1      26.310  20.631   2.891  0.00  0.00    -0.266 N 
ATOM     21  HN  UNK N   1      27.264  20.856   2.611  1.00  0.00     0.186 HD
ENDBRANCH   8  14
TORSDOF 1
ENDMDL
MODEL 7
REMARK VINA RESULT:      -6.1      3.450      5.277
REMARK  1 active torsions:
REMARK  status: ('A' for Active; 'I' for Inactive)
REMARK    1  A    between atoms: C_14  and  C_20 
ROOT
HETATM    1  O   UNK N   1      34.566  13.022  10.672  0.00  0.00    -0.267 OA
HETATM    2  N   UNK N   1      34.198  14.866   9.430  0.00  0.00    -0.274 N 
HETATM    3  N   UNK N   1      34.875  16.963  10.308  0.00  0.00    -0.350 N 
ATOM      4  HN  UNK N   1      34.951  17.975  10.207  1.00  0.00     0.166 HD
HETATM    5  C   UNK N   1      34.309  16.234   9.309  0.00  0.00     0.120 A 
HETATM    6  C   UNK N   1      33.836  16.876   8.155  0.00  0.00    -0.017 A 
HETATM    7  C   UNK N   1      34.663  14.236  10.563  0.00  0.00     0.268 A 
HETATM    8  C   UNK N   1      35.247  14.991  11.593  0.00  0.00     0.094 A 
HETATM    9  C   UNK N   1      33.631  14.126   8.431  0.00  0.00     0.102 A 
HETATM   10  C   UNK N   1      33.258  16.118   7.138  0.00  0.00     0.012 A 
HETATM   11  C   UNK N   1      35.341  16.372  11.435  0.00  0.00     0.110 A 
HETATM   12  C   UNK N   1      33.154  14.737   7.275  0.00  0.00     0.018 A 
HETATM   13  C   UNK N   1      33.942  18.354   7.996  0.00  0.00     0.052 C 
ENDROOT
BRANCH   8  14
HETATM   14  C   UNK N   1      35.758  14.365  12.824  0.00  0.00     0.151 A 
HETATM   15  N   UNK N   1      36.783  14.829  13.559  0.00  0.00    -0.271 N 
HETATM   16  N   UNK N   1      36.911  13.981  14.564  0.00  0.00    -0.225 N 
ATOM     17  HN  UNK N   1      37.343  15.662  13.378  1.00  0.00     0.190 HD
HETATM   18  N   UNK N   1      35.998  13.027  14.453  0.00  0.00    -0.005 NA
HETATM   19  H   UNK N   1      37.580  14.047  15.283  0.00  0.00     0.205 HD
HETATM   20  N   UNK N   1      35.264  13.243  13.374  0.00  0.00    -0.266 N 
ATOM     21  HN  UNK N   1      34.487  12.677  13.032  1.00  0.00     0.186 HD
ENDBRANCH   8  14
TORSDOF 1
ENDMDL
MODEL 8
REMARK VINA RESULT:      -6.0      3.194      4.666
REMARK  1 active torsions:
REMARK  status: ('A' for Active; 'I' for Inactive)
REMARK    1  A    between atoms: C_14  and  C_20 
ROOT
HETATM    1  O   UNK N   1      35.164  16.984  11.074  0.00  0.00    -0.267 OA
HETATM    2  N   UNK N   1      34.665  16.408   8.953  0.00  0.00    -0.274 N 
HETATM    3  N   UNK N   1      34.742  14.110   8.367  0.00  0.00    -0.350 N 
ATOM      4  HN  UNK N   1      34.632  13.378   7.666  1.00  0.00     0.166 HD
HETATM    5  C   UNK N   1      34.521  15.406   8.019  0.00  0.00     0.120 A 
HETATM    6  C   UNK N   1      34.144  15.723   6.705  0.00  0.00    -0.017 A 
HETATM    7  C   UNK N   1      35.035  16.096  10.244  0.00  0.00     0.268 A 
HETATM    8  C   UNK N   1      35.263  14.758  10.601  0.00  0.00     0.094 A 
HETATM    9  C   UNK N   1      34.444  17.711   8.611  0.00  0.00     0.102 A 
HETATM   10  C   UNK N   1      33.919  17.054   6.359  0.00  0.00     0.012 A 
HETATM   11  C   UNK N   1      35.107  13.772   9.628  0.00  0.00     0.110 A 
HETATM   12  C   UNK N   1      34.069  18.055   7.315  0.00  0.00     0.018 A 
HETATM   13  C   UNK N   1      33.980  14.661   5.672  0.00  0.00     0.052 C 
ENDROOT
BRANCH   8  14
HETATM   14  C   UNK N   1      35.660  14.374  11.966  0.00  0.00     0.151 A 
HETATM   15  N   UNK N   1      36.706  14.884  12.639  0.00  0.00    -0.271 N 
HETATM   16  N   UNK N   1      36.705  14.274  13.811  0.00  0.00    -0.225 N 
ATOM     17  HN  UNK N   1      37.362  15.594  12.312  1.00  0.00     0.190 HD
HETATM   18  N   UNK N   1      35.696  13.417  13.860  0.00  0.00    -0.005 NA
HETATM   19  H   UNK N   1      37.353  14.430  14.535  0.00  0.00     0.205 HD
HETATM   20  N   UNK N   1      35.026  13.459  12.719  0.00  0.00    -0.266 N 
ATOM     21  HN  UNK N   1      34.203  12.914  12.466  1.00  0.00     0.186 HD
ENDBRANCH   8  14
TORSDOF 1
ENDMDL
MODEL 9
REMARK VINA RESULT:      -6.0      8.075     10.816
REMARK  1 active torsions:
REMARK  status: ('A' for Active; 'I' for Inactive)
REMARK    1  A    between atoms: C_14  and  C_20 
ROOT
HETATM    1  O   UNK N   1      36.059  10.993  13.075  0.00  0.00    -0.267 OA
HETATM    2  N   UNK N   1      35.692  11.410  15.259  0.00  0.00    -0.274 N 
HETATM    3  N   UNK N   1      36.072  13.611  16.060  0.00  0.00    -0.350 N 
ATOM      4  HN  UNK N   1      36.073  14.277  16.832  1.00  0.00     0.166 HD
HETATM    5  C   UNK N   1      35.699  12.324  16.291  0.00  0.00     0.120 A 
HETATM    6  C   UNK N   1      35.320  11.925  17.581  0.00  0.00    -0.017 A 
HETATM    7  C   UNK N   1      36.065  11.802  13.992  0.00  0.00     0.268 A 
HETATM    8  C   UNK N   1      36.449  13.132  13.757  0.00  0.00     0.094 A 
HETATM    9  C   UNK N   1      35.319  10.116  15.483  0.00  0.00     0.102 A 
HETATM   10  C   UNK N   1      34.939  10.604  17.806  0.00  0.00     0.012 A 
HETATM   11  C   UNK N   1      36.443  14.026  14.825  0.00  0.00     0.110 A 
HETATM   12  C   UNK N   1      34.938   9.693  16.753  0.00  0.00     0.018 A 
HETATM   13  C   UNK N   1      35.317  12.891  18.717  0.00  0.00     0.052 C 
ENDROOT
BRANCH   8  14
HETATM   14  C   UNK N   1      36.856  13.599  12.420  0.00  0.00     0.151 A 
HETATM   15  N   UNK N   1      37.864  13.084  11.696  0.00  0.00    -0.271 N 
HETATM   16  N   UNK N   1      37.888  13.785  10.575  0.00  0.00    -0.225 N 
ATOM     17  HN  UNK N   1      38.480  12.315  11.956  1.00  0.00     0.190 HD
HETATM   18  N   UNK N   1      36.930  14.699  10.607  0.00  0.00    -0.005 NA
HETATM   19  H   UNK N   1      38.519  13.649   9.832  0.00  0.00     0.205 HD
HETATM   20  N   UNK N   1      36.269  14.605  11.750  0.00  0.00    -0.266 N 
ATOM     21  HN  UNK N   1      35.481  15.175  12.056  1.00  0.00     0.186 HD
ENDBRANCH   8  14
TORSDOF 1
ENDMDL
