MODEL 1
REMARK VINA RESULT:      -6.2      0.000      0.000
REMARK  10 active torsions:
REMARK  status: ('A' for Active; 'I' for Inactive)
REMARK    1  A    between atoms: S_1  and  N_8 
REMARK    2  A    between atoms: S_1  and  C_13 
REMARK    3  A    between atoms: O_2  and  C_12 
REMARK    4  A    between atoms: O_2  and  C_19 
REMARK    5  A    between atoms: O_5  and  C_20 
REMARK    6  A    between atoms: N_7  and  C_9 
REMARK    7  A    between atoms: N_7  and  C_11 
REMARK    8  A    between atoms: C_9  and  C_10 
REMARK    9  A    between atoms: C_10  and  C_14 
REMARK   10  A    between atoms: C_16  and  C_20 
ROOT
HETATM    1  C   UNK N   1      31.545  17.054   6.072  0.00  0.00     0.065 A 
HETATM    2  C   UNK N   1      30.415  17.256   6.924  0.00  0.00     0.125 A 
HETATM    3  C   UNK N   1      30.648  17.769   8.221  0.00  0.00     0.116 A 
HETATM    4  C   UNK N   1      32.834  17.338   6.552  0.00  0.00     0.050 A 
HETATM    5  C   UNK N   1      33.040  17.814   7.845  0.00  0.00     0.041 A 
HETATM    6  C   UNK N   1      31.941  18.039   8.668  0.00  0.00     0.046 A 
ENDROOT
BRANCH   2   7
HETATM    7  O   UNK N   1      29.107  17.002   6.606  0.00  0.00    -0.307 OA
BRANCH   7   8
HETATM    8  C   UNK N   1      28.164  17.394   5.704  0.00  0.00     0.076 A 
HETATM    9  C   UNK N   1      26.987  16.684   5.443  0.00  0.00     0.037 A 
HETATM   10  C   UNK N   1      26.063  17.146   4.501  0.00  0.00     0.003 A 
HETATM   11  C   UNK N   1      26.313  18.327   3.801  0.00  0.00     0.000 A 
HETATM   12  C   UNK N   1      27.489  19.039   4.041  0.00  0.00     0.003 A 
HETATM   13  C   UNK N   1      28.407  18.572   4.987  0.00  0.00     0.037 A 
ENDBRANCH   7   8
ENDBRANCH   2   7
BRANCH   1  14
HETATM   14  N   UNK N   1      31.412  16.579   4.748  0.00  0.00    -0.388 N 
HETATM   15  H   UNK N   1      31.301  17.228   4.017  0.00  0.00     0.159 HD
BRANCH  14  16
HETATM   16  C   UNK N   1      31.434  15.170   4.436  0.00  0.00     0.120 C 
BRANCH  16  17
HETATM   17  C   UNK N   1      30.098  14.711   3.901  0.00  0.00     0.019 C 
BRANCH  17  18
HETATM   18  C   UNK N   1      29.643  15.702   2.852  0.00  0.00    -0.003 C 
HETATM   19  C   UNK N   1      28.327  15.250   2.260  0.00  0.00     0.005 C 
ENDBRANCH  17  18
ENDBRANCH  16  17
ENDBRANCH  14  16
ENDBRANCH   1  14
BRANCH   3  20
HETATM   20  S   UNK N   1      29.274  18.096   9.333  0.00  0.00     0.259 S 
HETATM   21  O   UNK N   1      29.665  18.971  10.532  0.00  0.00    -0.201 OA
HETATM   22  O   UNK N   1      28.758  16.825  10.027  0.00  0.00    -0.201 OA
BRANCH  20  23
HETATM   23  N   UNK N   1      27.838  18.858   8.652  0.00  0.00    -0.324 N 
HETATM   24  H   UNK N   1      26.845  18.873   8.414  0.00  0.00     0.169 HD
HETATM   25  H   UNK N   1      28.179  19.760   8.320  0.00  0.00     0.169 HD
ENDBRANCH  20  23
ENDBRANCH   3  20
BRANCH   5  26
HETATM   26  C   UNK N   1      34.410  18.061   8.336  0.00  0.00     0.176 C 
HETATM   27  O   UNK N   1      34.904  19.176   8.255  0.00  0.00    -0.646 OA
BRANCH  26  28
HETATM   28  O   UNK N   1      35.119  17.062   8.897  0.00  0.00    -0.773 OA
HETATM   29  H   UNK N   1      35.327  17.089   9.810  0.00  0.00     0.167 HD
ENDBRANCH  26  28
ENDBRANCH   5  26
TORSDOF 10
ENDMDL
MODEL 2
REMARK VINA RESULT:      -6.2      1.310      1.761
REMARK  10 active torsions:
REMARK  status: ('A' for Active; 'I' for Inactive)
REMARK    1  A    between atoms: S_1  and  N_8 
REMARK    2  A    between atoms: S_1  and  C_13 
REMARK    3  A    between atoms: O_2  and  C_12 
REMARK    4  A    between atoms: O_2  and  C_19 
REMARK    5  A    between atoms: O_5  and  C_20 
REMARK    6  A    between atoms: N_7  and  C_9 
REMARK    7  A    between atoms: N_7  and  C_11 
REMARK    8  A    between atoms: C_9  and  C_10 
REMARK    9  A    between atoms: C_10  and  C_14 
REMARK   10  A    between atoms: C_16  and  C_20 
ROOT
HETATM    1  C   UNK N   1      30.257  17.317   5.143  0.00  0.00     0.065 A 
HETATM    2  C   UNK N   1      29.292  17.629   6.152  0.00  0.00     0.125 A 
HETATM    3  C   UNK N   1      29.748  17.761   7.483  0.00  0.00     0.116 A 
HETATM    4  C   UNK N   1      31.600  17.124   5.505  0.00  0.00     0.050 A 
HETATM    5  C   UNK N   1      32.019  17.229   6.829  0.00  0.00     0.041 A 
HETATM    6  C   UNK N   1      31.089  17.561   7.811  0.00  0.00     0.046 A 
ENDROOT
BRANCH   2   7
HETATM    7  O   UNK N   1      27.950  17.819   5.955  0.00  0.00    -0.307 OA
BRANCH   7   8
HETATM    8  C   UNK N   1      27.107  18.427   5.074  0.00  0.00     0.076 A 
HETATM    9  C   UNK N   1      25.920  17.856   4.605  0.00  0.00     0.037 A 
HETATM   10  C   UNK N   1      25.102  18.537   3.699  0.00  0.00     0.003 A 
HETATM   11  C   UNK N   1      25.472  19.803   3.244  0.00  0.00     0.000 A 
HETATM   12  C   UNK N   1      26.660  20.382   3.693  0.00  0.00     0.003 A 
HETATM   13  C   UNK N   1      27.471  19.695   4.601  0.00  0.00     0.037 A 
ENDBRANCH   7   8
ENDBRANCH   2   7
BRANCH   1  14
HETATM   14  N   UNK N   1      29.906  17.198   3.780  0.00  0.00    -0.388 N 
HETATM   15  H   UNK N   1      29.756  18.016   3.253  0.00  0.00     0.159 HD
BRANCH  14  16
HETATM   16  C   UNK N   1      29.760  15.915   3.136  0.00  0.00     0.120 C 
BRANCH  16  17
HETATM   17  C   UNK N   1      28.365  15.368   3.326  0.00  0.00     0.019 C 
BRANCH  17  18
HETATM   18  C   UNK N   1      27.829  14.959   1.972  0.00  0.00    -0.003 C 
HETATM   19  C   UNK N   1      26.355  15.286   1.887  0.00  0.00     0.005 C 
ENDBRANCH  17  18
ENDBRANCH  16  17
ENDBRANCH  14  16
ENDBRANCH   1  14
BRANCH   3  20
HETATM   20  S   UNK N   1      28.605  18.201   8.799  0.00  0.00     0.259 S 
HETATM   21  O   UNK N   1      29.311  18.689  10.072  0.00  0.00    -0.201 OA
HETATM   22  O   UNK N   1      27.813  16.993   9.324  0.00  0.00    -0.201 OA
BRANCH  20  23
HETATM   23  N   UNK N   1      27.387  19.425   8.445  0.00  0.00    -0.324 N 
HETATM   24  H   UNK N   1      27.036  20.232   7.929  0.00  0.00     0.169 HD
HETATM   25  H   UNK N   1      26.637  19.216   9.105  0.00  0.00     0.169 HD
ENDBRANCH  20  23
ENDBRANCH   3  20
BRANCH   5  26
HETATM   26  C   UNK N   1      33.429  16.977   7.185  0.00  0.00     0.176 C 
HETATM   27  O   UNK N   1      33.744  15.952   7.773  0.00  0.00    -0.646 OA
BRANCH  26  28
HETATM   28  O   UNK N   1      34.383  17.866   6.847  0.00  0.00    -0.773 OA
HETATM   29  H   UNK N   1      34.329  18.750   7.152  0.00  0.00     0.167 HD
ENDBRANCH  26  28
ENDBRANCH   5  26
TORSDOF 10
ENDMDL
MODEL 3
REMARK VINA RESULT:      -6.1      2.382      4.224
REMARK  10 active torsions:
REMARK  status: ('A' for Active; 'I' for Inactive)
REMARK    1  A    between atoms: S_1  and  N_8 
REMARK    2  A    between atoms: S_1  and  C_13 
REMARK    3  A    between atoms: O_2  and  C_12 
REMARK    4  A    between atoms: O_2  and  C_19 
REMARK    5  A    between atoms: O_5  and  C_20 
REMARK    6  A    between atoms: N_7  and  C_9 
REMARK    7  A    between atoms: N_7  and  C_11 
REMARK    8  A    between atoms: C_9  and  C_10 
REMARK    9  A    between atoms: C_10  and  C_14 
REMARK   10  A    between atoms: C_16  and  C_20 
ROOT
HETATM    1  C   UNK N   1      31.035  17.210   7.917  0.00  0.00     0.065 A 
HETATM    2  C   UNK N   1      31.109  16.740   6.568  0.00  0.00     0.125 A 
HETATM    3  C   UNK N   1      32.377  16.727   5.942  0.00  0.00     0.116 A 
HETATM    4  C   UNK N   1      32.199  17.664   8.558  0.00  0.00     0.050 A 
HETATM    5  C   UNK N   1      33.432  17.669   7.909  0.00  0.00     0.041 A 
HETATM    6  C   UNK N   1      33.514  17.186   6.605  0.00  0.00     0.046 A 
ENDROOT
BRANCH   2   7
HETATM    7  O   UNK N   1      30.061  16.293   5.809  0.00  0.00    -0.307 OA
BRANCH   7   8
HETATM    8  C   UNK N   1      28.843  16.719   5.370  0.00  0.00     0.076 A 
HETATM    9  C   UNK N   1      27.623  16.231   5.850  0.00  0.00     0.037 A 
HETATM   10  C   UNK N   1      26.409  16.713   5.353  0.00  0.00     0.003 A 
HETATM   11  C   UNK N   1      26.404  17.690   4.356  0.00  0.00     0.000 A 
HETATM   12  C   UNK N   1      27.613  18.177   3.858  0.00  0.00     0.003 A 
HETATM   13  C   UNK N   1      28.823  17.692   4.363  0.00  0.00     0.037 A 
ENDBRANCH   7   8
ENDBRANCH   2   7
BRANCH   1  14
HETATM   14  N   UNK N   1      29.820  17.230   8.639  0.00  0.00    -0.388 N 
HETATM   15  H   UNK N   1      29.354  16.380   8.811  0.00  0.00     0.159 HD
BRANCH  14  16
HETATM   16  C   UNK N   1      29.244  18.457   9.132  0.00  0.00     0.120 C 
BRANCH  16  17
HETATM   17  C   UNK N   1      27.948  18.772   8.423  0.00  0.00     0.019 C 
BRANCH  17  18
HETATM   18  C   UNK N   1      28.255  19.696   7.265  0.00  0.00    -0.003 C 
HETATM   19  C   UNK N   1      27.001  20.436   6.857  0.00  0.00     0.005 C 
ENDBRANCH  17  18
ENDBRANCH  16  17
ENDBRANCH  14  16
ENDBRANCH   1  14
BRANCH   3  20
HETATM   20  S   UNK N   1      32.559  16.105   4.265  0.00  0.00     0.259 S 
HETATM   21  O   UNK N   1      33.976  15.597   3.963  0.00  0.00    -0.201 OA
HETATM   22  O   UNK N   1      32.387  17.203   3.204  0.00  0.00    -0.201 OA
BRANCH  20  23
HETATM   23  N   UNK N   1      31.482  14.806   3.756  0.00  0.00    -0.324 N 
HETATM   24  H   UNK N   1      31.294  13.898   3.330  0.00  0.00     0.169 HD
HETATM   25  H   UNK N   1      30.558  15.137   4.035  0.00  0.00     0.169 HD
ENDBRANCH  20  23
ENDBRANCH   3  20
BRANCH   5  26
HETATM   26  C   UNK N   1      34.630  18.194   8.593  0.00  0.00     0.176 C 
HETATM   27  O   UNK N   1      35.106  19.271   8.265  0.00  0.00    -0.646 OA
BRANCH  26  28
HETATM   28  O   UNK N   1      35.196  17.498   9.598  0.00  0.00    -0.773 OA
HETATM   29  H   UNK N   1      36.129  17.439   9.660  0.00  0.00     0.167 HD
ENDBRANCH  26  28
ENDBRANCH   5  26
TORSDOF 10
ENDMDL
MODEL 4
REMARK VINA RESULT:      -5.9      1.463      2.015
REMARK  10 active torsions:
REMARK  status: ('A' for Active; 'I' for Inactive)
REMARK    1  A    between atoms: S_1  and  N_8 
REMARK    2  A    between atoms: S_1  and  C_13 
REMARK    3  A    between atoms: O_2  and  C_12 
REMARK    4  A    between atoms: O_2  and  C_19 
REMARK    5  A    between atoms: O_5  and  C_20 
REMARK    6  A    between atoms: N_7  and  C_9 
REMARK    7  A    between atoms: N_7  and  C_11 
REMARK    8  A    between atoms: C_9  and  C_10 
REMARK    9  A    between atoms: C_10  and  C_14 
REMARK   10  A    between atoms: C_16  and  C_20 
ROOT
HETATM    1  C   UNK N   1      31.423  17.162   5.709  0.00  0.00     0.065 A 
HETATM    2  C   UNK N   1      30.172  17.325   6.381  0.00  0.00     0.125 A 
HETATM    3  C   UNK N   1      30.197  17.722   7.737  0.00  0.00     0.116 A 
HETATM    4  C   UNK N   1      32.620  17.367   6.414  0.00  0.00     0.050 A 
HETATM    5  C   UNK N   1      32.619  17.727   7.760  0.00  0.00     0.041 A 
HETATM    6  C   UNK N   1      31.402  17.916   8.410  0.00  0.00     0.046 A 
ENDROOT
BRANCH   2   7
HETATM    7  O   UNK N   1      28.930  17.137   5.834  0.00  0.00    -0.307 OA
BRANCH   7   8
HETATM    8  C   UNK N   1      28.018  17.808   5.077  0.00  0.00     0.076 A 
HETATM    9  C   UNK N   1      26.866  17.225   4.539  0.00  0.00     0.037 A 
HETATM   10  C   UNK N   1      25.972  17.975   3.769  0.00  0.00     0.003 A 
HETATM   11  C   UNK N   1      26.228  19.325   3.522  0.00  0.00     0.000 A 
HETATM   12  C   UNK N   1      27.380  19.917   4.041  0.00  0.00     0.003 A 
HETATM   13  C   UNK N   1      28.267  19.161   4.813  0.00  0.00     0.037 A 
ENDBRANCH   7   8
ENDBRANCH   2   7
BRANCH   1  14
HETATM   14  N   UNK N   1      31.502  16.802   4.345  0.00  0.00    -0.388 N 
HETATM   15  H   UNK N   1      30.709  16.414   3.908  0.00  0.00     0.159 HD
BRANCH  14  16
HETATM   16  C   UNK N   1      32.707  16.985   3.573  0.00  0.00     0.120 C 
BRANCH  16  17
HETATM   17  C   UNK N   1      33.102  15.708   2.871  0.00  0.00     0.019 C 
BRANCH  17  18
HETATM   18  C   UNK N   1      33.209  14.611   3.907  0.00  0.00    -0.003 C 
HETATM   19  C   UNK N   1      34.529  14.725   4.636  0.00  0.00     0.005 C 
ENDBRANCH  17  18
ENDBRANCH  16  17
ENDBRANCH  14  16
ENDBRANCH   1  14
BRANCH   3  20
HETATM   20  S   UNK N   1      28.664  17.996   8.636  0.00  0.00     0.259 S 
HETATM   21  O   UNK N   1      27.984  19.324   8.274  0.00  0.00    -0.201 OA
HETATM   22  O   UNK N   1      28.884  18.158  10.148  0.00  0.00    -0.201 OA
BRANCH  20  23
HETATM   23  N   UNK N   1      27.403  16.773   8.487  0.00  0.00    -0.324 N 
HETATM   24  H   UNK N   1      26.430  16.482   8.385  0.00  0.00     0.169 HD
HETATM   25  H   UNK N   1      27.916  15.893   8.524  0.00  0.00     0.169 HD
ENDBRANCH  20  23
ENDBRANCH   3  20
BRANCH   5  26
HETATM   26  C   UNK N   1      33.893  17.892   8.486  0.00  0.00     0.176 C 
HETATM   27  O   UNK N   1      34.777  18.602   8.030  0.00  0.00    -0.646 OA
BRANCH  26  28
HETATM   28  O   UNK N   1      34.083  17.277   9.669  0.00  0.00    -0.773 OA
HETATM   29  H   UNK N   1      33.512  16.582   9.934  0.00  0.00     0.167 HD
ENDBRANCH  26  28
ENDBRANCH   5  26
TORSDOF 10
ENDMDL
MODEL 5
REMARK VINA RESULT:      -5.9      7.314     10.503
REMARK  10 active torsions:
REMARK  status: ('A' for Active; 'I' for Inactive)
REMARK    1  A    between atoms: S_1  and  N_8 
REMARK    2  A    between atoms: S_1  and  C_13 
REMARK    3  A    between atoms: O_2  and  C_12 
REMARK    4  A    between atoms: O_2  and  C_19 
REMARK    5  A    between atoms: O_5  and  C_20 
REMARK    6  A    between atoms: N_7  and  C_9 
REMARK    7  A    between atoms: N_7  and  C_11 
REMARK    8  A    between atoms: C_9  and  C_10 
REMARK    9  A    between atoms: C_10  and  C_14 
REMARK   10  A    between atoms: C_16  and  C_20 
ROOT
HETATM    1  C   UNK N   1      36.015  14.160  11.828  0.00  0.00     0.065 A 
HETATM    2  C   UNK N   1      35.359  13.066  11.182  0.00  0.00     0.125 A 
HETATM    3  C   UNK N   1      34.553  13.350  10.056  0.00  0.00     0.116 A 
HETATM    4  C   UNK N   1      35.817  15.465  11.351  0.00  0.00     0.050 A 
HETATM    5  C   UNK N   1      34.993  15.723  10.258  0.00  0.00     0.041 A 
HETATM    6  C   UNK N   1      34.375  14.658   9.608  0.00  0.00     0.046 A 
ENDROOT
BRANCH   2   7
HETATM    7  O   UNK N   1      35.435  11.748  11.547  0.00  0.00    -0.307 OA
BRANCH   7   8
HETATM    8  C   UNK N   1      35.390  10.979  12.672  0.00  0.00     0.076 A 
HETATM    9  C   UNK N   1      36.423  10.128  13.080  0.00  0.00     0.037 A 
HETATM   10  C   UNK N   1      36.308   9.367  14.247  0.00  0.00     0.003 A 
HETATM   11  C   UNK N   1      35.148   9.444  15.018  0.00  0.00     0.000 A 
HETATM   12  C   UNK N   1      34.104  10.279  14.616  0.00  0.00     0.003 A 
HETATM   13  C   UNK N   1      34.227  11.040  13.450  0.00  0.00     0.037 A 
ENDBRANCH   7   8
ENDBRANCH   2   7
BRANCH   1  14
HETATM   14  N   UNK N   1      36.868  13.973  12.939  0.00  0.00    -0.388 N 
HETATM   15  H   UNK N   1      37.750  13.561  12.798  0.00  0.00     0.159 HD
BRANCH  14  16
HETATM   16  C   UNK N   1      36.485  14.371  14.272  0.00  0.00     0.120 C 
BRANCH  16  17
HETATM   17  C   UNK N   1      36.662  13.233  15.250  0.00  0.00     0.019 C 
BRANCH  17  18
HETATM   18  C   UNK N   1      36.005  13.625  16.555  0.00  0.00    -0.003 C 
HETATM   19  C   UNK N   1      34.562  13.172  16.555  0.00  0.00     0.005 C 
ENDBRANCH  17  18
ENDBRANCH  16  17
ENDBRANCH  14  16
ENDBRANCH   1  14
BRANCH   3  20
HETATM   20  S   UNK N   1      33.736  12.022   9.161  0.00  0.00     0.259 S 
HETATM   21  O   UNK N   1      34.704  11.183   8.314  0.00  0.00    -0.201 OA
HETATM   22  O   UNK N   1      32.756  12.540   8.096  0.00  0.00    -0.201 OA
BRANCH  20  23
HETATM   23  N   UNK N   1      32.810  10.854  10.102  0.00  0.00    -0.324 N 
HETATM   24  H   UNK N   1      32.271  10.573  10.922  0.00  0.00     0.169 HD
HETATM   25  H   UNK N   1      32.815  10.017   9.519  0.00  0.00     0.169 HD
ENDBRANCH  20  23
ENDBRANCH   3  20
BRANCH   5  26
HETATM   26  C   UNK N   1      34.769  17.111   9.807  0.00  0.00     0.176 C 
HETATM   27  O   UNK N   1      35.656  17.945   9.910  0.00  0.00    -0.646 OA
BRANCH  26  28
HETATM   28  O   UNK N   1      33.590  17.463   9.258  0.00  0.00    -0.773 OA
HETATM   29  H   UNK N   1      33.048  16.814   8.853  0.00  0.00     0.167 HD
ENDBRANCH  26  28
ENDBRANCH   5  26
TORSDOF 10
ENDMDL
MODEL 6
REMARK VINA RESULT:      -5.9      9.542     10.850
REMARK  10 active torsions:
REMARK  status: ('A' for Active; 'I' for Inactive)
REMARK    1  A    between atoms: S_1  and  N_8 
REMARK    2  A    between atoms: S_1  and  C_13 
REMARK    3  A    between atoms: O_2  and  C_12 
REMARK    4  A    between atoms: O_2  and  C_19 
REMARK    5  A    between atoms: O_5  and  C_20 
REMARK    6  A    between atoms: N_7  and  C_9 
REMARK    7  A    between atoms: N_7  and  C_11 
REMARK    8  A    between atoms: C_9  and  C_10 
REMARK    9  A    between atoms: C_10  and  C_14 
REMARK   10  A    between atoms: C_16  and  C_20 
ROOT
HETATM    1  C   UNK N   1      19.938  17.024   2.272  0.00  0.00     0.065 A 
HETATM    2  C   UNK N   1      20.136  16.739   3.659  0.00  0.00     0.125 A 
HETATM    3  C   UNK N   1      20.713  17.748   4.465  0.00  0.00     0.116 A 
HETATM    4  C   UNK N   1      20.344  18.264   1.754  0.00  0.00     0.050 A 
HETATM    5  C   UNK N   1      20.939  19.230   2.563  0.00  0.00     0.041 A 
HETATM    6  C   UNK N   1      21.108  18.969   3.920  0.00  0.00     0.046 A 
ENDROOT
BRANCH   2   7
HETATM    7  O   UNK N   1      19.816  15.571   4.299  0.00  0.00    -0.307 OA
BRANCH   7   8
HETATM    8  C   UNK N   1      20.262  14.287   4.397  0.00  0.00     0.076 A 
HETATM    9  C   UNK N   1      19.457  13.205   4.767  0.00  0.00     0.037 A 
HETATM   10  C   UNK N   1      19.982  11.912   4.848  0.00  0.00     0.003 A 
HETATM   11  C   UNK N   1      21.330  11.689   4.565  0.00  0.00     0.000 A 
HETATM   12  C   UNK N   1      22.149  12.761   4.206  0.00  0.00     0.003 A 
HETATM   13  C   UNK N   1      21.615  14.050   4.124  0.00  0.00     0.037 A 
ENDBRANCH   7   8
ENDBRANCH   2   7
BRANCH   1  14
HETATM   14  N   UNK N   1      19.338  16.094   1.394  0.00  0.00    -0.388 N 
HETATM   15  H   UNK N   1      18.377  16.177   1.196  0.00  0.00     0.159 HD
BRANCH  14  16
HETATM   16  C   UNK N   1      20.090  15.029   0.777  0.00  0.00     0.120 C 
BRANCH  16  17
HETATM   17  C   UNK N   1      19.332  13.724   0.835  0.00  0.00     0.019 C 
BRANCH  17  18
HETATM   18  C   UNK N   1      20.336  12.593   0.866  0.00  0.00    -0.003 C 
HETATM   19  C   UNK N   1      21.713  13.125   0.536  0.00  0.00     0.005 C 
ENDBRANCH  17  18
ENDBRANCH  16  17
ENDBRANCH  14  16
ENDBRANCH   1  14
BRANCH   3  20
HETATM   20  S   UNK N   1      20.949  17.483   6.227  0.00  0.00     0.259 S 
HETATM   21  O   UNK N   1      21.053  18.792   7.023  0.00  0.00    -0.201 OA
HETATM   22  O   UNK N   1      22.293  16.812   6.551  0.00  0.00    -0.201 OA
BRANCH  20  23
HETATM   23  N   UNK N   1      19.741  16.519   7.075  0.00  0.00    -0.324 N 
HETATM   24  H   UNK N   1      18.964  16.408   7.728  0.00  0.00     0.169 HD
HETATM   25  H   UNK N   1      19.906  15.572   6.734  0.00  0.00     0.169 HD
ENDBRANCH  20  23
ENDBRANCH   3  20
BRANCH   5  26
HETATM   26  C   UNK N   1      21.396  20.508   1.981  0.00  0.00     0.176 C 
HETATM   27  O   UNK N   1      21.454  20.649   0.768  0.00  0.00    -0.646 OA
BRANCH  26  28
HETATM   28  O   UNK N   1      21.735  21.535   2.784  0.00  0.00    -0.773 OA
HETATM   29  H   UNK N   1      22.408  22.132   2.523  0.00  0.00     0.167 HD
ENDBRANCH  26  28
ENDBRANCH   5  26
TORSDOF 10
ENDMDL
MODEL 7
REMARK VINA RESULT:      -5.9     12.495     14.975
REMARK  10 active torsions:
REMARK  status: ('A' for Active; 'I' for Inactive)
REMARK    1  A    between atoms: S_1  and  N_8 
REMARK    2  A    between atoms: S_1  and  C_13 
REMARK    3  A    between atoms: O_2  and  C_12 
REMARK    4  A    between atoms: O_2  and  C_19 
REMARK    5  A    between atoms: O_5  and  C_20 
REMARK    6  A    between atoms: N_7  and  C_9 
REMARK    7  A    between atoms: N_7  and  C_11 
REMARK    8  A    between atoms: C_9  and  C_10 
REMARK    9  A    between atoms: C_10  and  C_14 
REMARK   10  A    between atoms: C_16  and  C_20 
ROOT
HETATM    1  C   UNK N   1      28.794  23.011  -6.329  0.00  0.00     0.065 A 
HETATM    2  C   UNK N   1      27.750  22.433  -7.118  0.00  0.00     0.125 A 
HETATM    3  C   UNK N   1      26.413  22.719  -6.758  0.00  0.00     0.116 A 
HETATM    4  C   UNK N   1      28.463  23.807  -5.221  0.00  0.00     0.050 A 
HETATM    5  C   UNK N   1      27.137  24.049  -4.868  0.00  0.00     0.041 A 
HETATM    6  C   UNK N   1      26.118  23.512  -5.650  0.00  0.00     0.046 A 
ENDROOT
BRANCH   2   7
HETATM    7  O   UNK N   1      27.917  21.619  -8.207  0.00  0.00    -0.307 OA
BRANCH   7   8
HETATM    8  C   UNK N   1      28.650  20.535  -8.588  0.00  0.00     0.076 A 
HETATM    9  C   UNK N   1      28.973  19.470  -7.740  0.00  0.00     0.037 A 
HETATM   10  C   UNK N   1      29.730  18.389  -8.199  0.00  0.00     0.003 A 
HETATM   11  C   UNK N   1      30.182  18.365  -9.519  0.00  0.00     0.000 A 
HETATM   12  C   UNK N   1      29.879  19.426 -10.373  0.00  0.00     0.003 A 
HETATM   13  C   UNK N   1      29.118  20.503  -9.908  0.00  0.00     0.037 A 
ENDBRANCH   7   8
ENDBRANCH   2   7
BRANCH   1  14
HETATM   14  N   UNK N   1      30.160  22.813  -6.629  0.00  0.00    -0.388 N 
HETATM   15  H   UNK N   1      30.471  22.959  -7.551  0.00  0.00     0.159 HD
BRANCH  14  16
HETATM   16  C   UNK N   1      31.111  22.404  -5.625  0.00  0.00     0.120 C 
BRANCH  16  17
HETATM   17  C   UNK N   1      30.836  20.994  -5.157  0.00  0.00     0.019 C 
BRANCH  17  18
HETATM   18  C   UNK N   1      30.512  21.041  -3.680  0.00  0.00    -0.003 C 
HETATM   19  C   UNK N   1      31.450  22.001  -2.983  0.00  0.00     0.005 C 
ENDBRANCH  17  18
ENDBRANCH  16  17
ENDBRANCH  14  16
ENDBRANCH   1  14
BRANCH   3  20
HETATM   20  S   UNK N   1      25.049  22.068  -7.731  0.00  0.00     0.259 S 
HETATM   21  O   UNK N   1      24.425  23.114  -8.667  0.00  0.00    -0.201 OA
HETATM   22  O   UNK N   1      23.844  21.665  -6.866  0.00  0.00    -0.201 OA
BRANCH  20  23
HETATM   23  N   UNK N   1      25.369  20.666  -8.749  0.00  0.00    -0.324 N 
HETATM   24  H   UNK N   1      25.501  19.665  -8.898  0.00  0.00     0.169 HD
HETATM   25  H   UNK N   1      25.482  21.066  -9.680  0.00  0.00     0.169 HD
ENDBRANCH  20  23
ENDBRANCH   3  20
BRANCH   5  26
HETATM   26  C   UNK N   1      26.821  24.854  -3.671  0.00  0.00     0.176 C 
HETATM   27  O   UNK N   1      26.710  24.318  -2.578  0.00  0.00    -0.646 OA
BRANCH  26  28
HETATM   28  O   UNK N   1      26.672  26.189  -3.772  0.00  0.00    -0.773 OA
HETATM   29  H   UNK N   1      26.805  26.615  -4.597  0.00  0.00     0.167 HD
ENDBRANCH  26  28
ENDBRANCH   5  26
TORSDOF 10
ENDMDL
MODEL 8
REMARK VINA RESULT:      -5.8      8.951     12.173
REMARK  10 active torsions:
REMARK  status: ('A' for Active; 'I' for Inactive)
REMARK    1  A    between atoms: S_1  and  N_8 
REMARK    2  A    between atoms: S_1  and  C_13 
REMARK    3  A    between atoms: O_2  and  C_12 
REMARK    4  A    between atoms: O_2  and  C_19 
REMARK    5  A    between atoms: O_5  and  C_20 
REMARK    6  A    between atoms: N_7  and  C_9 
REMARK    7  A    between atoms: N_7  and  C_11 
REMARK    8  A    between atoms: C_9  and  C_10 
REMARK    9  A    between atoms: C_10  and  C_14 
REMARK   10  A    between atoms: C_16  and  C_20 
ROOT
HETATM    1  C   UNK N   1      36.467  13.498  13.604  0.00  0.00     0.065 A 
HETATM    2  C   UNK N   1      36.000  12.225  13.149  0.00  0.00     0.125 A 
HETATM    3  C   UNK N   1      35.290  12.180  11.928  0.00  0.00     0.116 A 
HETATM    4  C   UNK N   1      36.182  14.650  12.853  0.00  0.00     0.050 A 
HETATM    5  C   UNK N   1      35.453  14.583  11.668  0.00  0.00     0.041 A 
HETATM    6  C   UNK N   1      35.021  13.342  11.205  0.00  0.00     0.046 A 
ENDROOT
BRANCH   2   7
HETATM    7  O   UNK N   1      36.178  11.025  13.784  0.00  0.00    -0.307 OA
BRANCH   7   8
HETATM    8  C   UNK N   1      36.015  10.472  15.019  0.00  0.00     0.076 A 
HETATM    9  C   UNK N   1      37.073  10.077  15.845  0.00  0.00     0.037 A 
HETATM   10  C   UNK N   1      36.833   9.515  17.103  0.00  0.00     0.003 A 
HETATM   11  C   UNK N   1      35.522   9.333  17.545  0.00  0.00     0.000 A 
HETATM   12  C   UNK N   1      34.456   9.710  16.726  0.00  0.00     0.003 A 
HETATM   13  C   UNK N   1      34.705  10.274  15.472  0.00  0.00     0.037 A 
ENDBRANCH   7   8
ENDBRANCH   2   7
BRANCH   1  14
HETATM   14  N   UNK N   1      37.215  13.642  14.794  0.00  0.00    -0.388 N 
HETATM   15  H   UNK N   1      38.125  13.270  14.832  0.00  0.00     0.159 HD
BRANCH  14  16
HETATM   16  C   UNK N   1      36.686  14.318  15.953  0.00  0.00     0.120 C 
BRANCH  16  17
HETATM   17  C   UNK N   1      35.523  13.556  16.543  0.00  0.00     0.019 C 
BRANCH  17  18
HETATM   18  C   UNK N   1      35.334  14.012  17.973  0.00  0.00    -0.003 C 
HETATM   19  C   UNK N   1      35.233  12.808  18.883  0.00  0.00     0.005 C 
ENDBRANCH  17  18
ENDBRANCH  16  17
ENDBRANCH  14  16
ENDBRANCH   1  14
BRANCH   3  20
HETATM   20  S   UNK N   1      34.714  10.611  11.265  0.00  0.00     0.259 S 
HETATM   21  O   UNK N   1      34.216  10.716   9.817  0.00  0.00    -0.201 OA
HETATM   22  O   UNK N   1      33.465  10.085  11.989  0.00  0.00    -0.201 OA
BRANCH  20  23
HETATM   23  N   UNK N   1      35.846   9.260  11.270  0.00  0.00    -0.324 N 
HETATM   24  H   UNK N   1      36.782   8.861  11.353  0.00  0.00     0.169 HD
HETATM   25  H   UNK N   1      35.252   8.448  11.102  0.00  0.00     0.169 HD
ENDBRANCH  20  23
ENDBRANCH   3  20
BRANCH   5  26
HETATM   26  C   UNK N   1      35.131  15.816  10.922  0.00  0.00     0.176 C 
HETATM   27  O   UNK N   1      35.991  16.662  10.728  0.00  0.00    -0.646 OA
BRANCH  26  28
HETATM   28  O   UNK N   1      33.890  16.007  10.433  0.00  0.00    -0.773 OA
HETATM   29  H   UNK N   1      33.281  15.295  10.407  0.00  0.00     0.167 HD
ENDBRANCH  26  28
ENDBRANCH   5  26
TORSDOF 10
ENDMDL
MODEL 9
REMARK VINA RESULT:      -5.8     12.232     14.000
REMARK  10 active torsions:
REMARK  status: ('A' for Active; 'I' for Inactive)
REMARK    1  A    between atoms: S_1  and  N_8 
REMARK    2  A    between atoms: S_1  and  C_13 
REMARK    3  A    between atoms: O_2  and  C_12 
REMARK    4  A    between atoms: O_2  and  C_19 
REMARK    5  A    between atoms: O_5  and  C_20 
REMARK    6  A    between atoms: N_7  and  C_9 
REMARK    7  A    between atoms: N_7  and  C_11 
REMARK    8  A    between atoms: C_9  and  C_10 
REMARK    9  A    between atoms: C_10  and  C_14 
REMARK   10  A    between atoms: C_16  and  C_20 
ROOT
HETATM    1  C   UNK N   1      29.492  22.199  -5.876  0.00  0.00     0.065 A 
HETATM    2  C   UNK N   1      28.369  23.084  -5.914  0.00  0.00     0.125 A 
HETATM    3  C   UNK N   1      28.078  23.834  -4.752  0.00  0.00     0.116 A 
HETATM    4  C   UNK N   1      30.241  22.082  -4.694  0.00  0.00     0.050 A 
HETATM    5  C   UNK N   1      29.916  22.810  -3.551  0.00  0.00     0.041 A 
HETATM    6  C   UNK N   1      28.841  23.693  -3.593  0.00  0.00     0.046 A 
ENDROOT
BRANCH   2   7
HETATM    7  O   UNK N   1      27.534  23.283  -6.981  0.00  0.00    -0.307 OA
BRANCH   7   8
HETATM    8  C   UNK N   1      26.997  22.587  -8.022  0.00  0.00     0.076 A 
HETATM    9  C   UNK N   1      26.057  21.562  -7.876  0.00  0.00     0.037 A 
HETATM   10  C   UNK N   1      25.548  20.888  -8.990  0.00  0.00     0.003 A 
HETATM   11  C   UNK N   1      25.986  21.230 -10.270  0.00  0.00     0.000 A 
HETATM   12  C   UNK N   1      26.933  22.242 -10.431  0.00  0.00     0.003 A 
HETATM   13  C   UNK N   1      27.435  22.913  -9.312  0.00  0.00     0.037 A 
ENDBRANCH   7   8
ENDBRANCH   2   7
BRANCH   1  14
HETATM   14  N   UNK N   1      29.884  21.434  -6.997  0.00  0.00    -0.388 N 
HETATM   15  H   UNK N   1      30.012  21.886  -7.861  0.00  0.00     0.159 HD
BRANCH  14  16
HETATM   16  C   UNK N   1      30.101  20.010  -6.912  0.00  0.00     0.120 C 
BRANCH  16  17
HETATM   17  C   UNK N   1      29.142  19.260  -7.806  0.00  0.00     0.019 C 
BRANCH  17  18
HETATM   18  C   UNK N   1      29.904  18.782  -9.022  0.00  0.00    -0.003 C 
HETATM   19  C   UNK N   1      29.580  19.663 -10.207  0.00  0.00     0.005 C 
ENDBRANCH  17  18
ENDBRANCH  16  17
ENDBRANCH  14  16
ENDBRANCH   1  14
BRANCH   3  20
HETATM   20  S   UNK N   1      26.713  25.003  -4.739  0.00  0.00     0.259 S 
HETATM   21  O   UNK N   1      27.057  26.337  -5.417  0.00  0.00    -0.201 OA
HETATM   22  O   UNK N   1      26.337  25.460  -3.321  0.00  0.00    -0.201 OA
BRANCH  20  23
HETATM   23  N   UNK N   1      25.193  24.489  -5.470  0.00  0.00    -0.324 N 
HETATM   24  H   UNK N   1      24.396  23.857  -5.556  0.00  0.00     0.169 HD
HETATM   25  H   UNK N   1      25.019  25.196  -6.184  0.00  0.00     0.169 HD
ENDBRANCH  20  23
ENDBRANCH   3  20
BRANCH   5  26
HETATM   26  C   UNK N   1      30.695  22.632  -2.310  0.00  0.00     0.176 C 
HETATM   27  O   UNK N   1      31.785  22.080  -2.338  0.00  0.00    -0.646 OA
BRANCH  26  28
HETATM   28  O   UNK N   1      30.218  23.096  -1.139  0.00  0.00    -0.773 OA
HETATM   29  H   UNK N   1      30.703  22.962  -0.348  0.00  0.00     0.167 HD
ENDBRANCH  26  28
ENDBRANCH   5  26
TORSDOF 10
ENDMDL
