MODEL 1
REMARK VINA RESULT:      -3.0      0.000      0.000
REMARK  4 active torsions:
REMARK  status: ('A' for Active; 'I' for Inactive)
REMARK    1  A    between atoms: N_3  and  C_4 
REMARK    2  A    between atoms: N_3  and  C_5 
REMARK    3  A    between atoms: C_4  and  C_7 
REMARK    4  A    between atoms: C_5  and  C_8 
ROOT
HETATM    1  N   UNK N   1      23.168  12.546   9.464  0.00  0.00     0.086 N 
HETATM    2  C   UNK N   1      24.541  13.037   9.519  0.00  0.00     0.310 C 
ENDROOT
BRANCH   1   3
HETATM    3  C   UNK N   1      22.708  12.356  10.833  0.00  0.00     0.286 C 
BRANCH   3   4
HETATM    4  C   UNK N   1      23.859  11.961  11.744  0.00  0.00     0.144 C 
HETATM    5 Cl   UNK N   1      23.309  11.976  13.436  0.00  0.00    -0.129 Cl
ENDBRANCH   3   4
ENDBRANCH   1   3
BRANCH   1   6
HETATM    6  C   UNK N   1      22.341  13.601   8.892  0.00  0.00     0.286 C 
BRANCH   6   7
HETATM    7  C   UNK N   1      21.161  13.920   9.798  0.00  0.00     0.144 C 
HETATM    8 Cl   UNK N   1      20.207  15.240   9.086  0.00  0.00    -0.129 Cl
ENDBRANCH   6   7
ENDBRANCH   1   6
TORSDOF 4
ENDMDL
MODEL 2
REMARK VINA RESULT:      -3.0      2.110      2.628
REMARK  4 active torsions:
REMARK  status: ('A' for Active; 'I' for Inactive)
REMARK    1  A    between atoms: N_3  and  C_4 
REMARK    2  A    between atoms: N_3  and  C_5 
REMARK    3  A    between atoms: C_4  and  C_7 
REMARK    4  A    between atoms: C_5  and  C_8 
ROOT
HETATM    1  N   UNK N   1      21.957  13.370  10.047  0.00  0.00     0.086 N 
HETATM    2  C   UNK N   1      20.602  13.878   9.864  0.00  0.00     0.310 C 
ENDROOT
BRANCH   1   3
HETATM    3  C   UNK N   1      21.905  12.312  11.047  0.00  0.00     0.286 C 
BRANCH   3   4
HETATM    4  C   UNK N   1      23.299  11.958  11.540  0.00  0.00     0.144 C 
HETATM    5 Cl   UNK N   1      23.305  11.907  13.318  0.00  0.00    -0.129 Cl
ENDBRANCH   3   4
ENDBRANCH   1   3
BRANCH   1   6
HETATM    6  C   UNK N   1      22.369  12.741   8.800  0.00  0.00     0.286 C 
BRANCH   6   7
HETATM    7  C   UNK N   1      23.295  13.653   8.009  0.00  0.00     0.144 C 
HETATM    8 Cl   UNK N   1      24.981  13.339   8.478  0.00  0.00    -0.129 Cl
ENDBRANCH   6   7
ENDBRANCH   1   6
TORSDOF 4
ENDMDL
MODEL 3
REMARK VINA RESULT:      -2.9      0.758      3.905
REMARK  4 active torsions:
REMARK  status: ('A' for Active; 'I' for Inactive)
REMARK    1  A    between atoms: N_3  and  C_4 
REMARK    2  A    between atoms: N_3  and  C_5 
REMARK    3  A    between atoms: C_4  and  C_7 
REMARK    4  A    between atoms: C_5  and  C_8 
ROOT
HETATM    1  N   UNK N   1      22.899  13.317   9.847  0.00  0.00     0.086 N 
HETATM    2  C   UNK N   1      24.331  13.086   9.685  0.00  0.00     0.310 C 
ENDROOT
BRANCH   1   3
HETATM    3  C   UNK N   1      22.234  12.848   8.639  0.00  0.00     0.286 C 
BRANCH   3   4
HETATM    4  C   UNK N   1      20.938  13.607   8.401  0.00  0.00     0.144 C 
HETATM    5 Cl   UNK N   1      21.089  15.257   9.046  0.00  0.00    -0.129 Cl
ENDBRANCH   3   4
ENDBRANCH   1   3
BRANCH   1   6
HETATM    6  C   UNK N   1      22.431  12.468  10.934  0.00  0.00     0.286 C 
BRANCH   6   7
HETATM    7  C   UNK N   1      23.601  11.846  11.682  0.00  0.00     0.144 C 
HETATM    8 Cl   UNK N   1      23.333  11.996  13.433  0.00  0.00    -0.129 Cl
ENDBRANCH   6   7
ENDBRANCH   1   6
TORSDOF 4
ENDMDL
MODEL 4
REMARK VINA RESULT:      -2.9     12.540     13.811
REMARK  4 active torsions:
REMARK  status: ('A' for Active; 'I' for Inactive)
REMARK    1  A    between atoms: N_3  and  C_4 
REMARK    2  A    between atoms: N_3  and  C_5 
REMARK    3  A    between atoms: C_4  and  C_7 
REMARK    4  A    between atoms: C_5  and  C_8 
ROOT
HETATM    1  N   UNK N   1      35.473  13.370  14.479  0.00  0.00     0.086 N 
HETATM    2  C   UNK N   1      36.209  14.303  13.633  0.00  0.00     0.310 C 
ENDROOT
BRANCH   1   3
HETATM    3  C   UNK N   1      35.732  12.024  13.987  0.00  0.00     0.286 C 
BRANCH   3   4
HETATM    4  C   UNK N   1      34.478  11.415  13.380  0.00  0.00     0.144 C 
HETATM    5 Cl   UNK N   1      33.473  10.715  14.670  0.00  0.00    -0.129 Cl
ENDBRANCH   3   4
ENDBRANCH   1   3
BRANCH   1   6
HETATM    6  C   UNK N   1      36.043  13.439  15.818  0.00  0.00     0.286 C 
BRANCH   6   7
HETATM    7  C   UNK N   1      34.971  13.238  16.878  0.00  0.00     0.144 C 
HETATM    8 Cl   UNK N   1      35.289  11.730  17.764  0.00  0.00    -0.129 Cl
ENDBRANCH   6   7
ENDBRANCH   1   6
TORSDOF 4
ENDMDL
MODEL 5
REMARK VINA RESULT:      -2.9     12.625     13.916
REMARK  4 active torsions:
REMARK  status: ('A' for Active; 'I' for Inactive)
REMARK    1  A    between atoms: N_3  and  C_4 
REMARK    2  A    between atoms: N_3  and  C_5 
REMARK    3  A    between atoms: C_4  and  C_7 
REMARK    4  A    between atoms: C_5  and  C_8 
ROOT
HETATM    1  N   UNK N   1      35.373  13.205  13.611  0.00  0.00     0.086 N 
HETATM    2  C   UNK N   1      35.036  13.350  12.199  0.00  0.00     0.310 C 
ENDROOT
BRANCH   1   3
HETATM    3  C   UNK N   1      35.964  11.886  13.794  0.00  0.00     0.286 C 
BRANCH   3   4
HETATM    4  C   UNK N   1      34.944  10.790  13.530  0.00  0.00     0.144 C 
HETATM    5 Cl   UNK N   1      33.610  10.926  14.699  0.00  0.00    -0.129 Cl
ENDBRANCH   3   4
ENDBRANCH   1   3
BRANCH   1   6
HETATM    6  C   UNK N   1      36.416  14.173  13.922  0.00  0.00     0.286 C 
BRANCH   6   7
HETATM    7  C   UNK N   1      36.808  14.100  15.390  0.00  0.00     0.144 C 
HETATM    8 Cl   UNK N   1      37.461  15.670  15.908  0.00  0.00    -0.129 Cl
ENDBRANCH   6   7
ENDBRANCH   1   6
TORSDOF 4
ENDMDL
MODEL 6
REMARK VINA RESULT:      -2.8     10.699     12.072
REMARK  4 active torsions:
REMARK  status: ('A' for Active; 'I' for Inactive)
REMARK    1  A    between atoms: N_3  and  C_4 
REMARK    2  A    between atoms: N_3  and  C_5 
REMARK    3  A    between atoms: C_4  and  C_7 
REMARK    4  A    between atoms: C_5  and  C_8 
ROOT
HETATM    1  N   UNK N   1      33.246  18.100   7.734  0.00  0.00     0.086 N 
HETATM    2  C   UNK N   1      33.420  17.532   6.401  0.00  0.00     0.310 C 
ENDROOT
BRANCH   1   3
HETATM    3  C   UNK N   1      32.298  17.260   8.454  0.00  0.00     0.286 C 
BRANCH   3   4
HETATM    4  C   UNK N   1      30.867  17.621   8.095  0.00  0.00     0.144 C 
HETATM    5 Cl   UNK N   1      30.223  18.764   9.297  0.00  0.00    -0.129 Cl
ENDBRANCH   3   4
ENDBRANCH   1   3
BRANCH   1   6
HETATM    6  C   UNK N   1      34.517  17.987   8.435  0.00  0.00     0.286 C 
BRANCH   6   7
HETATM    7  C   UNK N   1      34.657  16.622   9.094  0.00  0.00     0.144 C 
HETATM    8 Cl   UNK N   1      35.430  16.808  10.684  0.00  0.00    -0.129 Cl
ENDBRANCH   6   7
ENDBRANCH   1   6
TORSDOF 4
ENDMDL
MODEL 7
REMARK VINA RESULT:      -2.8      9.189     10.069
REMARK  4 active torsions:
REMARK  status: ('A' for Active; 'I' for Inactive)
REMARK    1  A    between atoms: N_3  and  C_4 
REMARK    2  A    between atoms: N_3  and  C_5 
REMARK    3  A    between atoms: C_4  and  C_7 
REMARK    4  A    between atoms: C_5  and  C_8 
ROOT
HETATM    1  N   UNK N   1      30.670  16.968   8.271  0.00  0.00     0.086 N 
HETATM    2  C   UNK N   1      30.381  17.008   6.842  0.00  0.00     0.310 C 
ENDROOT
BRANCH   1   3
HETATM    3  C   UNK N   1      32.036  16.491   8.436  0.00  0.00     0.286 C 
BRANCH   3   4
HETATM    4  C   UNK N   1      33.018  17.651   8.464  0.00  0.00     0.144 C 
HETATM    5 Cl   UNK N   1      33.973  17.657   6.964  0.00  0.00    -0.129 Cl
ENDBRANCH   3   4
ENDBRANCH   1   3
BRANCH   1   6
HETATM    6  C   UNK N   1      30.645  18.337   8.769  0.00  0.00     0.286 C 
BRANCH   6   7
HETATM    7  C   UNK N   1      29.599  18.501   9.861  0.00  0.00     0.144 C 
HETATM    8 Cl   UNK N   1      28.030  17.909   9.273  0.00  0.00    -0.129 Cl
ENDBRANCH   6   7
ENDBRANCH   1   6
TORSDOF 4
ENDMDL
MODEL 8
REMARK VINA RESULT:      -2.8     13.835     14.218
REMARK  4 active torsions:
REMARK  status: ('A' for Active; 'I' for Inactive)
REMARK    1  A    between atoms: N_3  and  C_4 
REMARK    2  A    between atoms: N_3  and  C_5 
REMARK    3  A    between atoms: C_4  and  C_7 
REMARK    4  A    between atoms: C_5  and  C_8 
ROOT
HETATM    1  N   UNK N   1      36.754  13.460  14.838  0.00  0.00     0.086 N 
HETATM    2  C   UNK N   1      37.085  14.690  15.551  0.00  0.00     0.310 C 
ENDROOT
BRANCH   1   3
HETATM    3  C   UNK N   1      36.169  12.533  15.797  0.00  0.00     0.286 C 
BRANCH   3   4
HETATM    4  C   UNK N   1      34.896  13.104  16.400  0.00  0.00     0.144 C 
HETATM    5 Cl   UNK N   1      35.085  13.244  18.163  0.00  0.00    -0.129 Cl
ENDBRANCH   3   4
ENDBRANCH   1   3
BRANCH   1   6
HETATM    6  C   UNK N   1      35.709  13.773  13.873  0.00  0.00     0.286 C 
BRANCH   6   7
HETATM    7  C   UNK N   1      36.293  13.968  12.481  0.00  0.00     0.144 C 
HETATM    8 Cl   UNK N   1      35.870  15.588  11.883  0.00  0.00    -0.129 Cl
ENDBRANCH   6   7
ENDBRANCH   1   6
TORSDOF 4
ENDMDL
MODEL 9
REMARK VINA RESULT:      -2.8     11.004     11.525
REMARK  4 active torsions:
REMARK  status: ('A' for Active; 'I' for Inactive)
REMARK    1  A    between atoms: N_3  and  C_4 
REMARK    2  A    between atoms: N_3  and  C_5 
REMARK    3  A    between atoms: C_4  and  C_7 
REMARK    4  A    between atoms: C_5  and  C_8 
ROOT
HETATM    1  N   UNK N   1      31.944  17.647   7.874  0.00  0.00     0.086 N 
HETATM    2  C   UNK N   1      30.914  18.087   8.810  0.00  0.00     0.310 C 
ENDROOT
BRANCH   1   3
HETATM    3  C   UNK N   1      32.689  16.568   8.508  0.00  0.00     0.286 C 
BRANCH   3   4
HETATM    4  C   UNK N   1      34.008  17.073   9.070  0.00  0.00     0.144 C 
HETATM    5 Cl   UNK N   1      34.529  18.510   8.161  0.00  0.00    -0.129 Cl
ENDBRANCH   3   4
ENDBRANCH   1   3
BRANCH   1   6
HETATM    6  C   UNK N   1      31.276  17.067   6.717  0.00  0.00     0.286 C 
BRANCH   6   7
HETATM    7  C   UNK N   1      32.274  16.376   5.801  0.00  0.00     0.144 C 
HETATM    8 Cl   UNK N   1      33.254  17.599   4.962  0.00  0.00    -0.129 Cl
ENDBRANCH   6   7
ENDBRANCH   1   6
TORSDOF 4
ENDMDL
