MODEL 1
REMARK VINA RESULT:      -6.1      0.000      0.000
REMARK  4 active torsions:
REMARK  status: ('A' for Active; 'I' for Inactive)
REMARK    1  A    between atoms: S_1  and  N_4 
REMARK    2  A    between atoms: S_1  and  C_8 
REMARK    3  A    between atoms: N_4  and  C_11 
REMARK    4  A    between atoms: N_7  and  C_12 
ROOT
HETATM    1  S   UNK N   1      33.711  17.575   7.575  0.00  0.00     0.264 S 
HETATM    2  O   UNK N   1      34.440  16.461   8.334  0.00  0.00    -0.200 OA
HETATM    3  O   UNK N   1      34.799  18.646   7.746  0.00  0.00    -0.200 OA
ENDROOT
BRANCH   1   4
HETATM    4  N   UNK N   1      32.506  17.939   8.806  0.00  0.00    -0.266 N 
HETATM    5  H   UNK N   1      32.840  18.185   9.700  0.00  0.00     0.180 HD
BRANCH   4   6
HETATM    6  C   UNK N   1      31.104  17.913   8.631  0.00  0.00     0.114 A 
HETATM    7  N   UNK N   1      30.270  18.462   9.553  0.00  0.00    -0.352 N 
HETATM    8  C   UNK N   1      28.916  18.412   9.398  0.00  0.00     0.089 A 
ATOM      9  HN  UNK N   1      30.663  18.920  10.374  1.00  0.00     0.166 HD
HETATM   10  C   UNK N   1      28.357  17.803   8.269  0.00  0.00     0.017 A 
HETATM   11  C   UNK N   1      29.198  17.244   7.309  0.00  0.00     0.005 A 
HETATM   12  C   UNK N   1      30.579  17.290   7.492  0.00  0.00     0.049 A 
ENDBRANCH   4   6
ENDBRANCH   1   4
BRANCH   1  13
HETATM   13  C   UNK N   1      33.714  16.871   5.920  0.00  0.00     0.080 A 
HETATM   14  C   UNK N   1      34.324  15.619   5.760  0.00  0.00     0.027 A 
HETATM   15  C   UNK N   1      34.296  14.962   4.532  0.00  0.00     0.030 A 
HETATM   16  C   UNK N   1      33.652  15.551   3.446  0.00  0.00     0.025 A 
HETATM   17  C   UNK N   1      33.045  16.807   3.590  0.00  0.00     0.030 A 
HETATM   18  C   UNK N   1      33.072  17.470   4.830  0.00  0.00     0.027 A 
BRANCH  16  19
HETATM   19  N   UNK N   1      33.605  14.873   2.212  0.00  0.00    -0.399 N 
HETATM   20  H   UNK N   1      33.794  15.358   1.376  0.00  0.00     0.156 HD
HETATM   21  H   UNK N   1      33.382  13.915   2.185  0.00  0.00     0.156 HD
ENDBRANCH  16  19
ENDBRANCH   1  13
TORSDOF 4
ENDMDL
MODEL 2
REMARK VINA RESULT:      -6.1      3.066      4.240
REMARK  4 active torsions:
REMARK  status: ('A' for Active; 'I' for Inactive)
REMARK    1  A    between atoms: S_1  and  N_4 
REMARK    2  A    between atoms: S_1  and  C_8 
REMARK    3  A    between atoms: N_4  and  C_11 
REMARK    4  A    between atoms: N_7  and  C_12 
ROOT
HETATM    1  S   UNK N   1      33.621  17.343   7.634  0.00  0.00     0.264 S 
HETATM    2  O   UNK N   1      33.546  18.691   8.358  0.00  0.00    -0.200 OA
HETATM    3  O   UNK N   1      34.459  17.829   6.442  0.00  0.00    -0.200 OA
ENDROOT
BRANCH   1   4
HETATM    4  N   UNK N   1      31.961  17.305   7.049  0.00  0.00    -0.266 N 
HETATM    5  H   UNK N   1      31.826  17.074   6.101  0.00  0.00     0.180 HD
BRANCH   4   6
HETATM    6  C   UNK N   1      30.803  17.574   7.813  0.00  0.00     0.114 A 
HETATM    7  N   UNK N   1      30.891  18.109   9.060  0.00  0.00    -0.352 N 
HETATM    8  C   UNK N   1      29.776  18.343   9.807  0.00  0.00     0.089 A 
ATOM      9  HN  UNK N   1      31.808  18.339   9.442  1.00  0.00     0.166 HD
HETATM   10  C   UNK N   1      28.508  18.048   9.295  0.00  0.00     0.017 A 
HETATM   11  C   UNK N   1      28.398  17.509   8.014  0.00  0.00     0.005 A 
HETATM   12  C   UNK N   1      29.551  17.262   7.270  0.00  0.00     0.049 A 
ENDBRANCH   4   6
ENDBRANCH   1   4
BRANCH   1  13
HETATM   13  C   UNK N   1      34.609  16.415   8.816  0.00  0.00     0.080 A 
HETATM   14  C   UNK N   1      35.094  15.167   8.402  0.00  0.00     0.027 A 
HETATM   15  C   UNK N   1      35.938  14.420   9.221  0.00  0.00     0.030 A 
HETATM   16  C   UNK N   1      36.312  14.917  10.467  0.00  0.00     0.025 A 
HETATM   17  C   UNK N   1      35.827  16.160  10.898  0.00  0.00     0.030 A 
HETATM   18  C   UNK N   1      34.976  16.915  10.071  0.00  0.00     0.027 A 
BRANCH  16  19
HETATM   19  N   UNK N   1      37.184  14.170  11.283  0.00  0.00    -0.399 N 
HETATM   20  H   UNK N   1      36.825  13.478  11.883  0.00  0.00     0.156 HD
HETATM   21  H   UNK N   1      38.154  14.340  11.252  0.00  0.00     0.156 HD
ENDBRANCH  16  19
ENDBRANCH   1  13
TORSDOF 4
ENDMDL
MODEL 3
REMARK VINA RESULT:      -6.1     10.605     12.158
REMARK  4 active torsions:
REMARK  status: ('A' for Active; 'I' for Inactive)
REMARK    1  A    between atoms: S_1  and  N_4 
REMARK    2  A    between atoms: S_1  and  C_8 
REMARK    3  A    between atoms: N_4  and  C_11 
REMARK    4  A    between atoms: N_7  and  C_12 
ROOT
HETATM    1  S   UNK N   1      21.094  20.042   2.607  0.00  0.00     0.264 S 
HETATM    2  O   UNK N   1      20.385  20.665   3.814  0.00  0.00    -0.200 OA
HETATM    3  O   UNK N   1      21.034  21.285   1.706  0.00  0.00    -0.200 OA
ENDROOT
BRANCH   1   4
HETATM    4  N   UNK N   1      19.770  19.014   2.069  0.00  0.00    -0.266 N 
HETATM    5  H   UNK N   1      18.869  19.412   2.063  0.00  0.00     0.180 HD
BRANCH   4   6
HETATM    6  C   UNK N   1      19.879  17.671   1.643  0.00  0.00     0.114 A 
HETATM    7  N   UNK N   1      19.217  17.226   0.542  0.00  0.00    -0.352 N 
HETATM    8  C   UNK N   1      19.300  15.924   0.147  0.00  0.00     0.089 A 
ATOM      9  HN  UNK N   1      18.648  17.878   0.002  1.00  0.00     0.166 HD
HETATM   10  C   UNK N   1      20.088  15.018   0.865  0.00  0.00     0.017 A 
HETATM   11  C   UNK N   1      20.782  15.459   1.990  0.00  0.00     0.005 A 
HETATM   12  C   UNK N   1      20.672  16.791   2.388  0.00  0.00     0.049 A 
ENDBRANCH   4   6
ENDBRANCH   1   4
BRANCH   1  13
HETATM   13  C   UNK N   1      22.734  19.798   3.306  0.00  0.00     0.080 A 
HETATM   14  C   UNK N   1      22.893  18.734   4.204  0.00  0.00     0.027 A 
HETATM   15  C   UNK N   1      24.146  18.420   4.726  0.00  0.00     0.030 A 
HETATM   16  C   UNK N   1      25.259  19.168   4.351  0.00  0.00     0.025 A 
HETATM   17  C   UNK N   1      25.113  20.242   3.460  0.00  0.00     0.030 A 
HETATM   18  C   UNK N   1      23.848  20.558   2.932  0.00  0.00     0.027 A 
BRANCH  16  19
HETATM   19  N   UNK N   1      26.528  18.833   4.862  0.00  0.00    -0.399 N 
HETATM   20  H   UNK N   1      26.695  18.874   5.831  0.00  0.00     0.156 HD
HETATM   21  H   UNK N   1      27.249  18.559   4.250  0.00  0.00     0.156 HD
ENDBRANCH  16  19
ENDBRANCH   1  13
TORSDOF 4
ENDMDL
MODEL 4
REMARK VINA RESULT:      -6.0      8.649     10.819
REMARK  4 active torsions:
REMARK  status: ('A' for Active; 'I' for Inactive)
REMARK    1  A    between atoms: S_1  and  N_4 
REMARK    2  A    between atoms: S_1  and  C_8 
REMARK    3  A    between atoms: N_4  and  C_11 
REMARK    4  A    between atoms: N_7  and  C_12 
ROOT
HETATM    1  S   UNK N   1      35.739  13.437  14.333  0.00  0.00     0.264 S 
HETATM    2  O   UNK N   1      36.828  12.419  13.979  0.00  0.00    -0.200 OA
HETATM    3  O   UNK N   1      34.599  12.749  13.567  0.00  0.00    -0.200 OA
ENDROOT
BRANCH   1   4
HETATM    4  N   UNK N   1      36.288  14.736  13.279  0.00  0.00    -0.266 N 
HETATM    5  H   UNK N   1      36.845  15.438  13.688  0.00  0.00     0.180 HD
BRANCH   4   6
HETATM    6  C   UNK N   1      36.004  14.865  11.900  0.00  0.00     0.114 A 
HETATM    7  N   UNK N   1      36.146  13.813  11.052  0.00  0.00    -0.352 N 
HETATM    8  C   UNK N   1      35.899  13.944   9.718  0.00  0.00     0.089 A 
ATOM      9  HN  UNK N   1      36.442  12.909  11.420  1.00  0.00     0.166 HD
HETATM   10  C   UNK N   1      35.477  15.171   9.196  0.00  0.00     0.017 A 
HETATM   11  C   UNK N   1      35.316  16.258  10.053  0.00  0.00     0.005 A 
HETATM   12  C   UNK N   1      35.589  16.109  11.412  0.00  0.00     0.049 A 
ENDBRANCH   4   6
ENDBRANCH   1   4
BRANCH   1  13
HETATM   13  C   UNK N   1      35.622  13.157  16.106  0.00  0.00     0.080 A 
HETATM   14  C   UNK N   1      35.575  14.290  16.929  0.00  0.00     0.027 A 
HETATM   15  C   UNK N   1      35.398  14.167  18.306  0.00  0.00     0.030 A 
HETATM   16  C   UNK N   1      35.261  12.904  18.875  0.00  0.00     0.025 A 
HETATM   17  C   UNK N   1      35.315  11.761  18.065  0.00  0.00     0.030 A 
HETATM   18  C   UNK N   1      35.492  11.885  16.675  0.00  0.00     0.027 A 
BRANCH  16  19
HETATM   19  N   UNK N   1      35.058  12.784  20.265  0.00  0.00    -0.399 N 
HETATM   20  H   UNK N   1      34.229  13.124  20.673  0.00  0.00     0.156 HD
HETATM   21  H   UNK N   1      35.746  12.361  20.828  0.00  0.00     0.156 HD
ENDBRANCH  16  19
ENDBRANCH   1  13
TORSDOF 4
ENDMDL
MODEL 5
REMARK VINA RESULT:      -5.9      3.615      5.209
REMARK  4 active torsions:
REMARK  status: ('A' for Active; 'I' for Inactive)
REMARK    1  A    between atoms: S_1  and  N_4 
REMARK    2  A    between atoms: S_1  and  C_8 
REMARK    3  A    between atoms: N_4  and  C_11 
REMARK    4  A    between atoms: N_7  and  C_12 
ROOT
HETATM    1  S   UNK N   1      34.182  17.765   8.630  0.00  0.00     0.264 S 
HETATM    2  O   UNK N   1      34.996  16.868   7.691  0.00  0.00    -0.200 OA
HETATM    3  O   UNK N   1      34.896  19.079   8.280  0.00  0.00    -0.200 OA
ENDROOT
BRANCH   1   4
HETATM    4  N   UNK N   1      34.908  17.231  10.142  0.00  0.00    -0.266 N 
HETATM    5  H   UNK N   1      35.248  17.931  10.747  0.00  0.00     0.180 HD
BRANCH   4   6
HETATM    6  C   UNK N   1      35.049  15.892  10.571  0.00  0.00     0.114 A 
HETATM    7  N   UNK N   1      34.484  14.868   9.877  0.00  0.00    -0.352 N 
HETATM    8  C   UNK N   1      34.597  13.579  10.306  0.00  0.00     0.089 A 
ATOM      9  HN  UNK N   1      33.968  15.069   9.021  1.00  0.00     0.166 HD
HETATM   10  C   UNK N   1      35.315  13.282  11.469  0.00  0.00     0.017 A 
HETATM   11  C   UNK N   1      35.909  14.318  12.187  0.00  0.00     0.005 A 
HETATM   12  C   UNK N   1      35.770  15.633  11.742  0.00  0.00     0.049 A 
ENDBRANCH   4   6
ENDBRANCH   1   4
BRANCH   1  13
HETATM   13  C   UNK N   1      32.568  17.647   7.844  0.00  0.00     0.080 A 
HETATM   14  C   UNK N   1      32.539  17.239   6.504  0.00  0.00     0.027 A 
HETATM   15  C   UNK N   1      31.329  17.038   5.844  0.00  0.00     0.030 A 
HETATM   16  C   UNK N   1      30.129  17.240   6.522  0.00  0.00     0.025 A 
HETATM   17  C   UNK N   1      30.143  17.657   7.860  0.00  0.00     0.030 A 
HETATM   18  C   UNK N   1      31.365  17.858   8.527  0.00  0.00     0.027 A 
BRANCH  16  19
HETATM   19  N   UNK N   1      28.907  17.013   5.858  0.00  0.00    -0.399 N 
HETATM   20  H   UNK N   1      28.831  17.188   4.892  0.00  0.00     0.156 HD
HETATM   21  H   UNK N   1      28.128  16.681   6.361  0.00  0.00     0.156 HD
ENDBRANCH  16  19
ENDBRANCH   1  13
TORSDOF 4
ENDMDL
MODEL 6
REMARK VINA RESULT:      -5.9      4.267      5.353
REMARK  4 active torsions:
REMARK  status: ('A' for Active; 'I' for Inactive)
REMARK    1  A    between atoms: S_1  and  N_4 
REMARK    2  A    between atoms: S_1  and  C_8 
REMARK    3  A    between atoms: N_4  and  C_11 
REMARK    4  A    between atoms: N_7  and  C_12 
ROOT
HETATM    1  S   UNK N   1      28.377  18.288   7.870  0.00  0.00     0.264 S 
HETATM    2  O   UNK N   1      27.702  17.113   7.156  0.00  0.00    -0.200 OA
HETATM    3  O   UNK N   1      27.828  17.981   9.272  0.00  0.00    -0.200 OA
ENDROOT
BRANCH   1   4
HETATM    4  N   UNK N   1      27.344  19.565   7.237  0.00  0.00    -0.266 N 
HETATM    5  H   UNK N   1      27.143  20.318   7.841  0.00  0.00     0.180 HD
BRANCH   4   6
HETATM    6  C   UNK N   1      26.776  19.612   5.944  0.00  0.00     0.114 A 
HETATM    7  N   UNK N   1      25.540  19.101   5.699  0.00  0.00    -0.352 N 
HETATM    8  C   UNK N   1      25.004  19.121   4.446  0.00  0.00     0.089 A 
ATOM      9  HN  UNK N   1      25.005  18.695   6.467  1.00  0.00     0.166 HD
HETATM   10  C   UNK N   1      25.715  19.688   3.384  0.00  0.00     0.017 A 
HETATM   11  C   UNK N   1      26.979  20.226   3.618  0.00  0.00     0.005 A 
HETATM   12  C   UNK N   1      27.518  20.182   4.903  0.00  0.00     0.049 A 
ENDBRANCH   4   6
ENDBRANCH   1   4
BRANCH   1  13
HETATM   13  C   UNK N   1      30.100  17.800   7.701  0.00  0.00     0.080 A 
HETATM   14  C   UNK N   1      30.467  17.151   6.515  0.00  0.00     0.027 A 
HETATM   15  C   UNK N   1      31.795  16.816   6.264  0.00  0.00     0.030 A 
HETATM   16  C   UNK N   1      32.777  17.132   7.200  0.00  0.00     0.025 A 
HETATM   17  C   UNK N   1      32.424  17.773   8.396  0.00  0.00     0.030 A 
HETATM   18  C   UNK N   1      31.083  18.113   8.649  0.00  0.00     0.027 A 
BRANCH  16  19
HETATM   19  N   UNK N   1      34.123  16.813   6.933  0.00  0.00    -0.399 N 
HETATM   20  H   UNK N   1      34.796  17.529   6.867  0.00  0.00     0.156 HD
HETATM   21  H   UNK N   1      34.392  15.873   6.810  0.00  0.00     0.156 HD
ENDBRANCH  16  19
ENDBRANCH   1  13
TORSDOF 4
ENDMDL
MODEL 7
REMARK VINA RESULT:      -5.9      3.566      5.790
REMARK  4 active torsions:
REMARK  status: ('A' for Active; 'I' for Inactive)
REMARK    1  A    between atoms: S_1  and  N_4 
REMARK    2  A    between atoms: S_1  and  C_8 
REMARK    3  A    between atoms: N_4  and  C_11 
REMARK    4  A    between atoms: N_7  and  C_12 
ROOT
HETATM    1  S   UNK N   1      29.028  17.708   8.642  0.00  0.00     0.264 S 
HETATM    2  O   UNK N   1      29.251  18.998   9.437  0.00  0.00    -0.200 OA
HETATM    3  O   UNK N   1      27.939  17.125   9.556  0.00  0.00    -0.200 OA
ENDROOT
BRANCH   1   4
HETATM    4  N   UNK N   1      30.514  16.890   9.112  0.00  0.00    -0.266 N 
HETATM    5  H   UNK N   1      30.452  16.239   9.850  0.00  0.00     0.180 HD
BRANCH   4   6
HETATM    6  C   UNK N   1      31.788  17.078   8.530  0.00  0.00     0.114 A 
HETATM    7  N   UNK N   1      32.916  17.070   9.288  0.00  0.00    -0.352 N 
HETATM    8  C   UNK N   1      34.142  17.279   8.730  0.00  0.00     0.089 A 
ATOM      9  HN  UNK N   1      32.844  16.904  10.291  1.00  0.00     0.166 HD
HETATM   10  C   UNK N   1      34.264  17.493   7.353  0.00  0.00     0.017 A 
HETATM   11  C   UNK N   1      33.118  17.494   6.559  0.00  0.00     0.005 A 
HETATM   12  C   UNK N   1      31.871  17.294   7.149  0.00  0.00     0.049 A 
ENDBRANCH   4   6
ENDBRANCH   1   4
BRANCH   1  13
HETATM   13  C   UNK N   1      28.338  18.394   7.129  0.00  0.00     0.080 A 
HETATM   14  C   UNK N   1      27.816  19.693   7.197  0.00  0.00     0.027 A 
HETATM   15  C   UNK N   1      27.342  20.333   6.055  0.00  0.00     0.030 A 
HETATM   16  C   UNK N   1      27.388  19.680   4.825  0.00  0.00     0.025 A 
HETATM   17  C   UNK N   1      27.899  18.377   4.744  0.00  0.00     0.030 A 
HETATM   18  C   UNK N   1      28.379  17.730   5.897  0.00  0.00     0.027 A 
BRANCH  16  19
HETATM   19  N   UNK N   1      26.929  20.340   3.668  0.00  0.00    -0.399 N 
HETATM   20  H   UNK N   1      25.966  20.360   3.462  0.00  0.00     0.156 HD
HETATM   21  H   UNK N   1      27.570  20.780   3.065  0.00  0.00     0.156 HD
ENDBRANCH  16  19
ENDBRANCH   1  13
TORSDOF 4
ENDMDL
MODEL 8
REMARK VINA RESULT:      -5.8      3.456      4.649
REMARK  4 active torsions:
REMARK  status: ('A' for Active; 'I' for Inactive)
REMARK    1  A    between atoms: S_1  and  N_4 
REMARK    2  A    between atoms: S_1  and  C_8 
REMARK    3  A    between atoms: N_4  and  C_11 
REMARK    4  A    between atoms: N_7  and  C_12 
ROOT
HETATM    1  S   UNK N   1      31.005  17.023   4.690  0.00  0.00     0.264 S 
HETATM    2  O   UNK N   1      31.973  17.780   3.775  0.00  0.00    -0.200 OA
HETATM    3  O   UNK N   1      31.067  15.682   3.942  0.00  0.00    -0.200 OA
ENDROOT
BRANCH   1   4
HETATM    4  N   UNK N   1      29.521  17.793   4.138  0.00  0.00    -0.266 N 
HETATM    5  H   UNK N   1      29.219  17.579   3.225  0.00  0.00     0.180 HD
BRANCH   4   6
HETATM    6  C   UNK N   1      28.721  18.688   4.883  0.00  0.00     0.114 A 
HETATM    7  N   UNK N   1      28.142  19.769   4.297  0.00  0.00    -0.352 N 
HETATM    8  C   UNK N   1      27.393  20.648   5.021  0.00  0.00     0.089 A 
ATOM      9  HN  UNK N   1      28.269  19.925   3.297  1.00  0.00     0.166 HD
HETATM   10  C   UNK N   1      27.193  20.444   6.390  0.00  0.00     0.017 A 
HETATM   11  C   UNK N   1      27.770  19.335   7.006  0.00  0.00     0.005 A 
HETATM   12  C   UNK N   1      28.546  18.455   6.253  0.00  0.00     0.049 A 
ENDBRANCH   4   6
ENDBRANCH   1   4
BRANCH   1  13
HETATM   13  C   UNK N   1      31.974  16.994   6.205  0.00  0.00     0.080 A 
HETATM   14  C   UNK N   1      33.274  17.513   6.142  0.00  0.00     0.027 A 
HETATM   15  C   UNK N   1      34.063  17.609   7.286  0.00  0.00     0.030 A 
HETATM   16  C   UNK N   1      33.556  17.187   8.513  0.00  0.00     0.025 A 
HETATM   17  C   UNK N   1      32.260  16.656   8.590  0.00  0.00     0.030 A 
HETATM   18  C   UNK N   1      31.463  16.561   7.435  0.00  0.00     0.027 A 
BRANCH  16  19
HETATM   19  N   UNK N   1      34.347  17.306   9.672  0.00  0.00    -0.399 N 
HETATM   20  H   UNK N   1      34.944  18.081   9.784  0.00  0.00     0.156 HD
HETATM   21  H   UNK N   1      34.304  16.614  10.371  0.00  0.00     0.156 HD
ENDBRANCH  16  19
ENDBRANCH   1  13
TORSDOF 4
ENDMDL
MODEL 9
REMARK VINA RESULT:      -5.8     14.575     16.497
REMARK  4 active torsions:
REMARK  status: ('A' for Active; 'I' for Inactive)
REMARK    1  A    between atoms: S_1  and  N_4 
REMARK    2  A    between atoms: S_1  and  C_8 
REMARK    3  A    between atoms: N_4  and  C_11 
REMARK    4  A    between atoms: N_7  and  C_12 
ROOT
HETATM    1  S   UNK N   1      25.966  23.769  -7.208  0.00  0.00     0.264 S 
HETATM    2  O   UNK N   1      25.294  22.629  -6.437  0.00  0.00    -0.200 OA
HETATM    3  O   UNK N   1      24.899  23.891  -8.308  0.00  0.00    -0.200 OA
ENDROOT
BRANCH   1   4
HETATM    4  N   UNK N   1      27.266  22.825  -7.927  0.00  0.00    -0.266 N 
HETATM    5  H   UNK N   1      27.294  22.777  -8.911  0.00  0.00     0.180 HD
BRANCH   4   6
HETATM    6  C   UNK N   1      28.275  22.128  -7.225  0.00  0.00     0.114 A 
HETATM    7  N   UNK N   1      28.836  22.647  -6.100  0.00  0.00    -0.352 N 
HETATM    8  C   UNK N   1      29.828  21.988  -5.438  0.00  0.00     0.089 A 
ATOM      9  HN  UNK N   1      28.508  23.545  -5.746  1.00  0.00     0.166 HD
HETATM   10  C   UNK N   1      30.282  20.748  -5.899  0.00  0.00     0.017 A 
HETATM   11  C   UNK N   1      29.711  20.195  -7.044  0.00  0.00     0.005 A 
HETATM   12  C   UNK N   1      28.708  20.891  -7.718  0.00  0.00     0.049 A 
ENDBRANCH   4   6
ENDBRANCH   1   4
BRANCH   1  13
HETATM   13  C   UNK N   1      25.829  25.086  -5.991  0.00  0.00     0.080 A 
HETATM   14  C   UNK N   1      26.374  24.842  -4.723  0.00  0.00     0.027 A 
HETATM   15  C   UNK N   1      26.389  25.836  -3.747  0.00  0.00     0.030 A 
HETATM   16  C   UNK N   1      25.860  27.093  -4.032  0.00  0.00     0.025 A 
HETATM   17  C   UNK N   1      25.304  27.349  -5.294  0.00  0.00     0.030 A 
HETATM   18  C   UNK N   1      25.290  26.345  -6.279  0.00  0.00     0.027 A 
BRANCH  16  19
HETATM   19  N   UNK N   1      25.898  28.104  -3.051  0.00  0.00    -0.399 N 
HETATM   20  H   UNK N   1      25.295  28.879  -3.119  0.00  0.00     0.156 HD
HETATM   21  H   UNK N   1      26.528  28.035  -2.298  0.00  0.00     0.156 HD
ENDBRANCH  16  19
ENDBRANCH   1  13
TORSDOF 4
ENDMDL
