REMARK  4 active torsions:
REMARK  status: ('A' for Active; 'I' for Inactive)
REMARK    1  A    between atoms: S_1  and  N_4 
REMARK    2  A    between atoms: S_1  and  C_8 
REMARK    3  A    between atoms: N_4  and  C_11 
REMARK    4  A    between atoms: N_7  and  C_12 
ROOT
HETATM    1  S   UNK N   1       1.208   0.965   0.075  0.00  0.00     0.264 S 
HETATM    2  O   UNK N   1       0.998   1.051  -1.440  0.00  0.00    -0.200 OA
HETATM    3  O   UNK N   1      -0.278   1.014   0.462  0.00  0.00    -0.200 OA
ENDROOT
BRANCH   1   4
HETATM    4  N   UNK N   1       1.804   2.604   0.317  0.00  0.00    -0.266 N 
HETATM    5  H   UNK N   1       1.131   3.305   0.480  0.00  0.00     0.180 HD
BRANCH   4   6
HETATM    6  C   UNK N   1       3.158   3.008   0.300  0.00  0.00     0.114 A 
HETATM    7  N   UNK N   1       4.162   2.111   0.487  0.00  0.00    -0.352 N 
HETATM    8  C   UNK N   1       5.467   2.505   0.498  0.00  0.00     0.089 A 
ATOM      9  HN  UNK N   1       3.935   1.126   0.621  1.00  0.00     0.166 HD
HETATM   10  C   UNK N   1       5.800   3.849   0.300  0.00  0.00     0.017 A 
HETATM   11  C   UNK N   1       4.784   4.781   0.096  0.00  0.00     0.005 A 
HETATM   12  C   UNK N   1       3.454   4.362   0.104  0.00  0.00     0.049 A 
ENDBRANCH   4   6
ENDBRANCH   1   4
BRANCH   1  13
HETATM   13  C   UNK N   1       1.880  -0.699   0.198  0.00  0.00     0.080 A 
HETATM   14  C   UNK N   1       1.105  -1.741  -0.329  0.00  0.00     0.027 A 
HETATM   15  C   UNK N   1       1.586  -3.048  -0.354  0.00  0.00     0.030 A 
HETATM   16  C   UNK N   1       2.855  -3.328   0.147  0.00  0.00     0.025 A 
HETATM   17  C   UNK N   1       3.638  -2.297   0.686  0.00  0.00     0.030 A 
HETATM   18  C   UNK N   1       3.153  -0.977   0.710  0.00  0.00     0.027 A 
BRANCH  16  19
HETATM   19  N   UNK N   1       3.348  -4.647   0.099  0.00  0.00    -0.399 N 
HETATM   20  H   UNK N   1       2.722  -5.406   0.066  0.00  0.00     0.156 HD
HETATM   21  H   UNK N   1       4.319  -4.810   0.099  0.00  0.00     0.156 HD
ENDBRANCH  16  19
ENDBRANCH   1  13
TORSDOF 4
