MODEL 1
REMARK VINA RESULT:      -5.3      0.000      0.000
REMARK  12 active torsions:
REMARK  status: ('A' for Active; 'I' for Inactive)
REMARK    1  A    between atoms: O_1  and  C_9 
REMARK    2  A    between atoms: O_1  and  C_17 
REMARK    3  A    between atoms: O_2  and  C_13 
REMARK    4  A    between atoms: O_2  and  C_15 
REMARK    5  A    between atoms: N_4  and  C_6 
REMARK    6  A    between atoms: N_4  and  C_7 
REMARK    7  A    between atoms: N_4  and  C_8 
REMARK    8  A    between atoms: N_5  and  C_19 
REMARK    9  A    between atoms: C_6  and  C_9 
REMARK   10  A    between atoms: C_12  and  C_13 
REMARK   11  A    between atoms: C_12  and  C_14 
REMARK   12  A    between atoms: C_16  and  C_17 
ROOT
HETATM    1  C   UNK N   1      26.277  25.249  -3.948  0.00  0.00     0.095 A 
HETATM    2  C   UNK N   1      26.104  27.683  -3.986  0.00  0.00     0.042 A 
HETATM    3  C   UNK N   1      26.527  26.504  -3.376  0.00  0.00     0.056 A 
HETATM    4  C   UNK N   1      25.575  25.184  -5.163  0.00  0.00     0.059 A 
HETATM    5  C   UNK N   1      25.407  27.613  -5.199  0.00  0.00     0.020 A 
HETATM    6  C   UNK N   1      25.139  26.365  -5.781  0.00  0.00     0.033 A 
ENDROOT
BRANCH   2   7
HETATM    7  C   UNK N   1      26.462  28.971  -3.363  0.00  0.00     0.293 C 
HETATM    8  O   UNK N   1      26.039  30.013  -3.856  0.00  0.00    -0.259 OA
BRANCH   7   9
HETATM    9  O   UNK N   1      27.205  29.012  -2.231  0.00  0.00    -0.316 OA
BRANCH   9  10
HETATM   10  C   UNK N   1      28.340  29.790  -2.159  0.00  0.00     0.209 C 
BRANCH  10  11
HETATM   11  C   UNK N   1      29.293  29.473  -3.294  0.00  0.00     0.299 C 
BRANCH  11  12
HETATM   12  N   UNK N   1      30.153  28.368  -2.895  0.00  0.00     0.089 N 
BRANCH  12  13
HETATM   13  C   UNK N   1      30.003  27.323  -3.895  0.00  0.00     0.268 C 
HETATM   14  C   UNK N   1      30.960  26.180  -3.608  0.00  0.00     0.037 C 
ENDBRANCH  12  13
BRANCH  12  15
HETATM   15  C   UNK N   1      31.527  28.856  -2.946  0.00  0.00     0.268 C 
HETATM   16  C   UNK N   1      32.012  29.222  -1.555  0.00  0.00     0.037 C 
ENDBRANCH  12  15
ENDBRANCH  11  12
ENDBRANCH  10  11
ENDBRANCH   9  10
ENDBRANCH   7   9
ENDBRANCH   2   7
BRANCH   1  17
HETATM   17  O   UNK N   1      26.722  24.120  -3.337  0.00  0.00    -0.349 OA
BRANCH  17  18
HETATM   18  C   UNK N   1      28.069  23.819  -3.315  0.00  0.00     0.175 C 
BRANCH  18  19
HETATM   19  C   UNK N   1      28.502  23.201  -2.008  0.00  0.00     0.026 C 
BRANCH  19  20
HETATM   20  C   UNK N   1      29.980  22.885  -2.142  0.00  0.00    -0.002 C 
HETATM   21  C   UNK N   1      30.286  22.358  -3.525  0.00  0.00     0.005 C 
ENDBRANCH  19  20
ENDBRANCH  18  19
ENDBRANCH  17  18
ENDBRANCH   1  17
BRANCH   4  22
HETATM   22  N   UNK N   1      25.312  23.939  -5.771  0.00  0.00    -0.397 N 
HETATM   23  H   UNK N   1      25.087  23.158  -5.216  0.00  0.00     0.156 HD
HETATM   24  H   UNK N   1      25.355  23.851  -6.750  0.00  0.00     0.156 HD
ENDBRANCH   4  22
TORSDOF 12
ENDMDL
MODEL 2
REMARK VINA RESULT:      -5.3     14.242     17.279
REMARK  12 active torsions:
REMARK  status: ('A' for Active; 'I' for Inactive)
REMARK    1  A    between atoms: O_1  and  C_9 
REMARK    2  A    between atoms: O_1  and  C_17 
REMARK    3  A    between atoms: O_2  and  C_13 
REMARK    4  A    between atoms: O_2  and  C_15 
REMARK    5  A    between atoms: N_4  and  C_6 
REMARK    6  A    between atoms: N_4  and  C_7 
REMARK    7  A    between atoms: N_4  and  C_8 
REMARK    8  A    between atoms: N_5  and  C_19 
REMARK    9  A    between atoms: C_6  and  C_9 
REMARK   10  A    between atoms: C_12  and  C_13 
REMARK   11  A    between atoms: C_12  and  C_14 
REMARK   12  A    between atoms: C_16  and  C_17 
ROOT
HETATM    1  C   UNK N   1      31.241  17.218   7.233  0.00  0.00     0.095 A 
HETATM    2  C   UNK N   1      33.571  17.810   7.647  0.00  0.00     0.042 A 
HETATM    3  C   UNK N   1      32.266  17.628   8.097  0.00  0.00     0.056 A 
HETATM    4  C   UNK N   1      31.542  16.995   5.879  0.00  0.00     0.059 A 
HETATM    5  C   UNK N   1      33.868  17.583   6.297  0.00  0.00     0.020 A 
HETATM    6  C   UNK N   1      32.853  17.183   5.415  0.00  0.00     0.033 A 
ENDROOT
BRANCH   2   7
HETATM    7  C   UNK N   1      34.614  18.174   8.626  0.00  0.00     0.293 C 
HETATM    8  O   UNK N   1      35.307  19.167   8.421  0.00  0.00    -0.259 OA
BRANCH   7   9
HETATM    9  O   UNK N   1      34.777  17.460   9.765  0.00  0.00    -0.316 OA
BRANCH   9  10
HETATM   10  C   UNK N   1      35.228  16.159   9.723  0.00  0.00     0.209 C 
BRANCH  10  11
HETATM   11  C   UNK N   1      36.034  15.818  10.960  0.00  0.00     0.299 C 
BRANCH  11  12
HETATM   12  N   UNK N   1      35.589  14.531  11.475  0.00  0.00     0.089 N 
BRANCH  12  13
HETATM   13  C   UNK N   1      36.111  13.507  10.583  0.00  0.00     0.268 C 
HETATM   14  C   UNK N   1      37.620  13.412  10.717  0.00  0.00     0.037 C 
ENDBRANCH  12  13
BRANCH  12  15
HETATM   15  C   UNK N   1      36.210  14.356  12.784  0.00  0.00     0.268 C 
HETATM   16  C   UNK N   1      35.383  13.415  13.640  0.00  0.00     0.037 C 
ENDBRANCH  12  15
ENDBRANCH  11  12
ENDBRANCH  10  11
ENDBRANCH   9  10
ENDBRANCH   7   9
ENDBRANCH   2   7
BRANCH   1  17
HETATM   17  O   UNK N   1      29.983  17.030   7.709  0.00  0.00    -0.349 OA
BRANCH  17  18
HETATM   18  C   UNK N   1      29.611  17.548   8.934  0.00  0.00     0.175 C 
BRANCH  18  19
HETATM   19  C   UNK N   1      28.377  18.412   8.847  0.00  0.00     0.026 C 
BRANCH  19  20
HETATM   20  C   UNK N   1      27.956  18.430   7.390  0.00  0.00    -0.002 C 
HETATM   21  C   UNK N   1      27.731  19.849   6.921  0.00  0.00     0.005 C 
ENDBRANCH  19  20
ENDBRANCH  18  19
ENDBRANCH  17  18
ENDBRANCH   1  17
BRANCH   4  22
HETATM   22  N   UNK N   1      30.537  16.575   4.983  0.00  0.00    -0.397 N 
HETATM   23  H   UNK N   1      30.637  16.740   4.018  0.00  0.00     0.156 HD
HETATM   24  H   UNK N   1      29.735  16.118   5.323  0.00  0.00     0.156 HD
ENDBRANCH   4  22
TORSDOF 12
ENDMDL
MODEL 3
REMARK VINA RESULT:      -5.3     13.961     16.522
REMARK  12 active torsions:
REMARK  status: ('A' for Active; 'I' for Inactive)
REMARK    1  A    between atoms: O_1  and  C_9 
REMARK    2  A    between atoms: O_1  and  C_17 
REMARK    3  A    between atoms: O_2  and  C_13 
REMARK    4  A    between atoms: O_2  and  C_15 
REMARK    5  A    between atoms: N_4  and  C_6 
REMARK    6  A    between atoms: N_4  and  C_7 
REMARK    7  A    between atoms: N_4  and  C_8 
REMARK    8  A    between atoms: N_5  and  C_19 
REMARK    9  A    between atoms: C_6  and  C_9 
REMARK   10  A    between atoms: C_12  and  C_13 
REMARK   11  A    between atoms: C_12  and  C_14 
REMARK   12  A    between atoms: C_16  and  C_17 
ROOT
HETATM    1  C   UNK N   1      31.227  16.875   6.395  0.00  0.00     0.095 A 
HETATM    2  C   UNK N   1      33.385  17.686   7.191  0.00  0.00     0.042 A 
HETATM    3  C   UNK N   1      32.062  17.321   7.428  0.00  0.00     0.056 A 
HETATM    4  C   UNK N   1      31.740  16.803   5.089  0.00  0.00     0.059 A 
HETATM    5  C   UNK N   1      33.894  17.609   5.888  0.00  0.00     0.020 A 
HETATM    6  C   UNK N   1      33.069  17.174   4.840  0.00  0.00     0.033 A 
ENDROOT
BRANCH   2   7
HETATM    7  C   UNK N   1      34.228  18.080   8.337  0.00  0.00     0.293 C 
HETATM    8  O   UNK N   1      34.989  19.036   8.219  0.00  0.00    -0.259 OA
BRANCH   7   9
HETATM    9  O   UNK N   1      34.131  17.436   9.524  0.00  0.00    -0.316 OA
BRANCH   9  10
HETATM   10  C   UNK N   1      35.175  16.672   9.999  0.00  0.00     0.209 C 
BRANCH  10  11
HETATM   11  C   UNK N   1      34.923  15.195   9.768  0.00  0.00     0.299 C 
BRANCH  11  12
HETATM   12  N   UNK N   1      35.646  14.773   8.578  0.00  0.00     0.089 N 
BRANCH  12  13
HETATM   13  C   UNK N   1      36.752  13.939   9.020  0.00  0.00     0.268 C 
HETATM   14  C   UNK N   1      36.375  13.194  10.288  0.00  0.00     0.037 C 
ENDBRANCH  12  13
BRANCH  12  15
HETATM   15  C   UNK N   1      34.734  13.946   7.794  0.00  0.00     0.268 C 
HETATM   16  C   UNK N   1      33.314  14.089   8.311  0.00  0.00     0.037 C 
ENDBRANCH  12  15
ENDBRANCH  11  12
ENDBRANCH  10  11
ENDBRANCH   9  10
ENDBRANCH   7   9
ENDBRANCH   2   7
BRANCH   1  17
HETATM   17  O   UNK N   1      29.947  16.508   6.664  0.00  0.00    -0.349 OA
BRANCH  17  18
HETATM   18  C   UNK N   1      28.949  17.458   6.759  0.00  0.00     0.175 C 
BRANCH  18  19
HETATM   19  C   UNK N   1      28.123  17.306   8.012  0.00  0.00     0.026 C 
BRANCH  19  20
HETATM   20  C   UNK N   1      28.321  18.572   8.824  0.00  0.00    -0.002 C 
HETATM   21  C   UNK N   1      29.495  18.419   9.765  0.00  0.00     0.005 C 
ENDBRANCH  19  20
ENDBRANCH  18  19
ENDBRANCH  17  18
ENDBRANCH   1  17
BRANCH   4  22
HETATM   22  N   UNK N   1      30.929  16.351   4.027  0.00  0.00    -0.397 N 
HETATM   23  H   UNK N   1      30.013  16.695   3.925  0.00  0.00     0.156 HD
HETATM   24  H   UNK N   1      31.280  15.690   3.387  0.00  0.00     0.156 HD
ENDBRANCH   4  22
TORSDOF 12
ENDMDL
MODEL 4
REMARK VINA RESULT:      -5.2     12.412     15.620
REMARK  12 active torsions:
REMARK  status: ('A' for Active; 'I' for Inactive)
REMARK    1  A    between atoms: O_1  and  C_9 
REMARK    2  A    between atoms: O_1  and  C_17 
REMARK    3  A    between atoms: O_2  and  C_13 
REMARK    4  A    between atoms: O_2  and  C_15 
REMARK    5  A    between atoms: N_4  and  C_6 
REMARK    6  A    between atoms: N_4  and  C_7 
REMARK    7  A    between atoms: N_4  and  C_8 
REMARK    8  A    between atoms: N_5  and  C_19 
REMARK    9  A    between atoms: C_6  and  C_9 
REMARK   10  A    between atoms: C_12  and  C_13 
REMARK   11  A    between atoms: C_12  and  C_14 
REMARK   12  A    between atoms: C_16  and  C_17 
ROOT
HETATM    1  C   UNK N   1      28.686  17.959   6.818  0.00  0.00     0.095 A 
HETATM    2  C   UNK N   1      30.852  16.858   7.033  0.00  0.00     0.042 A 
HETATM    3  C   UNK N   1      29.776  17.281   6.257  0.00  0.00     0.056 A 
HETATM    4  C   UNK N   1      28.680  18.210   8.200  0.00  0.00     0.059 A 
HETATM    5  C   UNK N   1      30.844  17.114   8.411  0.00  0.00     0.020 A 
HETATM    6  C   UNK N   1      29.756  17.783   8.992  0.00  0.00     0.033 A 
ENDROOT
BRANCH   2   7
HETATM    7  C   UNK N   1      31.998  16.211   6.365  0.00  0.00     0.293 C 
HETATM    8  O   UNK N   1      32.659  16.854   5.554  0.00  0.00    -0.259 OA
BRANCH   7   9
HETATM    9  O   UNK N   1      32.356  14.942   6.675  0.00  0.00    -0.316 OA
BRANCH   9  10
HETATM   10  C   UNK N   1      33.625  14.658   7.129  0.00  0.00     0.209 C 
BRANCH  10  11
HETATM   11  C   UNK N   1      33.775  15.015   8.595  0.00  0.00     0.299 C 
BRANCH  11  12
HETATM   12  N   UNK N   1      34.901  15.923   8.747  0.00  0.00     0.089 N 
BRANCH  12  13
HETATM   13  C   UNK N   1      34.367  17.198   9.203  0.00  0.00     0.268 C 
HETATM   14  C   UNK N   1      34.562  18.260   8.136  0.00  0.00     0.037 C 
ENDBRANCH  12  13
BRANCH  12  15
HETATM   15  C   UNK N   1      35.750  15.380   9.803  0.00  0.00     0.268 C 
HETATM   16  C   UNK N   1      35.552  16.154  11.092  0.00  0.00     0.037 C 
ENDBRANCH  12  15
ENDBRANCH  11  12
ENDBRANCH  10  11
ENDBRANCH   9  10
ENDBRANCH   7   9
ENDBRANCH   2   7
BRANCH   1  17
HETATM   17  O   UNK N   1      27.662  18.376   6.029  0.00  0.00    -0.349 OA
BRANCH  17  18
HETATM   18  C   UNK N   1      27.881  19.298   5.024  0.00  0.00     0.175 C 
BRANCH  18  19
HETATM   19  C   UNK N   1      27.731  20.721   5.501  0.00  0.00     0.026 C 
BRANCH  19  20
HETATM   20  C   UNK N   1      26.284  20.892   5.923  0.00  0.00    -0.002 C 
HETATM   21  C   UNK N   1      26.194  21.731   7.177  0.00  0.00     0.005 C 
ENDBRANCH  19  20
ENDBRANCH  18  19
ENDBRANCH  17  18
ENDBRANCH   1  17
BRANCH   4  22
HETATM   22  N   UNK N   1      27.603  18.897   8.798  0.00  0.00    -0.397 N 
HETATM   23  H   UNK N   1      27.399  18.761   9.751  0.00  0.00     0.156 HD
HETATM   24  H   UNK N   1      27.054  19.513   8.261  0.00  0.00     0.156 HD
ENDBRANCH   4  22
TORSDOF 12
ENDMDL
MODEL 5
REMARK VINA RESULT:      -5.1     12.745     15.939
REMARK  12 active torsions:
REMARK  status: ('A' for Active; 'I' for Inactive)
REMARK    1  A    between atoms: O_1  and  C_9 
REMARK    2  A    between atoms: O_1  and  C_17 
REMARK    3  A    between atoms: O_2  and  C_13 
REMARK    4  A    between atoms: O_2  and  C_15 
REMARK    5  A    between atoms: N_4  and  C_6 
REMARK    6  A    between atoms: N_4  and  C_7 
REMARK    7  A    between atoms: N_4  and  C_8 
REMARK    8  A    between atoms: N_5  and  C_19 
REMARK    9  A    between atoms: C_6  and  C_9 
REMARK   10  A    between atoms: C_12  and  C_13 
REMARK   11  A    between atoms: C_12  and  C_14 
REMARK   12  A    between atoms: C_16  and  C_17 
ROOT
HETATM    1  C   UNK N   1      29.065  17.747   7.022  0.00  0.00     0.095 A 
HETATM    2  C   UNK N   1      31.474  17.445   7.260  0.00  0.00     0.042 A 
HETATM    3  C   UNK N   1      30.300  17.310   6.524  0.00  0.00     0.056 A 
HETATM    4  C   UNK N   1      29.015  18.328   8.299  0.00  0.00     0.059 A 
HETATM    5  C   UNK N   1      31.420  18.029   8.533  0.00  0.00     0.020 A 
HETATM    6  C   UNK N   1      30.191  18.463   9.052  0.00  0.00     0.033 A 
ENDROOT
BRANCH   2   7
HETATM    7  C   UNK N   1      32.749  17.027   6.646  0.00  0.00     0.293 C 
HETATM    8  O   UNK N   1      33.597  17.876   6.389  0.00  0.00    -0.259 OA
BRANCH   7   9
HETATM    9  O   UNK N   1      33.010  15.719   6.413  0.00  0.00    -0.316 OA
BRANCH   9  10
HETATM   10  C   UNK N   1      32.836  14.777   7.404  0.00  0.00     0.209 C 
BRANCH  10  11
HETATM   11  C   UNK N   1      34.120  14.549   8.175  0.00  0.00     0.299 C 
BRANCH  11  12
HETATM   12  N   UNK N   1      33.993  15.151   9.494  0.00  0.00     0.089 N 
BRANCH  12  13
HETATM   13  C   UNK N   1      34.446  14.165  10.463  0.00  0.00     0.268 C 
HETATM   14  C   UNK N   1      35.172  13.032   9.759  0.00  0.00     0.037 C 
ENDBRANCH  12  13
BRANCH  12  15
HETATM   15  C   UNK N   1      34.909  16.286   9.536  0.00  0.00     0.268 C 
HETATM   16  C   UNK N   1      35.364  16.547  10.960  0.00  0.00     0.037 C 
ENDBRANCH  12  15
ENDBRANCH  11  12
ENDBRANCH  10  11
ENDBRANCH   9  10
ENDBRANCH   7   9
ENDBRANCH   2   7
BRANCH   1  17
HETATM   17  O   UNK N   1      27.942  17.618   6.268  0.00  0.00    -0.349 OA
BRANCH  17  18
HETATM   18  C   UNK N   1      27.898  18.120   4.983  0.00  0.00     0.175 C 
BRANCH  18  19
HETATM   19  C   UNK N   1      28.114  19.613   4.937  0.00  0.00     0.026 C 
BRANCH  19  20
HETATM   20  C   UNK N   1      26.858  20.255   5.493  0.00  0.00    -0.002 C 
HETATM   21  C   UNK N   1      27.208  21.460   6.336  0.00  0.00     0.005 C 
ENDBRANCH  19  20
ENDBRANCH  18  19
ENDBRANCH  17  18
ENDBRANCH   1  17
BRANCH   4  22
HETATM   22  N   UNK N   1      27.790  18.786   8.828  0.00  0.00    -0.397 N 
HETATM   23  H   UNK N   1      27.515  19.721   8.695  0.00  0.00     0.156 HD
HETATM   24  H   UNK N   1      27.211  18.170   9.332  0.00  0.00     0.156 HD
ENDBRANCH   4  22
TORSDOF 12
ENDMDL
MODEL 6
REMARK VINA RESULT:      -5.1     13.141     16.397
REMARK  12 active torsions:
REMARK  status: ('A' for Active; 'I' for Inactive)
REMARK    1  A    between atoms: O_1  and  C_9 
REMARK    2  A    between atoms: O_1  and  C_17 
REMARK    3  A    between atoms: O_2  and  C_13 
REMARK    4  A    between atoms: O_2  and  C_15 
REMARK    5  A    between atoms: N_4  and  C_6 
REMARK    6  A    between atoms: N_4  and  C_7 
REMARK    7  A    between atoms: N_4  and  C_8 
REMARK    8  A    between atoms: N_5  and  C_19 
REMARK    9  A    between atoms: C_6  and  C_9 
REMARK   10  A    between atoms: C_12  and  C_13 
REMARK   11  A    between atoms: C_12  and  C_14 
REMARK   12  A    between atoms: C_16  and  C_17 
ROOT
HETATM    1  C   UNK N   1      31.048  17.098   6.979  0.00  0.00     0.095 A 
HETATM    2  C   UNK N   1      33.352  17.735   7.464  0.00  0.00     0.042 A 
HETATM    3  C   UNK N   1      32.040  17.518   7.876  0.00  0.00     0.056 A 
HETATM    4  C   UNK N   1      31.390  16.901   5.631  0.00  0.00     0.059 A 
HETATM    5  C   UNK N   1      33.689  17.534   6.119  0.00  0.00     0.020 A 
HETATM    6  C   UNK N   1      32.707  17.124   5.205  0.00  0.00     0.033 A 
ENDROOT
BRANCH   2   7
HETATM    7  C   UNK N   1      34.360  18.109   8.475  0.00  0.00     0.293 C 
HETATM    8  O   UNK N   1      35.088  19.075   8.266  0.00  0.00    -0.259 OA
BRANCH   7   9
HETATM    9  O   UNK N   1      34.453  17.433   9.645  0.00  0.00    -0.316 OA
BRANCH   9  10
HETATM   10  C   UNK N   1      35.218  16.290   9.741  0.00  0.00     0.209 C 
BRANCH  10  11
HETATM   11  C   UNK N   1      34.347  15.051   9.801  0.00  0.00     0.299 C 
BRANCH  11  12
HETATM   12  N   UNK N   1      34.430  14.352   8.528  0.00  0.00     0.089 N 
BRANCH  12  13
HETATM   13  C   UNK N   1      35.000  13.040   8.795  0.00  0.00     0.268 C 
HETATM   14  C   UNK N   1      34.800  12.667  10.253  0.00  0.00     0.037 C 
ENDBRANCH  12  13
BRANCH  12  15
HETATM   15  C   UNK N   1      33.064  14.168   8.049  0.00  0.00     0.268 C 
HETATM   16  C   UNK N   1      33.061  13.413   6.734  0.00  0.00     0.037 C 
ENDBRANCH  12  15
ENDBRANCH  11  12
ENDBRANCH  10  11
ENDBRANCH   9  10
ENDBRANCH   7   9
ENDBRANCH   2   7
BRANCH   1  17
HETATM   17  O   UNK N   1      29.782  16.876   7.419  0.00  0.00    -0.349 OA
BRANCH  17  18
HETATM   18  C   UNK N   1      29.202  17.720   8.345  0.00  0.00     0.175 C 
BRANCH  18  19
HETATM   19  C   UNK N   1      28.485  18.881   7.702  0.00  0.00     0.026 C 
BRANCH  19  20
HETATM   20  C   UNK N   1      27.740  18.326   6.503  0.00  0.00    -0.002 C 
HETATM   21  C   UNK N   1      28.066  19.123   5.261  0.00  0.00     0.005 C 
ENDBRANCH  19  20
ENDBRANCH  18  19
ENDBRANCH  17  18
ENDBRANCH   1  17
BRANCH   4  22
HETATM   22  N   UNK N   1      30.418  16.472   4.703  0.00  0.00    -0.397 N 
HETATM   23  H   UNK N   1      30.643  16.411   3.747  0.00  0.00     0.156 HD
HETATM   24  H   UNK N   1      29.514  16.234   5.012  0.00  0.00     0.156 HD
ENDBRANCH   4  22
TORSDOF 12
ENDMDL
MODEL 7
REMARK VINA RESULT:      -5.1     16.674     19.720
REMARK  12 active torsions:
REMARK  status: ('A' for Active; 'I' for Inactive)
REMARK    1  A    between atoms: O_1  and  C_9 
REMARK    2  A    between atoms: O_1  and  C_17 
REMARK    3  A    between atoms: O_2  and  C_13 
REMARK    4  A    between atoms: O_2  and  C_15 
REMARK    5  A    between atoms: N_4  and  C_6 
REMARK    6  A    between atoms: N_4  and  C_7 
REMARK    7  A    between atoms: N_4  and  C_8 
REMARK    8  A    between atoms: N_5  and  C_19 
REMARK    9  A    between atoms: C_6  and  C_9 
REMARK   10  A    between atoms: C_12  and  C_13 
REMARK   11  A    between atoms: C_12  and  C_14 
REMARK   12  A    between atoms: C_16  and  C_17 
ROOT
HETATM    1  C   UNK N   1      34.937  13.972  12.009  0.00  0.00     0.095 A 
HETATM    2  C   UNK N   1      34.826  15.449  10.071  0.00  0.00     0.042 A 
HETATM    3  C   UNK N   1      35.017  15.248  11.435  0.00  0.00     0.056 A 
HETATM    4  C   UNK N   1      34.648  12.873  11.184  0.00  0.00     0.059 A 
HETATM    5  C   UNK N   1      34.541  14.349   9.251  0.00  0.00     0.020 A 
HETATM    6  C   UNK N   1      34.446  13.066   9.809  0.00  0.00     0.033 A 
ENDROOT
BRANCH   2   7
HETATM    7  C   UNK N   1      34.994  16.809   9.524  0.00  0.00     0.293 C 
HETATM    8  O   UNK N   1      35.515  17.675  10.222  0.00  0.00    -0.259 OA
BRANCH   7   9
HETATM    9  O   UNK N   1      34.630  17.095   8.252  0.00  0.00    -0.316 OA
BRANCH   9  10
HETATM   10  C   UNK N   1      33.705  18.082   7.988  0.00  0.00     0.209 C 
BRANCH  10  11
HETATM   11  C   UNK N   1      32.338  17.710   8.527  0.00  0.00     0.299 C 
BRANCH  11  12
HETATM   12  N   UNK N   1      31.500  17.262   7.425  0.00  0.00     0.089 N 
BRANCH  12  13
HETATM   13  C   UNK N   1      31.620  15.814   7.355  0.00  0.00     0.268 C 
HETATM   14  C   UNK N   1      30.883  15.284   6.138  0.00  0.00     0.037 C 
ENDBRANCH  12  13
BRANCH  12  15
HETATM   15  C   UNK N   1      30.122  17.590   7.775  0.00  0.00     0.268 C 
HETATM   16  C   UNK N   1      30.081  18.410   9.051  0.00  0.00     0.037 C 
ENDBRANCH  12  15
ENDBRANCH  11  12
ENDBRANCH  10  11
ENDBRANCH   9  10
ENDBRANCH   7   9
ENDBRANCH   2   7
BRANCH   1  17
HETATM   17  O   UNK N   1      35.149  13.808  13.341  0.00  0.00    -0.349 OA
BRANCH  17  18
HETATM   18  C   UNK N   1      36.430  13.835  13.856  0.00  0.00     0.175 C 
BRANCH  18  19
HETATM   19  C   UNK N   1      36.449  13.797  15.364  0.00  0.00     0.026 C 
BRANCH  19  20
HETATM   20  C   UNK N   1      35.160  13.131  15.802  0.00  0.00    -0.002 C 
HETATM   21  C   UNK N   1      35.112  13.009  17.308  0.00  0.00     0.005 C 
ENDBRANCH  19  20
ENDBRANCH  18  19
ENDBRANCH  17  18
ENDBRANCH   1  17
BRANCH   4  22
HETATM   22  N   UNK N   1      34.566  11.573  11.727  0.00  0.00    -0.397 N 
HETATM   23  H   UNK N   1      34.720  10.789  11.152  0.00  0.00     0.156 HD
HETATM   24  H   UNK N   1      34.355  11.451  12.680  0.00  0.00     0.156 HD
ENDBRANCH   4  22
TORSDOF 12
ENDMDL
MODEL 8
REMARK VINA RESULT:      -5.1     12.085     14.753
REMARK  12 active torsions:
REMARK  status: ('A' for Active; 'I' for Inactive)
REMARK    1  A    between atoms: O_1  and  C_9 
REMARK    2  A    between atoms: O_1  and  C_17 
REMARK    3  A    between atoms: O_2  and  C_13 
REMARK    4  A    between atoms: O_2  and  C_15 
REMARK    5  A    between atoms: N_4  and  C_6 
REMARK    6  A    between atoms: N_4  and  C_7 
REMARK    7  A    between atoms: N_4  and  C_8 
REMARK    8  A    between atoms: N_5  and  C_19 
REMARK    9  A    between atoms: C_6  and  C_9 
REMARK   10  A    between atoms: C_12  and  C_13 
REMARK   11  A    between atoms: C_12  and  C_14 
REMARK   12  A    between atoms: C_16  and  C_17 
ROOT
HETATM    1  C   UNK N   1      29.213  17.703   6.962  0.00  0.00     0.095 A 
HETATM    2  C   UNK N   1      31.607  17.405   7.323  0.00  0.00     0.042 A 
HETATM    3  C   UNK N   1      30.470  17.260   6.532  0.00  0.00     0.056 A 
HETATM    4  C   UNK N   1      29.100  18.302   8.228  0.00  0.00     0.059 A 
HETATM    5  C   UNK N   1      31.490  18.005   8.584  0.00  0.00     0.020 A 
HETATM    6  C   UNK N   1      30.238  18.446   9.036  0.00  0.00     0.033 A 
ENDROOT
BRANCH   2   7
HETATM    7  C   UNK N   1      32.910  16.978   6.778  0.00  0.00     0.293 C 
HETATM    8  O   UNK N   1      33.620  17.802   6.209  0.00  0.00    -0.259 OA
BRANCH   7   9
HETATM    9  O   UNK N   1      33.349  15.708   6.944  0.00  0.00    -0.316 OA
BRANCH   9  10
HETATM   10  C   UNK N   1      34.013  15.052   5.930  0.00  0.00     0.209 C 
BRANCH  10  11
HETATM   11  C   UNK N   1      33.039  14.394   4.974  0.00  0.00     0.299 C 
BRANCH  11  12
HETATM   12  N   UNK N   1      33.191  14.995   3.657  0.00  0.00     0.089 N 
BRANCH  12  13
HETATM   13  C   UNK N   1      33.353  13.907   2.704  0.00  0.00     0.268 C 
HETATM   14  C   UNK N   1      34.666  14.054   1.957  0.00  0.00     0.037 C 
ENDBRANCH  12  13
BRANCH  12  15
HETATM   15  C   UNK N   1      31.941  15.684   3.355  0.00  0.00     0.268 C 
HETATM   16  C   UNK N   1      32.204  17.148   3.053  0.00  0.00     0.037 C 
ENDBRANCH  12  15
ENDBRANCH  11  12
ENDBRANCH  10  11
ENDBRANCH   9  10
ENDBRANCH   7   9
ENDBRANCH   2   7
BRANCH   1  17
HETATM   17  O   UNK N   1      28.128  17.565   6.156  0.00  0.00    -0.349 OA
BRANCH  17  18
HETATM   18  C   UNK N   1      28.151  18.042   4.860  0.00  0.00     0.175 C 
BRANCH  18  19
HETATM   19  C   UNK N   1      28.237  19.547   4.799  0.00  0.00     0.026 C 
BRANCH  19  20
HETATM   20  C   UNK N   1      26.930  20.083   5.349  0.00  0.00    -0.002 C 
HETATM   21  C   UNK N   1      27.180  21.288   6.228  0.00  0.00     0.005 C 
ENDBRANCH  19  20
ENDBRANCH  18  19
ENDBRANCH  17  18
ENDBRANCH   1  17
BRANCH   4  22
HETATM   22  N   UNK N   1      27.851  18.767   8.691  0.00  0.00    -0.397 N 
HETATM   23  H   UNK N   1      27.310  18.208   9.295  0.00  0.00     0.156 HD
HETATM   24  H   UNK N   1      27.520  19.650   8.409  0.00  0.00     0.156 HD
ENDBRANCH   4  22
TORSDOF 12
ENDMDL
MODEL 9
REMARK VINA RESULT:      -5.1     22.723     25.754
REMARK  12 active torsions:
REMARK  status: ('A' for Active; 'I' for Inactive)
REMARK    1  A    between atoms: O_1  and  C_9 
REMARK    2  A    between atoms: O_1  and  C_17 
REMARK    3  A    between atoms: O_2  and  C_13 
REMARK    4  A    between atoms: O_2  and  C_15 
REMARK    5  A    between atoms: N_4  and  C_6 
REMARK    6  A    between atoms: N_4  and  C_7 
REMARK    7  A    between atoms: N_4  and  C_8 
REMARK    8  A    between atoms: N_5  and  C_19 
REMARK    9  A    between atoms: C_6  and  C_9 
REMARK   10  A    between atoms: C_12  and  C_13 
REMARK   11  A    between atoms: C_12  and  C_14 
REMARK   12  A    between atoms: C_16  and  C_17 
ROOT
HETATM    1  C   UNK N   1      35.445  11.117  18.443  0.00  0.00     0.095 A 
HETATM    2  C   UNK N   1      34.758  12.059  16.300  0.00  0.00     0.042 A 
HETATM    3  C   UNK N   1      35.109  10.968  17.091  0.00  0.00     0.056 A 
HETATM    4  C   UNK N   1      35.432  12.403  19.008  0.00  0.00     0.059 A 
HETATM    5  C   UNK N   1      34.744  13.340  16.869  0.00  0.00     0.020 A 
HETATM    6  C   UNK N   1      35.086  13.510  18.219  0.00  0.00     0.033 A 
ENDROOT
BRANCH   2   7
HETATM    7  C   UNK N   1      34.349  11.820  14.903  0.00  0.00     0.293 C 
HETATM    8  O   UNK N   1      33.876  10.730  14.595  0.00  0.00    -0.259 OA
BRANCH   7   9
HETATM    9  O   UNK N   1      34.442  12.802  13.975  0.00  0.00    -0.316 OA
BRANCH   9  10
HETATM   10  C   UNK N   1      35.601  12.982  13.252  0.00  0.00     0.209 C 
BRANCH  10  11
HETATM   11  C   UNK N   1      35.670  14.379  12.666  0.00  0.00     0.299 C 
BRANCH  11  12
HETATM   12  N   UNK N   1      36.660  14.396  11.600  0.00  0.00     0.089 N 
BRANCH  12  13
HETATM   13  C   UNK N   1      36.898  13.014  11.212  0.00  0.00     0.268 C 
HETATM   14  C   UNK N   1      38.336  12.836  10.760  0.00  0.00     0.037 C 
ENDBRANCH  12  13
BRANCH  12  15
HETATM   15  C   UNK N   1      36.056  15.090  10.467  0.00  0.00     0.268 C 
HETATM   16  C   UNK N   1      35.446  16.405  10.917  0.00  0.00     0.037 C 
ENDBRANCH  12  15
ENDBRANCH  11  12
ENDBRANCH  10  11
ENDBRANCH   9  10
ENDBRANCH   7   9
ENDBRANCH   2   7
BRANCH   1  17
HETATM   17  O   UNK N   1      35.763  10.029  19.191  0.00  0.00    -0.349 OA
BRANCH  17  18
HETATM   18  C   UNK N   1      34.907   8.947  19.254  0.00  0.00     0.175 C 
BRANCH  18  19
HETATM   19  C   UNK N   1      33.728   9.193  20.163  0.00  0.00     0.026 C 
BRANCH  19  20
HETATM   20  C   UNK N   1      32.568   8.394  19.602  0.00  0.00    -0.002 C 
HETATM   21  C   UNK N   1      31.318   8.630  20.420  0.00  0.00     0.005 C 
ENDBRANCH  19  20
ENDBRANCH  18  19
ENDBRANCH  17  18
ENDBRANCH   1  17
BRANCH   4  22
HETATM   22  N   UNK N   1      35.757  12.590  20.369  0.00  0.00    -0.397 N 
HETATM   23  H   UNK N   1      36.071  13.467  20.684  0.00  0.00     0.156 HD
HETATM   24  H   UNK N   1      35.670  11.841  21.002  0.00  0.00     0.156 HD
ENDBRANCH   4  22
TORSDOF 12
ENDMDL
