REMARK  0 active torsions:
REMARK  status: ('A' for Active; 'I' for Inactive)
ROOT
HETATM    1  O   UNK N   1       2.435  -4.028   0.526  0.00  0.00    -0.310 OA
HETATM    2  O   UNK N   1       3.710  -5.706   1.247  0.00  0.00    -0.265 OA
HETATM    3  O   UNK N   1       2.024   5.706   0.542  0.00  0.00    -0.289 OA
HETATM    4  C   UNK N   1       3.308  -0.433  -0.299  0.00  0.00    -0.002 C 
HETATM    5  C   UNK N   1       2.222   0.266   0.576  0.00  0.00     0.006 C 
HETATM    6  C   UNK N   1       3.568  -1.912   0.078  0.00  0.00     0.025 C 
HETATM    7  C   UNK N   1       2.239  -2.719   0.107  0.00  0.00     0.071 C 
HETATM    8  C   UNK N   1       1.873   1.652  -0.062  0.00  0.00     0.001 C 
HETATM    9  C   UNK N   1       0.953  -0.606   0.658  0.00  0.00     0.009 C 
HETATM   10  C   UNK N   1       1.250  -2.048   1.071  0.00  0.00     0.039 C 
HETATM   11  C   UNK N   1       4.595   0.407  -0.283  0.00  0.00     0.010 C 
HETATM   12  C   UNK N   1       4.270  -2.097   1.420  0.00  0.00     0.018 C 
HETATM   13  C   UNK N   1       3.158   2.458  -0.272  0.00  0.00    -0.064 C 
HETATM   14  C   UNK N   1       4.346   1.785  -0.902  0.00  0.00     0.036 C 
HETATM   15  C   UNK N   1       1.623  -2.778  -1.289  0.00  0.00     0.047 C 
HETATM   16  C   UNK N   1       1.252   1.445  -1.443  0.00  0.00     0.025 C 
HETATM   17  C   UNK N   1       0.820   2.396   0.745  0.00  0.00    -0.009 C 
HETATM   18  C   UNK N   1       4.654  -3.571   1.587  0.00  0.00     0.112 C 
HETATM   19  C   UNK N   1       3.570  -4.501   1.104  0.00  0.00     0.259 C 
HETATM   20  C   UNK N   1       3.210   3.779  -0.041  0.00  0.00     0.058 C 
HETATM   21  C   UNK N   1       0.888   3.713   0.980  0.00  0.00     0.052 C 
HETATM   22  C   UNK N   1       2.039   4.487   0.498  0.00  0.00     0.171 C 
ENDROOT
TORSDOF 0
