MODEL 1
REMARK VINA RESULT:      -8.1      0.000      0.000
REMARK  0 active torsions:
REMARK  status: ('A' for Active; 'I' for Inactive)
ROOT
HETATM    1  O   UNK N   1      34.868  11.959  13.019  0.00  0.00    -0.310 OA
HETATM    2  O   UNK N   1      35.080  13.600  11.528  0.00  0.00    -0.265 OA
HETATM    3  O   UNK N   1      37.637   9.532  22.040  0.00  0.00    -0.289 OA
HETATM    4  C   UNK N   1      35.089  12.008  16.803  0.00  0.00    -0.002 C 
HETATM    5  C   UNK N   1      36.131  10.860  16.980  0.00  0.00     0.006 C 
HETATM    6  C   UNK N   1      35.032  12.594  15.371  0.00  0.00     0.025 C 
HETATM    7  C   UNK N   1      34.837  11.467  14.317  0.00  0.00     0.071 C 
HETATM    8  C   UNK N   1      35.913  10.189  18.377  0.00  0.00     0.001 C 
HETATM    9  C   UNK N   1      35.969   9.809  15.864  0.00  0.00     0.009 C 
HETATM   10  C   UNK N   1      35.956  10.426  14.465  0.00  0.00     0.039 C 
HETATM   11  C   UNK N   1      35.336  13.090  17.866  0.00  0.00     0.010 C 
HETATM   12  C   UNK N   1      36.263  13.406  14.982  0.00  0.00     0.018 C 
HETATM   13  C   UNK N   1      35.933  11.261  19.470  0.00  0.00    -0.064 C 
HETATM   14  C   UNK N   1      35.133  12.519  19.272  0.00  0.00     0.036 C 
HETATM   15  C   UNK N   1      33.485  10.786  14.511  0.00  0.00     0.047 C 
HETATM   16  C   UNK N   1      34.532   9.535  18.427  0.00  0.00     0.025 C 
HETATM   17  C   UNK N   1      36.902   9.060  18.621  0.00  0.00    -0.009 C 
HETATM   18  C   UNK N   1      36.005  14.099  13.640  0.00  0.00     0.112 C 
HETATM   19  C   UNK N   1      35.284  13.203  12.665  0.00  0.00     0.259 C 
HETATM   20  C   UNK N   1      36.528  11.052  20.654  0.00  0.00     0.058 C 
HETATM   21  C   UNK N   1      37.499   8.867  19.805  0.00  0.00     0.052 C 
HETATM   22  C   UNK N   1      37.250   9.798  20.913  0.00  0.00     0.171 C 
ENDROOT
TORSDOF 0
ENDMDL
MODEL 2
REMARK VINA RESULT:      -7.6     11.933     14.457
REMARK  0 active torsions:
REMARK  status: ('A' for Active; 'I' for Inactive)
ROOT
HETATM    1  O   UNK N   1      25.960  17.082   3.963  0.00  0.00    -0.310 OA
HETATM    2  O   UNK N   1      24.053  18.207   3.723  0.00  0.00    -0.265 OA
HETATM    3  O   UNK N   1      34.895  18.059   7.724  0.00  0.00    -0.289 OA
HETATM    4  C   UNK N   1      28.712  17.398   6.551  0.00  0.00    -0.002 C 
HETATM    5  C   UNK N   1      29.921  17.528   5.574  0.00  0.00     0.006 C 
HETATM    6  C   UNK N   1      27.336  17.668   5.893  0.00  0.00     0.025 C 
HETATM    7  C   UNK N   1      27.150  16.796   4.619  0.00  0.00     0.071 C 
HETATM    8  C   UNK N   1      31.206  16.987   6.286  0.00  0.00     0.001 C 
HETATM    9  C   UNK N   1      29.661  16.726   4.284  0.00  0.00     0.009 C 
HETATM   10  C   UNK N   1      28.310  17.051   3.646  0.00  0.00     0.039 C 
HETATM   11  C   UNK N   1      28.952  18.285   7.783  0.00  0.00     0.010 C 
HETATM   12  C   UNK N   1      27.106  19.128   5.512  0.00  0.00     0.018 C 
HETATM   13  C   UNK N   1      31.380  17.689   7.635  0.00  0.00    -0.064 C 
HETATM   14  C   UNK N   1      30.192  17.817   8.549  0.00  0.00     0.036 C 
HETATM   15  C   UNK N   1      27.117  15.315   4.989  0.00  0.00     0.047 C 
HETATM   16  C   UNK N   1      31.045  15.496   6.582  0.00  0.00     0.025 C 
HETATM   17  C   UNK N   1      32.432  17.088   5.391  0.00  0.00    -0.009 C 
HETATM   18  C   UNK N   1      25.651  19.306   5.066  0.00  0.00     0.112 C 
HETATM   19  C   UNK N   1      25.171  18.160   4.212  0.00  0.00     0.259 C 
HETATM   20  C   UNK N   1      32.586  18.067   8.086  0.00  0.00     0.058 C 
HETATM   21  C   UNK N   1      33.629  17.479   5.848  0.00  0.00     0.052 C 
HETATM   22  C   UNK N   1      33.784  17.882   7.252  0.00  0.00     0.171 C 
ENDROOT
TORSDOF 0
ENDMDL
MODEL 3
REMARK VINA RESULT:      -7.4     22.636     27.035
REMARK  0 active torsions:
REMARK  status: ('A' for Active; 'I' for Inactive)
ROOT
HETATM    1  O   UNK N   1      31.277  22.592  -2.344  0.00  0.00    -0.310 OA
HETATM    2  O   UNK N   1      33.060  21.291  -2.047  0.00  0.00    -0.265 OA
HETATM    3  O   UNK N   1      25.803  26.422  -9.435  0.00  0.00    -0.289 OA
HETATM    4  C   UNK N   1      28.806  22.791  -5.211  0.00  0.00    -0.002 C 
HETATM    5  C   UNK N   1      28.890  24.327  -5.470  0.00  0.00     0.006 C 
HETATM    6  C   UNK N   1      29.985  22.225  -4.383  0.00  0.00     0.025 C 
HETATM    7  C   UNK N   1      30.172  23.027  -3.063  0.00  0.00     0.071 C 
HETATM    8  C   UNK N   1      27.534  24.812  -6.083  0.00  0.00     0.001 C 
HETATM    9  C   UNK N   1      29.169  25.082  -4.155  0.00  0.00     0.009 C 
HETATM   10  C   UNK N   1      30.364  24.515  -3.388  0.00  0.00     0.039 C 
HETATM   11  C   UNK N   1      28.628  22.056  -6.549  0.00  0.00     0.010 C 
HETATM   12  C   UNK N   1      31.317  22.210  -5.127  0.00  0.00     0.018 C 
HETATM   13  C   UNK N   1      27.192  23.962  -7.310  0.00  0.00    -0.064 C 
HETATM   14  C   UNK N   1      27.313  22.466  -7.217  0.00  0.00     0.036 C 
HETATM   15  C   UNK N   1      28.951  22.859  -2.162  0.00  0.00     0.047 C 
HETATM   16  C   UNK N   1      26.405  24.602  -5.074  0.00  0.00     0.025 C 
HETATM   17  C   UNK N   1      27.545  26.306  -6.369  0.00  0.00    -0.009 C 
HETATM   18  C   UNK N   1      32.351  21.448  -4.292  0.00  0.00     0.112 C 
HETATM   19  C   UNK N   1      32.247  21.770  -2.823  0.00  0.00     0.259 C 
HETATM   20  C   UNK N   1      26.656  24.500  -8.416  0.00  0.00     0.058 C 
HETATM   21  C   UNK N   1      27.018  26.831  -7.482  0.00  0.00     0.052 C 
HETATM   22  C   UNK N   1      26.447  25.953  -8.511  0.00  0.00     0.171 C 
ENDROOT
TORSDOF 0
ENDMDL
MODEL 4
REMARK VINA RESULT:      -7.3      2.276      6.925
REMARK  0 active torsions:
REMARK  status: ('A' for Active; 'I' for Inactive)
ROOT
HETATM    1  O   UNK N   1      34.506   7.895  22.186  0.00  0.00    -0.310 OA
HETATM    2  O   UNK N   1      33.617   7.933  24.228  0.00  0.00    -0.265 OA
HETATM    3  O   UNK N   1      34.514  12.931  13.846  0.00  0.00    -0.289 OA
HETATM    4  C   UNK N   1      35.186  10.701  19.729  0.00  0.00    -0.002 C 
HETATM    5  C   UNK N   1      34.472  10.086  18.486  0.00  0.00     0.006 C 
HETATM    6  C   UNK N   1      34.781  10.053  21.076  0.00  0.00     0.025 C 
HETATM    7  C   UNK N   1      34.944   8.507  21.019  0.00  0.00     0.071 C 
HETATM    8  C   UNK N   1      35.148  10.640  17.188  0.00  0.00     0.001 C 
HETATM    9  C   UNK N   1      34.574   8.547  18.512  0.00  0.00     0.009 C 
HETATM   10  C   UNK N   1      34.128   7.946  19.846  0.00  0.00     0.039 C 
HETATM   11  C   UNK N   1      34.984  12.224  19.732  0.00  0.00     0.010 C 
HETATM   12  C   UNK N   1      33.354  10.368  21.513  0.00  0.00     0.018 C 
HETATM   13  C   UNK N   1      35.170  12.171  17.235  0.00  0.00    -0.064 C 
HETATM   14  C   UNK N   1      35.627  12.855  18.494  0.00  0.00     0.036 C 
HETATM   15  C   UNK N   1      36.414   8.135  20.837  0.00  0.00     0.047 C 
HETATM   16  C   UNK N   1      36.604  10.180  17.125  0.00  0.00     0.025 C 
HETATM   17  C   UNK N   1      34.496  10.085  15.931  0.00  0.00    -0.009 C 
HETATM   18  C   UNK N   1      33.139   9.850  22.939  0.00  0.00     0.112 C 
HETATM   19  C   UNK N   1      33.774   8.501  23.158  0.00  0.00     0.259 C 
HETATM   20  C   UNK N   1      34.930  12.915  16.145  0.00  0.00     0.058 C 
HETATM   21  C   UNK N   1      34.249  10.841  14.852  0.00  0.00     0.052 C 
HETATM   22  C   UNK N   1      34.560  12.276  14.873  0.00  0.00     0.171 C 
ENDROOT
TORSDOF 0
ENDMDL
MODEL 5
REMARK VINA RESULT:      -7.2     22.649     26.655
REMARK  0 active torsions:
REMARK  status: ('A' for Active; 'I' for Inactive)
ROOT
HETATM    1  O   UNK N   1      33.201  20.962  -5.172  0.00  0.00    -0.310 OA
HETATM    2  O   UNK N   1      34.422  20.793  -3.316  0.00  0.00    -0.265 OA
HETATM    3  O   UNK N   1      23.980  22.167  -8.076  0.00  0.00    -0.289 OA
HETATM    4  C   UNK N   1      29.863  22.646  -5.794  0.00  0.00    -0.002 C 
HETATM    5  C   UNK N   1      29.127  21.441  -6.458  0.00  0.00     0.006 C 
HETATM    6  C   UNK N   1      31.135  22.251  -5.004  0.00  0.00     0.025 C 
HETATM    7  C   UNK N   1      32.093  21.400  -5.884  0.00  0.00     0.071 C 
HETATM    8  C   UNK N   1      28.026  21.992  -7.425  0.00  0.00     0.001 C 
HETATM    9  C   UNK N   1      30.124  20.568  -7.246  0.00  0.00     0.009 C 
HETATM   10  C   UNK N   1      31.346  20.169  -6.417  0.00  0.00     0.039 C 
HETATM   11  C   UNK N   1      28.867  23.442  -4.936  0.00  0.00     0.010 C 
HETATM   12  C   UNK N   1      30.853  21.480  -3.718  0.00  0.00     0.018 C 
HETATM   13  C   UNK N   1      27.122  22.970  -6.669  0.00  0.00    -0.064 C 
HETATM   14  C   UNK N   1      27.754  24.029  -5.808  0.00  0.00     0.036 C 
HETATM   15  C   UNK N   1      32.609  22.226  -7.060  0.00  0.00     0.047 C 
HETATM   16  C   UNK N   1      28.679  22.781  -8.559  0.00  0.00     0.025 C 
HETATM   17  C   UNK N   1      27.260  20.868  -8.107  0.00  0.00    -0.009 C 
HETATM   18  C   UNK N   1      32.157  21.328  -2.928  0.00  0.00     0.112 C 
HETATM   19  C   UNK N   1      33.332  21.015  -3.821  0.00  0.00     0.259 C 
HETATM   20  C   UNK N   1      25.795  23.000  -6.862  0.00  0.00     0.058 C 
HETATM   21  C   UNK N   1      25.932  20.903  -8.283  0.00  0.00     0.052 C 
HETATM   22  C   UNK N   1      25.151  22.032  -7.763  0.00  0.00     0.171 C 
ENDROOT
TORSDOF 0
ENDMDL
MODEL 6
REMARK VINA RESULT:      -7.1     13.001     17.020
REMARK  0 active torsions:
REMARK  status: ('A' for Active; 'I' for Inactive)
ROOT
HETATM    1  O   UNK N   1      30.676  15.666   5.967  0.00  0.00    -0.310 OA
HETATM    2  O   UNK N   1      31.490  13.594   5.904  0.00  0.00    -0.265 OA
HETATM    3  O   UNK N   1      23.305  21.004   2.489  0.00  0.00    -0.289 OA
HETATM    4  C   UNK N   1      27.146  16.954   5.471  0.00  0.00    -0.002 C 
HETATM    5  C   UNK N   1      27.454  18.038   4.392  0.00  0.00     0.006 C 
HETATM    6  C   UNK N   1      28.267  15.901   5.647  0.00  0.00     0.025 C 
HETATM    7  C   UNK N   1      29.640  16.587   5.892  0.00  0.00     0.071 C 
HETATM    8  C   UNK N   1      26.380  19.172   4.492  0.00  0.00     0.001 C 
HETATM    9  C   UNK N   1      28.861  18.631   4.611  0.00  0.00     0.009 C 
HETATM   10  C   UNK N   1      29.943  17.558   4.741  0.00  0.00     0.039 C 
HETATM   11  C   UNK N   1      25.783  16.310   5.172  0.00  0.00     0.010 C 
HETATM   12  C   UNK N   1      28.412  14.945   4.467  0.00  0.00     0.018 C 
HETATM   13  C   UNK N   1      24.979  18.558   4.417  0.00  0.00    -0.064 C 
HETATM   14  C   UNK N   1      24.664  17.352   5.258  0.00  0.00     0.036 C 
HETATM   15  C   UNK N   1      29.622  17.357   7.210  0.00  0.00     0.047 C 
HETATM   16  C   UNK N   1      26.484  19.867   5.849  0.00  0.00     0.025 C 
HETATM   17  C   UNK N   1      26.615  20.265   3.462  0.00  0.00    -0.009 C 
HETATM   18  C   UNK N   1      29.400  13.834   4.839  0.00  0.00     0.112 C 
HETATM   19  C   UNK N   1      30.585  14.359   5.608  0.00  0.00     0.259 C 
HETATM   20  C   UNK N   1      23.985  19.146   3.732  0.00  0.00     0.058 C 
HETATM   21  C   UNK N   1      25.617  20.837   2.775  0.00  0.00     0.052 C 
HETATM   22  C   UNK N   1      24.236  20.374   2.963  0.00  0.00     0.171 C 
ENDROOT
TORSDOF 0
ENDMDL
MODEL 7
REMARK VINA RESULT:      -7.0     26.778     28.953
REMARK  0 active torsions:
REMARK  status: ('A' for Active; 'I' for Inactive)
ROOT
HETATM    1  O   UNK N   1      26.529  23.221  -8.975  0.00  0.00    -0.310 OA
HETATM    2  O   UNK N   1      25.781  23.006 -11.062  0.00  0.00    -0.265 OA
HETATM    3  O   UNK N   1      27.955  29.987  -2.112  0.00  0.00    -0.289 OA
HETATM    4  C   UNK N   1      25.745  25.809  -6.319  0.00  0.00    -0.002 C 
HETATM    5  C   UNK N   1      27.209  26.212  -5.962  0.00  0.00     0.006 C 
HETATM    6  C   UNK N   1      25.605  25.067  -7.671  0.00  0.00     0.025 C 
HETATM    7  C   UNK N   1      26.574  23.852  -7.739  0.00  0.00     0.071 C 
HETATM    8  C   UNK N   1      27.249  26.714  -4.480  0.00  0.00     0.001 C 
HETATM    9  C   UNK N   1      28.156  25.006  -6.131  0.00  0.00     0.009 C 
HETATM   10  C   UNK N   1      28.013  24.327  -7.493  0.00  0.00     0.039 C 
HETATM   11  C   UNK N   1      24.840  27.049  -6.239  0.00  0.00     0.010 C 
HETATM   12  C   UNK N   1      25.854  25.947  -8.892  0.00  0.00     0.018 C 
HETATM   13  C   UNK N   1      26.204  27.816  -4.284  0.00  0.00    -0.064 C 
HETATM   14  C   UNK N   1      24.813  27.604  -4.813  0.00  0.00     0.036 C 
HETATM   15  C   UNK N   1      26.197  22.813  -6.686  0.00  0.00     0.047 C 
HETATM   16  C   UNK N   1      26.869  25.573  -3.536  0.00  0.00     0.025 C 
HETATM   17  C   UNK N   1      28.651  27.131  -4.063  0.00  0.00    -0.009 C 
HETATM   18  C   UNK N   1      25.489  25.165 -10.158  0.00  0.00     0.112 C 
HETATM   19  C   UNK N   1      25.939  23.728 -10.090  0.00  0.00     0.259 C 
HETATM   20  C   UNK N   1      26.453  28.901  -3.534  0.00  0.00     0.058 C 
HETATM   21  C   UNK N   1      28.889  28.223  -3.324  0.00  0.00     0.052 C 
HETATM   22  C   UNK N   1      27.780  29.101  -2.932  0.00  0.00     0.171 C 
ENDROOT
TORSDOF 0
ENDMDL
MODEL 8
REMARK VINA RESULT:      -7.0     26.830     29.216
REMARK  0 active torsions:
REMARK  status: ('A' for Active; 'I' for Inactive)
ROOT
HETATM    1  O   UNK N   1      26.918  26.644  -3.501  0.00  0.00    -0.310 OA
HETATM    2  O   UNK N   1      26.203  28.567  -2.633  0.00  0.00    -0.265 OA
HETATM    3  O   UNK N   1      25.451  20.787 -11.147  0.00  0.00    -0.289 OA
HETATM    4  C   UNK N   1      26.943  25.401  -7.081  0.00  0.00    -0.002 C 
HETATM    5  C   UNK N   1      26.237  24.030  -6.846  0.00  0.00     0.006 C 
HETATM    6  C   UNK N   1      26.757  26.415  -5.926  0.00  0.00     0.025 C 
HETATM    7  C   UNK N   1      27.157  25.783  -4.563  0.00  0.00     0.071 C 
HETATM    8  C   UNK N   1      26.709  23.022  -7.946  0.00  0.00     0.001 C 
HETATM    9  C   UNK N   1      26.583  23.479  -5.448  0.00  0.00     0.009 C 
HETATM   10  C   UNK N   1      26.348  24.499  -4.333  0.00  0.00     0.039 C 
HETATM   11  C   UNK N   1      26.503  25.976  -8.437  0.00  0.00     0.010 C 
HETATM   12  C   UNK N   1      25.337  26.962  -5.802  0.00  0.00     0.018 C 
HETATM   13  C   UNK N   1      26.492  23.636  -9.332  0.00  0.00    -0.064 C 
HETATM   14  C   UNK N   1      26.936  25.052  -9.579  0.00  0.00     0.036 C 
HETATM   15  C   UNK N   1      28.648  25.451  -4.550  0.00  0.00     0.047 C 
HETATM   16  C   UNK N   1      28.209  22.768  -7.806  0.00  0.00     0.025 C 
HETATM   17  C   UNK N   1      26.053  21.659  -7.782  0.00  0.00    -0.009 C 
HETATM   18  C   UNK N   1      25.324  28.095  -4.771  0.00  0.00     0.112 C 
HETATM   19  C   UNK N   1      26.181  27.783  -3.570  0.00  0.00     0.259 C 
HETATM   20  C   UNK N   1      26.049  22.907 -10.367  0.00  0.00     0.058 C 
HETATM   21  C   UNK N   1      25.603  20.945  -8.822  0.00  0.00     0.052 C 
HETATM   22  C   UNK N   1      25.683  21.495 -10.181  0.00  0.00     0.171 C 
ENDROOT
TORSDOF 0
ENDMDL
MODEL 9
REMARK VINA RESULT:      -7.0     12.744     17.301
REMARK  0 active torsions:
REMARK  status: ('A' for Active; 'I' for Inactive)
ROOT
HETATM    1  O   UNK N   1      29.420  16.378   7.436  0.00  0.00    -0.310 OA
HETATM    2  O   UNK N   1      30.900  16.854   9.031  0.00  0.00    -0.265 OA
HETATM    3  O   UNK N   1      21.954  20.367   2.613  0.00  0.00    -0.289 OA
HETATM    4  C   UNK N   1      27.531  18.643   5.055  0.00  0.00    -0.002 C 
HETATM    5  C   UNK N   1      26.091  18.115   5.342  0.00  0.00     0.006 C 
HETATM    6  C   UNK N   1      28.570  18.264   6.138  0.00  0.00     0.025 C 
HETATM    7  C   UNK N   1      28.557  16.732   6.408  0.00  0.00     0.071 C 
HETATM    8  C   UNK N   1      25.208  18.339   4.069  0.00  0.00     0.001 C 
HETATM    9  C   UNK N   1      26.128  16.615   5.695  0.00  0.00     0.009 C 
HETATM   10  C   UNK N   1      27.138  16.290   6.796  0.00  0.00     0.039 C 
HETATM   11  C   UNK N   1      27.479  20.158   4.804  0.00  0.00     0.010 C 
HETATM   12  C   UNK N   1      28.374  18.985   7.468  0.00  0.00     0.018 C 
HETATM   13  C   UNK N   1      25.290  19.806   3.639  0.00  0.00    -0.064 C 
HETATM   14  C   UNK N   1      26.637  20.469   3.563  0.00  0.00     0.036 C 
HETATM   15  C   UNK N   1      29.001  15.970   5.161  0.00  0.00     0.047 C 
HETATM   16  C   UNK N   1      25.753  17.508   2.908  0.00  0.00     0.025 C 
HETATM   17  C   UNK N   1      23.782  17.851   4.278  0.00  0.00    -0.009 C 
HETATM   18  C   UNK N   1      29.567  18.689   8.382  0.00  0.00     0.112 C 
HETATM   19  C   UNK N   1      30.006  17.249   8.298  0.00  0.00     0.259 C 
HETATM   20  C   UNK N   1      24.214  20.474   3.194  0.00  0.00     0.058 C 
HETATM   21  C   UNK N   1      22.715  18.532   3.841  0.00  0.00     0.052 C 
HETATM   22  C   UNK N   1      22.893  19.829   3.176  0.00  0.00     0.171 C 
ENDROOT
TORSDOF 0
ENDMDL
