MODEL 1
REMARK VINA RESULT:      -7.9      0.000      0.000
REMARK  1 active torsions:
REMARK  status: ('A' for Active; 'I' for Inactive)
REMARK    1  A    between atoms: C_13  and  C_17 
ROOT
HETATM    1 Cl   UNK N   1      33.423  15.760   3.638  0.00  0.00    -0.084 Cl
HETATM    2  N   UNK N   1      28.986  18.315   6.817  0.00  0.00    -0.286 N 
HETATM    3  N   UNK N   1      30.810  17.524   9.209  0.00  0.00    -0.381 N 
ATOM      4  HN  UNK N   1      31.200  17.355  10.137  1.00  0.00     0.160 HD
HETATM    5  N   UNK N   1      27.610  19.247   8.293  0.00  0.00    -0.286 N 
ATOM      6  HN  UNK N   1      27.224  19.562   9.184  1.00  0.00     0.188 HD
HETATM    7  N   UNK N   1      27.063  19.420   7.108  0.00  0.00    -0.287 N 
ATOM      8  HN  UNK N   1      26.180  19.890   6.909  1.00  0.00     0.188 HD
HETATM    9  C   UNK N   1      30.091  17.649   6.147  0.00  0.00     0.054 A 
HETATM   10  C   UNK N   1      31.243  17.076   6.799  0.00  0.00     0.020 A 
HETATM   11  C   UNK N   1      28.768  18.583   8.121  0.00  0.00     0.122 A 
HETATM   12  C   UNK N   1      31.552  17.001   8.299  0.00  0.00     0.053 A 
HETATM   13  C   UNK N   1      29.593  18.275   9.298  0.00  0.00     0.198 A 
HETATM   14  C   UNK N   1      27.887  18.862   6.211  0.00  0.00     0.100 A 
HETATM   15  C   UNK N   1      30.024  17.570   4.737  0.00  0.00     0.033 A 
HETATM   16  C   UNK N   1      32.223  16.521   5.952  0.00  0.00     0.040 A 
HETATM   17  C   UNK N   1      31.016  16.994   3.959  0.00  0.00     0.026 A 
HETATM   18  C   UNK N   1      32.130  16.475   4.576  0.00  0.00     0.035 A 
HETATM   19  C   UNK N   1      27.578  18.891   4.750  0.00  0.00     0.091 C 
ENDROOT
BRANCH  12  20
HETATM   20  C   UNK N   1      32.799  16.268   8.833  0.00  0.00     0.013 A 
HETATM   21  C   UNK N   1      34.103  16.869   8.868  0.00  0.00     0.046 A 
HETATM   22 Cl   UNK N   1      34.477  18.496   8.301  0.00  0.00    -0.083 Cl
HETATM   23  C   UNK N   1      35.196  16.147   9.364  0.00  0.00     0.025 A 
HETATM   24  C   UNK N   1      35.047  14.848   9.838  0.00  0.00     0.002 A 
HETATM   25  C   UNK N   1      33.796  14.252   9.825  0.00  0.00     0.001 A 
HETATM   26  C   UNK N   1      32.701  14.954   9.333  0.00  0.00     0.015 A 
ENDBRANCH  12  20
TORSDOF 1
ENDMDL
MODEL 2
REMARK VINA RESULT:      -7.3      2.873      6.783
REMARK  1 active torsions:
REMARK  status: ('A' for Active; 'I' for Inactive)
REMARK    1  A    between atoms: C_13  and  C_17 
ROOT
HETATM    1 Cl   UNK N   1      28.726  15.093   1.836  0.00  0.00    -0.084 Cl
HETATM    2  N   UNK N   1      30.101  17.008   7.382  0.00  0.00    -0.286 N 
HETATM    3  N   UNK N   1      27.749  18.969   6.836  0.00  0.00    -0.381 N 
ATOM      4  HN  UNK N   1      27.054  19.714   6.893  1.00  0.00     0.160 HD
HETATM    5  N   UNK N   1      30.257  17.904   9.411  0.00  0.00    -0.286 N 
ATOM      6  HN  UNK N   1      30.064  18.498  10.218  1.00  0.00     0.188 HD
HETATM    7  N   UNK N   1      31.197  16.987   9.332  0.00  0.00    -0.287 N 
ATOM      8  HN  UNK N   1      31.867  16.739  10.061  1.00  0.00     0.188 HD
HETATM    9  C   UNK N   1      29.712  16.644   6.030  0.00  0.00     0.054 A 
HETATM   10  C   UNK N   1      28.645  17.253   5.272  0.00  0.00     0.020 A 
HETATM   11  C   UNK N   1      29.595  17.919   8.239  0.00  0.00     0.122 A 
HETATM   12  C   UNK N   1      27.724  18.408   5.680  0.00  0.00     0.053 A 
HETATM   13  C   UNK N   1      28.470  18.851   8.069  0.00  0.00     0.198 A 
HETATM   14  C   UNK N   1      31.110  16.441   8.112  0.00  0.00     0.100 A 
HETATM   15  C   UNK N   1      30.443  15.599   5.419  0.00  0.00     0.033 A 
HETATM   16  C   UNK N   1      28.405  16.711   3.994  0.00  0.00     0.040 A 
HETATM   17  C   UNK N   1      30.168  15.121   4.147  0.00  0.00     0.026 A 
HETATM   18  C   UNK N   1      29.131  15.677   3.435  0.00  0.00     0.035 A 
HETATM   19  C   UNK N   1      32.029  15.342   7.686  0.00  0.00     0.091 C 
ENDROOT
BRANCH  12  20
HETATM   20  C   UNK N   1      26.686  18.997   4.705  0.00  0.00     0.013 A 
HETATM   21  C   UNK N   1      25.368  18.449   4.542  0.00  0.00     0.046 A 
HETATM   22 Cl   UNK N   1      24.753  17.037   5.399  0.00  0.00    -0.083 Cl
HETATM   23  C   UNK N   1      24.471  19.032   3.636  0.00  0.00     0.025 A 
HETATM   24  C   UNK N   1      24.828  20.148   2.887  0.00  0.00     0.002 A 
HETATM   25  C   UNK N   1      26.090  20.702   3.036  0.00  0.00     0.001 A 
HETATM   26  C   UNK N   1      26.992  20.133   3.929  0.00  0.00     0.015 A 
ENDBRANCH  12  20
TORSDOF 1
ENDMDL
MODEL 3
REMARK VINA RESULT:      -7.1     12.630     14.759
REMARK  1 active torsions:
REMARK  status: ('A' for Active; 'I' for Inactive)
REMARK    1  A    between atoms: C_13  and  C_17 
ROOT
HETATM    1 Cl   UNK N   1      33.565  26.408  -4.860  0.00  0.00    -0.084 Cl
HETATM    2  N   UNK N   1      27.800  27.740  -3.714  0.00  0.00    -0.286 N 
HETATM    3  N   UNK N   1      27.471  24.658  -3.978  0.00  0.00    -0.381 N 
ATOM      4  HN  UNK N   1      27.103  23.708  -4.038  1.00  0.00     0.160 HD
HETATM    5  N   UNK N   1      25.632  27.838  -3.229  0.00  0.00    -0.286 N 
ATOM      6  HN  UNK N   1      24.673  27.542  -3.048  1.00  0.00     0.188 HD
HETATM    7  N   UNK N   1      26.080  29.075  -3.207  0.00  0.00    -0.287 N 
ATOM      8  HN  UNK N   1      25.535  29.915  -3.006  1.00  0.00     0.188 HD
HETATM    9  C   UNK N   1      29.155  27.317  -4.029  0.00  0.00     0.054 A 
HETATM   10  C   UNK N   1      29.576  25.956  -4.257  0.00  0.00     0.020 A 
HETATM   11  C   UNK N   1      26.667  27.031  -3.534  0.00  0.00     0.122 A 
HETATM   12  C   UNK N   1      28.725  24.681  -4.257  0.00  0.00     0.053 A 
HETATM   13  C   UNK N   1      26.440  25.580  -3.606  0.00  0.00     0.198 A 
HETATM   14  C   UNK N   1      27.386  29.026  -3.496  0.00  0.00     0.100 A 
HETATM   15  C   UNK N   1      30.135  28.333  -4.108  0.00  0.00     0.033 A 
HETATM   16  C   UNK N   1      30.951  25.765  -4.499  0.00  0.00     0.040 A 
HETATM   17  C   UNK N   1      31.473  28.082  -4.369  0.00  0.00     0.026 A 
HETATM   18  C   UNK N   1      31.883  26.782  -4.554  0.00  0.00     0.035 A 
HETATM   19  C   UNK N   1      28.219  30.266  -3.541  0.00  0.00     0.091 C 
ENDROOT
BRANCH  12  20
HETATM   20  C   UNK N   1      29.328  23.306  -4.609  0.00  0.00     0.013 A 
HETATM   21  C   UNK N   1      29.969  22.462  -3.639  0.00  0.00     0.046 A 
HETATM   22 Cl   UNK N   1      30.178  22.866  -1.936  0.00  0.00    -0.083 Cl
HETATM   23  C   UNK N   1      30.498  21.224  -4.025  0.00  0.00     0.025 A 
HETATM   24  C   UNK N   1      30.410  20.782  -5.341  0.00  0.00     0.002 A 
HETATM   25  C   UNK N   1      29.786  21.574  -6.292  0.00  0.00     0.001 A 
HETATM   26  C   UNK N   1      29.257  22.807  -5.925  0.00  0.00     0.015 A 
ENDBRANCH  12  20
TORSDOF 1
ENDMDL
MODEL 4
REMARK VINA RESULT:      -7.0      3.144      7.244
REMARK  1 active torsions:
REMARK  status: ('A' for Active; 'I' for Inactive)
REMARK    1  A    between atoms: C_13  and  C_17 
ROOT
HETATM    1 Cl   UNK N   1      28.291  18.239   9.380  0.00  0.00    -0.084 Cl
HETATM    2  N   UNK N   1      32.333  16.184   5.410  0.00  0.00    -0.286 N 
HETATM    3  N   UNK N   1      30.201  17.161   3.366  0.00  0.00    -0.381 N 
ATOM      4  HN  UNK N   1      29.670  17.369   2.520  1.00  0.00     0.160 HD
HETATM    5  N   UNK N   1      33.608  15.627   3.676  0.00  0.00    -0.286 N 
ATOM      6  HN  UNK N   1      33.921  15.500   2.713  1.00  0.00     0.188 HD
HETATM    7  N   UNK N   1      34.281  15.299   4.759  0.00  0.00    -0.287 N 
ATOM      8  HN  UNK N   1      35.207  14.872   4.792  1.00  0.00     0.188 HD
HETATM    9  C   UNK N   1      31.281  16.677   6.284  0.00  0.00     0.054 A 
HETATM   10  C   UNK N   1      30.033  17.256   5.848  0.00  0.00     0.020 A 
HETATM   11  C   UNK N   1      32.435  16.161   4.066  0.00  0.00     0.122 A 
HETATM   12  C   UNK N   1      29.519  17.450   4.416  0.00  0.00     0.053 A 
HETATM   13  C   UNK N   1      31.493  16.633   3.040  0.00  0.00     0.198 A 
HETATM   14  C   UNK N   1      33.520  15.633   5.809  0.00  0.00     0.100 A 
HETATM   15  C   UNK N   1      31.515  16.585   7.675  0.00  0.00     0.033 A 
HETATM   16  C   UNK N   1      29.174  17.717   6.865  0.00  0.00     0.040 A 
HETATM   17  C   UNK N   1      30.620  17.041   8.629  0.00  0.00     0.026 A 
HETATM   18  C   UNK N   1      29.444  17.623   8.216  0.00  0.00     0.035 A 
HETATM   19  C   UNK N   1      33.991  15.410   7.210  0.00  0.00     0.091 C 
ENDROOT
BRANCH  12  20
HETATM   20  C   UNK N   1      28.112  18.010   4.131  0.00  0.00     0.013 A 
HETATM   21  C   UNK N   1      26.971  17.171   3.890  0.00  0.00     0.046 A 
HETATM   22 Cl   UNK N   1      27.006  15.409   3.865  0.00  0.00    -0.083 Cl
HETATM   23  C   UNK N   1      25.718  17.744   3.636  0.00  0.00     0.025 A 
HETATM   24  C   UNK N   1      25.547  19.124   3.618  0.00  0.00     0.002 A 
HETATM   25  C   UNK N   1      26.631  19.954   3.860  0.00  0.00     0.001 A 
HETATM   26  C   UNK N   1      27.882  19.400   4.112  0.00  0.00     0.015 A 
ENDBRANCH  12  20
TORSDOF 1
ENDMDL
MODEL 5
REMARK VINA RESULT:      -7.0     14.486     16.915
REMARK  1 active torsions:
REMARK  status: ('A' for Active; 'I' for Inactive)
REMARK    1  A    between atoms: C_13  and  C_17 
ROOT
HETATM    1 Cl   UNK N   1      30.768  24.506  -3.337  0.00  0.00    -0.084 Cl
HETATM    2  N   UNK N   1      27.222  22.501  -7.778  0.00  0.00    -0.286 N 
HETATM    3  N   UNK N   1      25.846  25.259  -7.359  0.00  0.00    -0.381 N 
ATOM      4  HN  UNK N   1      25.222  26.065  -7.402  1.00  0.00     0.160 HD
HETATM    5  N   UNK N   1      25.789  22.141  -9.439  0.00  0.00    -0.286 N 
ATOM      6  HN  UNK N   1      25.029  22.290 -10.104  1.00  0.00     0.188 HD
HETATM    7  N   UNK N   1      26.547  21.068  -9.357  0.00  0.00    -0.287 N 
ATOM      8  HN  UNK N   1      26.486  20.235  -9.943  1.00  0.00     0.188 HD
HETATM    9  C   UNK N   1      27.997  23.062  -6.683  0.00  0.00     0.054 A 
HETATM   10  C   UNK N   1      27.780  24.355  -6.080  0.00  0.00     0.020 A 
HETATM   11  C   UNK N   1      26.193  23.005  -8.490  0.00  0.00     0.122 A 
HETATM   12  C   UNK N   1      26.701  25.393  -6.409  0.00  0.00     0.053 A 
HETATM   13  C   UNK N   1      25.516  24.306  -8.376  0.00  0.00     0.198 A 
HETATM   14  C   UNK N   1      27.416  21.277  -8.359  0.00  0.00     0.100 A 
HETATM   15  C   UNK N   1      29.054  22.268  -6.182  0.00  0.00     0.033 A 
HETATM   16  C   UNK N   1      28.682  24.723  -5.061  0.00  0.00     0.040 A 
HETATM   17  C   UNK N   1      29.898  22.681  -5.163  0.00  0.00     0.026 A 
HETATM   18  C   UNK N   1      29.714  23.926  -4.608  0.00  0.00     0.035 A 
HETATM   19  C   UNK N   1      28.445  20.256  -8.000  0.00  0.00     0.091 C 
ENDROOT
BRANCH  12  20
HETATM   20  C   UNK N   1      26.559  26.696  -5.599  0.00  0.00     0.013 A 
HETATM   21  C   UNK N   1      27.134  27.944  -6.019  0.00  0.00     0.046 A 
HETATM   22 Cl   UNK N   1      28.088  28.170  -7.484  0.00  0.00    -0.083 Cl
HETATM   23  C   UNK N   1      26.969  29.093  -5.234  0.00  0.00     0.025 A 
HETATM   24  C   UNK N   1      26.245  29.057  -4.047  0.00  0.00     0.002 A 
HETATM   25  C   UNK N   1      25.671  27.867  -3.628  0.00  0.00     0.001 A 
HETATM   26  C   UNK N   1      25.828  26.717  -4.394  0.00  0.00     0.015 A 
ENDBRANCH  12  20
TORSDOF 1
ENDMDL
MODEL 6
REMARK VINA RESULT:      -6.9      7.253      9.156
REMARK  1 active torsions:
REMARK  status: ('A' for Active; 'I' for Inactive)
REMARK    1  A    between atoms: C_13  and  C_17 
ROOT
HETATM    1 Cl   UNK N   1      26.861  20.038   4.297  0.00  0.00    -0.084 Cl
HETATM    2  N   UNK N   1      21.116  18.712   3.050  0.00  0.00    -0.286 N 
HETATM    3  N   UNK N   1      21.880  16.020   4.408  0.00  0.00    -0.381 N 
ATOM      4  HN  UNK N   1      21.883  15.068   4.777  1.00  0.00     0.160 HD
HETATM    5  N   UNK N   1      19.051  17.916   2.840  0.00  0.00    -0.286 N 
ATOM      6  HN  UNK N   1      18.253  17.283   2.903  1.00  0.00     0.188 HD
HETATM    7  N   UNK N   1      19.046  19.119   2.307  0.00  0.00    -0.287 N 
ATOM      8  HN  UNK N   1      18.248  19.592   1.881  1.00  0.00     0.188 HD
HETATM    9  C   UNK N   1      22.520  18.920   3.365  0.00  0.00     0.054 A 
HETATM   10  C   UNK N   1      23.383  17.966   4.018  0.00  0.00     0.020 A 
HETATM   11  C   UNK N   1      20.296  17.669   3.289  0.00  0.00     0.122 A 
HETATM   12  C   UNK N   1      23.050  16.544   4.488  0.00  0.00     0.053 A 
HETATM   13  C   UNK N   1      20.571  16.385   3.953  0.00  0.00     0.198 A 
HETATM   14  C   UNK N   1      20.287  19.608   2.431  0.00  0.00     0.100 A 
HETATM   15  C   UNK N   1      23.074  20.170   3.003  0.00  0.00     0.033 A 
HETATM   16  C   UNK N   1      24.701  18.393   4.273  0.00  0.00     0.040 A 
HETATM   17  C   UNK N   1      24.387  20.525   3.266  0.00  0.00     0.026 A 
HETATM   18  C   UNK N   1      25.203  19.629   3.917  0.00  0.00     0.035 A 
HETATM   19  C   UNK N   1      20.635  20.976   1.940  0.00  0.00     0.091 C 
ENDROOT
BRANCH  12  20
HETATM   20  C   UNK N   1      24.126  15.621   5.094  0.00  0.00     0.013 A 
HETATM   21  C   UNK N   1      25.112  14.944   4.298  0.00  0.00     0.046 A 
HETATM   22 Cl   UNK N   1      25.232  15.047   2.543  0.00  0.00    -0.083 Cl
HETATM   23  C   UNK N   1      26.062  14.117   4.911  0.00  0.00     0.025 A 
HETATM   24  C   UNK N   1      26.079  13.938   6.291  0.00  0.00     0.002 A 
HETATM   25  C   UNK N   1      25.144  14.590   7.079  0.00  0.00     0.001 A 
HETATM   26  C   UNK N   1      24.193  15.414   6.486  0.00  0.00     0.015 A 
ENDBRANCH  12  20
TORSDOF 1
ENDMDL
MODEL 7
REMARK VINA RESULT:      -6.9      2.434      3.905
REMARK  1 active torsions:
REMARK  status: ('A' for Active; 'I' for Inactive)
REMARK    1  A    between atoms: C_13  and  C_17 
ROOT
HETATM    1 Cl   UNK N   1      28.953  17.429  10.577  0.00  0.00    -0.084 Cl
HETATM    2  N   UNK N   1      30.799  16.742   4.882  0.00  0.00    -0.286 N 
HETATM    3  N   UNK N   1      33.449  15.909   6.282  0.00  0.00    -0.381 N 
ATOM      4  HN  UNK N   1      34.408  15.629   6.489  1.00  0.00     0.160 HD
HETATM    5  N   UNK N   1      31.790  16.293   2.943  0.00  0.00    -0.286 N 
ATOM      6  HN  UNK N   1      32.500  16.007   2.268  1.00  0.00     0.188 HD
HETATM    7  N   UNK N   1      30.574  16.710   2.657  0.00  0.00    -0.287 N 
ATOM      8  HN  UNK N   1      30.168  16.807   1.725  1.00  0.00     0.188 HD
HETATM    9  C   UNK N   1      30.464  16.908   6.286  0.00  0.00     0.054 A 
HETATM   10  C   UNK N   1      31.350  16.652   7.396  0.00  0.00     0.020 A 
HETATM   11  C   UNK N   1      31.927  16.310   4.282  0.00  0.00     0.122 A 
HETATM   12  C   UNK N   1      32.813  16.196   7.362  0.00  0.00     0.053 A 
HETATM   13  C   UNK N   1      33.200  15.868   4.872  0.00  0.00     0.198 A 
HETATM   14  C   UNK N   1      29.969  16.981   3.820  0.00  0.00     0.100 A 
HETATM   15  C   UNK N   1      29.152  17.350   6.578  0.00  0.00     0.033 A 
HETATM   16  C   UNK N   1      30.803  16.831   8.682  0.00  0.00     0.040 A 
HETATM   17  C   UNK N   1      28.678  17.524   7.868  0.00  0.00     0.026 A 
HETATM   18  C   UNK N   1      29.510  17.251   8.928  0.00  0.00     0.035 A 
HETATM   19  C   UNK N   1      28.557  17.467   3.866  0.00  0.00     0.091 C 
ENDROOT
BRANCH  12  20
HETATM   20  C   UNK N   1      33.646  16.054   8.651  0.00  0.00     0.013 A 
HETATM   21  C   UNK N   1      34.518  17.089   9.136  0.00  0.00     0.046 A 
HETATM   22 Cl   UNK N   1      34.779  18.639   8.338  0.00  0.00    -0.083 Cl
HETATM   23  C   UNK N   1      35.249  16.897  10.315  0.00  0.00     0.025 A 
HETATM   24  C   UNK N   1      35.144  15.716  11.043  0.00  0.00     0.002 A 
HETATM   25  C   UNK N   1      34.301  14.709  10.602  0.00  0.00     0.001 A 
HETATM   26  C   UNK N   1      33.570  14.883   9.431  0.00  0.00     0.015 A 
ENDBRANCH  12  20
TORSDOF 1
ENDMDL
MODEL 8
REMARK VINA RESULT:      -6.9     12.817     15.496
REMARK  1 active torsions:
REMARK  status: ('A' for Active; 'I' for Inactive)
REMARK    1  A    between atoms: C_13  and  C_17 
ROOT
HETATM    1 Cl   UNK N   1      26.903  21.690  -9.266  0.00  0.00    -0.084 Cl
HETATM    2  N   UNK N   1      30.538  21.839  -4.462  0.00  0.00    -0.286 N 
HETATM    3  N   UNK N   1      28.923  24.424  -3.842  0.00  0.00    -0.381 N 
ATOM      4  HN  UNK N   1      28.570  25.293  -3.439  1.00  0.00     0.160 HD
HETATM    5  N   UNK N   1      31.624  22.169  -2.550  0.00  0.00    -0.286 N 
ATOM      6  HN  UNK N   1      31.908  22.590  -1.664  1.00  0.00     0.188 HD
HETATM    7  N   UNK N   1      32.131  21.080  -3.087  0.00  0.00    -0.287 N 
ATOM      8  HN  UNK N   1      32.877  20.501  -2.699  1.00  0.00     0.188 HD
HETATM    9  C   UNK N   1      29.638  21.913  -5.601  0.00  0.00     0.054 A 
HETATM   10  C   UNK N   1      28.649  22.940  -5.822  0.00  0.00     0.020 A 
HETATM   11  C   UNK N   1      30.665  22.628  -3.375  0.00  0.00     0.122 A 
HETATM   12  C   UNK N   1      28.344  24.172  -4.962  0.00  0.00     0.053 A 
HETATM   13  C   UNK N   1      29.919  23.838  -2.996  0.00  0.00     0.198 A 
HETATM   14  C   UNK N   1      31.481  20.872  -4.240  0.00  0.00     0.100 A 
HETATM   15  C   UNK N   1      29.745  20.882  -6.562  0.00  0.00     0.033 A 
HETATM   16  C   UNK N   1      27.846  22.792  -6.970  0.00  0.00     0.040 A 
HETATM   17  C   UNK N   1      28.935  20.801  -7.684  0.00  0.00     0.026 A 
HETATM   18  C   UNK N   1      27.969  21.761  -7.880  0.00  0.00     0.035 A 
HETATM   19  C   UNK N   1      31.797  19.698  -5.108  0.00  0.00     0.091 C 
ENDROOT
BRANCH  12  20
HETATM   20  C   UNK N   1      27.304  25.224  -5.396  0.00  0.00     0.013 A 
HETATM   21  C   UNK N   1      27.627  26.339  -6.243  0.00  0.00     0.046 A 
HETATM   22 Cl   UNK N   1      29.231  26.681  -6.887  0.00  0.00    -0.083 Cl
HETATM   23  C   UNK N   1      26.634  27.261  -6.599  0.00  0.00     0.025 A 
HETATM   24  C   UNK N   1      25.324  27.117  -6.154  0.00  0.00     0.002 A 
HETATM   25  C   UNK N   1      24.987  26.043  -5.346  0.00  0.00     0.001 A 
HETATM   26  C   UNK N   1      25.961  25.120  -4.981  0.00  0.00     0.015 A 
ENDBRANCH  12  20
TORSDOF 1
ENDMDL
MODEL 9
REMARK VINA RESULT:      -6.7      5.169      7.864
REMARK  1 active torsions:
REMARK  status: ('A' for Active; 'I' for Inactive)
REMARK    1  A    between atoms: C_13  and  C_17 
ROOT
HETATM    1 Cl   UNK N   1      34.082   9.016   9.724  0.00  0.00    -0.084 Cl
HETATM    2  N   UNK N   1      34.636  14.979  10.398  0.00  0.00    -0.286 N 
HETATM    3  N   UNK N   1      36.269  14.123  12.903  0.00  0.00    -0.381 N 
ATOM      4  HN  UNK N   1      36.809  14.107  13.769  1.00  0.00     0.160 HD
HETATM    5  N   UNK N   1      35.125  17.086  10.912  0.00  0.00    -0.286 N 
ATOM      6  HN  UNK N   1      35.516  17.892  11.403  1.00  0.00     0.188 HD
HETATM    7  N   UNK N   1      34.380  17.127   9.828  0.00  0.00    -0.287 N 
ATOM      8  HN  UNK N   1      34.085  17.964   9.324  1.00  0.00     0.188 HD
HETATM    9  C   UNK N   1      34.534  13.530  10.344  0.00  0.00     0.054 A 
HETATM   10  C   UNK N   1      35.125  12.613  11.289  0.00  0.00     0.020 A 
HETATM   11  C   UNK N   1      35.282  15.795  11.257  0.00  0.00     0.122 A 
HETATM   12  C   UNK N   1      35.940  12.933  12.547  0.00  0.00     0.053 A 
HETATM   13  C   UNK N   1      36.098  15.467  12.435  0.00  0.00     0.198 A 
HETATM   14  C   UNK N   1      34.081  15.860   9.510  0.00  0.00     0.100 A 
HETATM   15  C   UNK N   1      33.798  12.985   9.267  0.00  0.00     0.033 A 
HETATM   16  C   UNK N   1      34.942  11.242  11.020  0.00  0.00     0.040 A 
HETATM   17  C   UNK N   1      33.640  11.623   9.066  0.00  0.00     0.026 A 
HETATM   18  C   UNK N   1      34.229  10.746   9.947  0.00  0.00     0.035 A 
HETATM   19  C   UNK N   1      33.252  15.536   8.310  0.00  0.00     0.091 C 
ENDROOT
BRANCH  12  20
HETATM   20  C   UNK N   1      36.425  11.823  13.501  0.00  0.00     0.013 A 
HETATM   21  C   UNK N   1      35.554  11.154  14.427  0.00  0.00     0.046 A 
HETATM   22 Cl   UNK N   1      33.839  11.503  14.628  0.00  0.00    -0.083 Cl
HETATM   23  C   UNK N   1      36.059  10.153  15.268  0.00  0.00     0.025 A 
HETATM   24  C   UNK N   1      37.398   9.780  15.221  0.00  0.00     0.002 A 
HETATM   25  C   UNK N   1      38.254  10.404  14.327  0.00  0.00     0.001 A 
HETATM   26  C   UNK N   1      37.769  11.401  13.487  0.00  0.00     0.015 A 
ENDBRANCH  12  20
TORSDOF 1
ENDMDL
