MODEL 1
REMARK VINA RESULT:      -6.6      0.000      0.000
REMARK  9 active torsions:
REMARK  status: ('A' for Active; 'I' for Inactive)
REMARK    1  A    between atoms: O_1  and  C_13 
REMARK    2  A    between atoms: O_4  and  C_21 
REMARK    3  A    between atoms: N_6  and  C_14 
REMARK    4  A    between atoms: N_7  and  C_8 
REMARK    5  A    between atoms: N_7  and  C_15 
REMARK       I    between atoms: N_7  and  C_16 
REMARK    6  A    between atoms: C_8  and  C_13 
REMARK    7  A    between atoms: C_14  and  C_17 
REMARK    8  A    between atoms: C_16  and  C_18 
REMARK    9  A    between atoms: C_17  and  C_21 
ROOT
HETATM    1  N   UNK N   1      33.828  14.615   8.845  0.00  0.00     0.089 N 
HETATM    2  C   UNK N   1      35.462  13.707  11.113  0.00  0.00     0.131 C 
HETATM    3  C   UNK N   1      34.802  12.657  10.200  0.00  0.00     0.072 C 
HETATM    4  C   UNK N   1      34.378  14.833  11.241  0.00  0.00     0.072 C 
HETATM    5  C   UNK N   1      34.516  13.300   8.799  0.00  0.00     0.275 C 
HETATM    6  C   UNK N   1      33.289  14.903  10.167  0.00  0.00     0.275 C 
ENDROOT
BRANCH   2   7
HETATM    7  N   UNK N   1      35.867  13.250  12.478  0.00  0.00    -0.298 N 
HETATM    8  C   UNK N   1      36.231  14.145  13.471  0.00  0.00     0.225 C 
HETATM    9  O   UNK N   1      36.398  15.327  13.216  0.00  0.00    -0.273 OA
BRANCH   7  10
HETATM   10  C   UNK N   1      35.669  11.855  12.812  0.00  0.00     0.038 A 
HETATM   11  C   UNK N   1      34.462  11.402  13.371  0.00  0.00     0.030 A 
HETATM   12  C   UNK N   1      34.346  10.084  13.826  0.00  0.00     0.002 A 
HETATM   13  C   UNK N   1      35.430   9.205  13.730  0.00  0.00     0.000 A 
HETATM   14  C   UNK N   1      36.621   9.629  13.148  0.00  0.00     0.002 A 
HETATM   15  C   UNK N   1      36.735  10.937  12.693  0.00  0.00     0.030 A 
ENDBRANCH   7  10
BRANCH   8  16
HETATM   16  C   UNK N   1      36.307  13.712  14.921  0.00  0.00     0.099 C 
HETATM   17  C   UNK N   1      37.108  14.663  15.785  0.00  0.00     0.014 C 
ENDBRANCH   8  16
ENDBRANCH   2   7
BRANCH   2  18
HETATM   18  C   UNK N   1      36.724  14.163  10.410  0.00  0.00     0.287 C 
HETATM   19  O   UNK N   1      36.959  15.355  10.268  0.00  0.00    -0.262 OA
BRANCH  18  20
HETATM   20  O   UNK N   1      37.572  13.230   9.910  0.00  0.00    -0.325 OA
HETATM   21  C   UNK N   1      38.871  13.101  10.338  0.00  0.00     0.213 C 
ENDBRANCH  18  20
ENDBRANCH   2  18
BRANCH   1  22
HETATM   22  C   UNK N   1      34.687  15.742   8.458  0.00  0.00     0.282 C 
BRANCH  22  23
HETATM   23  C   UNK N   1      34.073  17.094   8.797  0.00  0.00     0.141 C 
BRANCH  23  24
HETATM   24  C   UNK N   1      34.559  18.182   7.895  0.00  0.00     0.260 C 
HETATM   25  O   UNK N   1      35.019  19.216   8.363  0.00  0.00    -0.265 OA
BRANCH  24  26
HETATM   26  O   UNK N   1      34.466  17.998   6.558  0.00  0.00    -0.326 OA
HETATM   27  C   UNK N   1      33.301  17.615   5.941  0.00  0.00     0.213 C 
ENDBRANCH  24  26
ENDBRANCH  23  24
ENDBRANCH  22  23
ENDBRANCH   1  22
TORSDOF 9
ENDMDL
MODEL 2
REMARK VINA RESULT:      -6.0      4.939      9.938
REMARK  9 active torsions:
REMARK  status: ('A' for Active; 'I' for Inactive)
REMARK    1  A    between atoms: O_1  and  C_13 
REMARK    2  A    between atoms: O_4  and  C_21 
REMARK    3  A    between atoms: N_6  and  C_14 
REMARK    4  A    between atoms: N_7  and  C_8 
REMARK    5  A    between atoms: N_7  and  C_15 
REMARK       I    between atoms: N_7  and  C_16 
REMARK    6  A    between atoms: C_8  and  C_13 
REMARK    7  A    between atoms: C_14  and  C_17 
REMARK    8  A    between atoms: C_16  and  C_18 
REMARK    9  A    between atoms: C_17  and  C_21 
ROOT
HETATM    1  N   UNK N   1      33.054  16.733   4.586  0.00  0.00     0.089 N 
HETATM    2  C   UNK N   1      30.231  16.649   5.401  0.00  0.00     0.131 C 
HETATM    3  C   UNK N   1      30.872  15.385   4.799  0.00  0.00     0.072 C 
HETATM    4  C   UNK N   1      30.839  17.822   4.556  0.00  0.00     0.072 C 
HETATM    5  C   UNK N   1      32.426  15.452   4.999  0.00  0.00     0.275 C 
HETATM    6  C   UNK N   1      32.146  17.558   3.802  0.00  0.00     0.275 C 
ENDROOT
BRANCH   2   7
HETATM    7  N   UNK N   1      28.738  16.730   5.359  0.00  0.00    -0.298 N 
HETATM    8  C   UNK N   1      27.940  15.611   5.534  0.00  0.00     0.225 C 
HETATM    9  O   UNK N   1      28.429  14.492   5.559  0.00  0.00    -0.273 OA
BRANCH   7  10
HETATM   10  C   UNK N   1      28.131  18.044   5.340  0.00  0.00     0.038 A 
HETATM   11  C   UNK N   1      27.801  18.678   4.129  0.00  0.00     0.030 A 
HETATM   12  C   UNK N   1      27.357  20.005   4.126  0.00  0.00     0.002 A 
HETATM   13  C   UNK N   1      27.239  20.714   5.326  0.00  0.00     0.000 A 
HETATM   14  C   UNK N   1      27.530  20.089   6.535  0.00  0.00     0.002 A 
HETATM   15  C   UNK N   1      27.967  18.770   6.539  0.00  0.00     0.030 A 
ENDBRANCH   7  10
BRANCH   8  16
HETATM   16  C   UNK N   1      26.460  15.748   5.826  0.00  0.00     0.099 C 
HETATM   17  C   UNK N   1      25.585  15.394   4.642  0.00  0.00     0.014 C 
ENDBRANCH   8  16
ENDBRANCH   2   7
BRANCH   2  18
HETATM   18  C   UNK N   1      30.633  16.688   6.861  0.00  0.00     0.287 C 
HETATM   19  O   UNK N   1      30.768  15.652   7.495  0.00  0.00    -0.262 OA
BRANCH  18  20
HETATM   20  O   UNK N   1      30.806  17.892   7.464  0.00  0.00    -0.325 OA
HETATM   21  C   UNK N   1      30.817  18.043   8.829  0.00  0.00     0.213 C 
ENDBRANCH  18  20
ENDBRANCH   2  18
BRANCH   1  22
HETATM   22  C   UNK N   1      33.532  17.543   5.714  0.00  0.00     0.282 C 
BRANCH  22  23
HETATM   23  C   UNK N   1      34.161  16.703   6.818  0.00  0.00     0.141 C 
BRANCH  23  24
HETATM   24  C   UNK N   1      34.439  17.500   8.051  0.00  0.00     0.260 C 
HETATM   25  O   UNK N   1      34.891  18.635   7.967  0.00  0.00    -0.265 OA
BRANCH  24  26
HETATM   26  O   UNK N   1      34.190  16.932   9.254  0.00  0.00    -0.326 OA
HETATM   27  C   UNK N   1      35.158  16.777  10.215  0.00  0.00     0.213 C 
ENDBRANCH  24  26
ENDBRANCH  23  24
ENDBRANCH  22  23
ENDBRANCH   1  22
TORSDOF 9
ENDMDL
MODEL 3
REMARK VINA RESULT:      -6.0     18.413     21.320
REMARK  9 active torsions:
REMARK  status: ('A' for Active; 'I' for Inactive)
REMARK    1  A    between atoms: O_1  and  C_13 
REMARK    2  A    between atoms: O_4  and  C_21 
REMARK    3  A    between atoms: N_6  and  C_14 
REMARK    4  A    between atoms: N_7  and  C_8 
REMARK    5  A    between atoms: N_7  and  C_15 
REMARK       I    between atoms: N_7  and  C_16 
REMARK    6  A    between atoms: C_8  and  C_13 
REMARK    7  A    between atoms: C_14  and  C_17 
REMARK    8  A    between atoms: C_16  and  C_18 
REMARK    9  A    between atoms: C_17  and  C_21 
ROOT
HETATM    1  N   UNK N   1      26.944  29.413  -4.365  0.00  0.00     0.089 N 
HETATM    2  C   UNK N   1      27.240  26.521  -4.804  0.00  0.00     0.131 C 
HETATM    3  C   UNK N   1      26.724  27.403  -5.957  0.00  0.00     0.072 C 
HETATM    4  C   UNK N   1      26.552  27.123  -3.530  0.00  0.00     0.072 C 
HETATM    5  C   UNK N   1      27.199  28.880  -5.727  0.00  0.00     0.275 C 
HETATM    6  C   UNK N   1      26.036  28.563  -3.608  0.00  0.00     0.275 C 
ENDROOT
BRANCH   2   7
HETATM    7  N   UNK N   1      26.934  25.060  -4.889  0.00  0.00    -0.298 N 
HETATM    8  C   UNK N   1      25.967  24.564  -5.748  0.00  0.00     0.225 C 
HETATM    9  O   UNK N   1      25.212  25.317  -6.342  0.00  0.00    -0.273 OA
BRANCH   7  10
HETATM   10  C   UNK N   1      27.819  24.142  -4.203  0.00  0.00     0.038 A 
HETATM   11  C   UNK N   1      27.676  23.880  -2.829  0.00  0.00     0.030 A 
HETATM   12  C   UNK N   1      28.631  23.111  -2.155  0.00  0.00     0.002 A 
HETATM   13  C   UNK N   1      29.737  22.596  -2.841  0.00  0.00     0.000 A 
HETATM   14  C   UNK N   1      29.873  22.818  -4.208  0.00  0.00     0.002 A 
HETATM   15  C   UNK N   1      28.923  23.579  -4.878  0.00  0.00     0.030 A 
ENDBRANCH   7  10
BRANCH   8  16
HETATM   16  C   UNK N   1      25.899  23.086  -6.074  0.00  0.00     0.099 C 
HETATM   17  C   UNK N   1      26.377  22.762  -7.474  0.00  0.00     0.014 C 
ENDBRANCH   8  16
ENDBRANCH   2   7
BRANCH   2  18
HETATM   18  C   UNK N   1      28.748  26.656  -4.795  0.00  0.00     0.287 C 
HETATM   19  O   UNK N   1      29.379  26.643  -5.843  0.00  0.00    -0.262 OA
BRANCH  18  20
HETATM   20  O   UNK N   1      29.393  26.756  -3.605  0.00  0.00    -0.325 OA
HETATM   21  C   UNK N   1      30.763  26.777  -3.502  0.00  0.00     0.213 C 
ENDBRANCH  18  20
ENDBRANCH   2  18
BRANCH   1  22
HETATM   22  C   UNK N   1      28.163  29.588  -3.565  0.00  0.00     0.282 C 
BRANCH  22  23
HETATM   23  C   UNK N   1      27.930  30.421  -2.312  0.00  0.00     0.141 C 
BRANCH  23  24
HETATM   24  C   UNK N   1      28.643  29.868  -1.120  0.00  0.00     0.260 C 
HETATM   25  O   UNK N   1      29.837  29.603  -1.180  0.00  0.00    -0.265 OA
BRANCH  24  26
HETATM   26  O   UNK N   1      27.935  29.658   0.013  0.00  0.00    -0.326 OA
HETATM   27  C   UNK N   1      28.080  30.438   1.134  0.00  0.00     0.213 C 
ENDBRANCH  24  26
ENDBRANCH  23  24
ENDBRANCH  22  23
ENDBRANCH   1  22
TORSDOF 9
ENDMDL
MODEL 4
REMARK VINA RESULT:      -5.9     16.668     20.009
REMARK  9 active torsions:
REMARK  status: ('A' for Active; 'I' for Inactive)
REMARK    1  A    between atoms: O_1  and  C_13 
REMARK    2  A    between atoms: O_4  and  C_21 
REMARK    3  A    between atoms: N_6  and  C_14 
REMARK    4  A    between atoms: N_7  and  C_8 
REMARK    5  A    between atoms: N_7  and  C_15 
REMARK       I    between atoms: N_7  and  C_16 
REMARK    6  A    between atoms: C_8  and  C_13 
REMARK    7  A    between atoms: C_14  and  C_17 
REMARK    8  A    between atoms: C_16  and  C_18 
REMARK    9  A    between atoms: C_17  and  C_21 
ROOT
HETATM    1  N   UNK N   1      29.851  26.939  -4.882  0.00  0.00     0.089 N 
HETATM    2  C   UNK N   1      30.062  24.014  -4.689  0.00  0.00     0.131 C 
HETATM    3  C   UNK N   1      31.009  24.888  -3.846  0.00  0.00     0.072 C 
HETATM    4  C   UNK N   1      29.963  24.772  -6.058  0.00  0.00     0.072 C 
HETATM    5  C   UNK N   1      30.359  26.301  -3.642  0.00  0.00     0.275 C 
HETATM    6  C   UNK N   1      30.325  26.260  -6.080  0.00  0.00     0.275 C 
ENDROOT
BRANCH   2   7
HETATM    7  N   UNK N   1      30.491  22.602  -4.933  0.00  0.00    -0.298 N 
HETATM    8  C   UNK N   1      29.804  21.769  -5.800  0.00  0.00     0.225 C 
HETATM    9  O   UNK N   1      28.725  22.103  -6.266  0.00  0.00    -0.273 OA
BRANCH   7  10
HETATM   10  C   UNK N   1      31.771  22.181  -4.403  0.00  0.00     0.038 A 
HETATM   11  C   UNK N   1      32.948  22.295  -5.162  0.00  0.00     0.030 A 
HETATM   12  C   UNK N   1      34.146  21.745  -4.692  0.00  0.00     0.002 A 
HETATM   13  C   UNK N   1      34.183  21.076  -3.464  0.00  0.00     0.000 A 
HETATM   14  C   UNK N   1      33.033  20.986  -2.686  0.00  0.00     0.002 A 
HETATM   15  C   UNK N   1      31.844  21.535  -3.151  0.00  0.00     0.030 A 
ENDBRANCH   7  10
BRANCH   8  16
HETATM   16  C   UNK N   1      30.424  20.479  -6.298  0.00  0.00     0.099 C 
HETATM   17  C   UNK N   1      29.598  19.795  -7.367  0.00  0.00     0.014 C 
ENDBRANCH   8  16
ENDBRANCH   2   7
BRANCH   2  18
HETATM   18  C   UNK N   1      28.747  23.950  -3.940  0.00  0.00     0.287 C 
HETATM   19  O   UNK N   1      28.713  23.576  -2.776  0.00  0.00    -0.262 OA
BRANCH  18  20
HETATM   20  O   UNK N   1      27.603  24.281  -4.590  0.00  0.00    -0.325 OA
HETATM   21  C   UNK N   1      26.358  24.121  -4.031  0.00  0.00     0.213 C 
ENDBRANCH  18  20
ENDBRANCH   2  18
BRANCH   1  22
HETATM   22  C   UNK N   1      28.386  26.999  -4.954  0.00  0.00     0.282 C 
BRANCH  22  23
HETATM   23  C   UNK N   1      27.766  27.719  -3.763  0.00  0.00     0.141 C 
BRANCH  23  24
HETATM   24  C   UNK N   1      26.282  27.842  -3.881  0.00  0.00     0.260 C 
HETATM   25  O   UNK N   1      25.575  27.808  -2.882  0.00  0.00    -0.265 OA
BRANCH  24  26
HETATM   26  O   UNK N   1      25.744  27.980  -5.115  0.00  0.00    -0.326 OA
HETATM   27  C   UNK N   1      24.749  27.160  -5.587  0.00  0.00     0.213 C 
ENDBRANCH  24  26
ENDBRANCH  23  24
ENDBRANCH  22  23
ENDBRANCH   1  22
TORSDOF 9
ENDMDL
MODEL 5
REMARK VINA RESULT:      -5.9     18.588     21.690
REMARK  9 active torsions:
REMARK  status: ('A' for Active; 'I' for Inactive)
REMARK    1  A    between atoms: O_1  and  C_13 
REMARK    2  A    between atoms: O_4  and  C_21 
REMARK    3  A    between atoms: N_6  and  C_14 
REMARK    4  A    between atoms: N_7  and  C_8 
REMARK    5  A    between atoms: N_7  and  C_15 
REMARK       I    between atoms: N_7  and  C_16 
REMARK    6  A    between atoms: C_8  and  C_13 
REMARK    7  A    between atoms: C_14  and  C_17 
REMARK    8  A    between atoms: C_16  and  C_18 
REMARK    9  A    between atoms: C_17  and  C_21 
ROOT
HETATM    1  N   UNK N   1      25.434  28.104  -4.214  0.00  0.00     0.089 N 
HETATM    2  C   UNK N   1      26.992  25.817  -5.205  0.00  0.00     0.131 C 
HETATM    3  C   UNK N   1      25.482  25.875  -5.498  0.00  0.00     0.072 C 
HETATM    4  C   UNK N   1      27.115  26.360  -3.739  0.00  0.00     0.072 C 
HETATM    5  C   UNK N   1      25.001  27.366  -5.427  0.00  0.00     0.275 C 
HETATM    6  C   UNK N   1      25.966  27.212  -3.193  0.00  0.00     0.275 C 
ENDROOT
BRANCH   2   7
HETATM    7  N   UNK N   1      27.642  24.473  -5.292  0.00  0.00    -0.298 N 
HETATM    8  C   UNK N   1      27.435  23.629  -6.371  0.00  0.00     0.225 C 
HETATM    9  O   UNK N   1      26.581  23.881  -7.207  0.00  0.00    -0.273 OA
BRANCH   7  10
HETATM   10  C   UNK N   1      28.666  24.151  -4.320  0.00  0.00     0.038 A 
HETATM   11  C   UNK N   1      30.024  24.402  -4.580  0.00  0.00     0.030 A 
HETATM   12  C   UNK N   1      31.007  23.946  -3.695  0.00  0.00     0.002 A 
HETATM   13  C   UNK N   1      30.649  23.235  -2.545  0.00  0.00     0.000 A 
HETATM   14  C   UNK N   1      29.306  23.008  -2.257  0.00  0.00     0.002 A 
HETATM   15  C   UNK N   1      28.329  23.464  -3.134  0.00  0.00     0.030 A 
ENDBRANCH   7  10
BRANCH   8  16
HETATM   16  C   UNK N   1      28.341  22.440  -6.616  0.00  0.00     0.099 C 
HETATM   17  C   UNK N   1      27.866  21.552  -7.746  0.00  0.00     0.014 C 
ENDBRANCH   8  16
ENDBRANCH   2   7
BRANCH   2  18
HETATM   18  C   UNK N   1      27.669  26.700  -6.232  0.00  0.00     0.287 C 
HETATM   19  O   UNK N   1      28.739  27.237  -5.981  0.00  0.00    -0.262 OA
BRANCH  18  20
HETATM   20  O   UNK N   1      27.054  26.915  -7.423  0.00  0.00    -0.325 OA
HETATM   21  C   UNK N   1      27.722  26.872  -8.622  0.00  0.00     0.213 C 
ENDBRANCH  18  20
ENDBRANCH   2  18
BRANCH   1  22
HETATM   22  C   UNK N   1      26.450  29.130  -4.482  0.00  0.00     0.282 C 
BRANCH  22  23
HETATM   23  C   UNK N   1      26.580  30.141  -3.350  0.00  0.00     0.141 C 
BRANCH  23  24
HETATM   24  C   UNK N   1      27.915  30.078  -2.682  0.00  0.00     0.260 C 
HETATM   25  O   UNK N   1      28.846  29.483  -3.210  0.00  0.00    -0.265 OA
BRANCH  24  26
HETATM   26  O   UNK N   1      28.062  30.682  -1.480  0.00  0.00    -0.326 OA
HETATM   27  C   UNK N   1      28.390  29.993  -0.339  0.00  0.00     0.213 C 
ENDBRANCH  24  26
ENDBRANCH  23  24
ENDBRANCH  22  23
ENDBRANCH   1  22
TORSDOF 9
ENDMDL
MODEL 6
REMARK VINA RESULT:      -5.8     18.193     21.035
REMARK  9 active torsions:
REMARK  status: ('A' for Active; 'I' for Inactive)
REMARK    1  A    between atoms: O_1  and  C_13 
REMARK    2  A    between atoms: O_4  and  C_21 
REMARK    3  A    between atoms: N_6  and  C_14 
REMARK    4  A    between atoms: N_7  and  C_8 
REMARK    5  A    between atoms: N_7  and  C_15 
REMARK       I    between atoms: N_7  and  C_16 
REMARK    6  A    between atoms: C_8  and  C_13 
REMARK    7  A    between atoms: C_14  and  C_17 
REMARK    8  A    between atoms: C_16  and  C_18 
REMARK    9  A    between atoms: C_17  and  C_21 
ROOT
HETATM    1  N   UNK N   1      25.942  25.527  -4.103  0.00  0.00     0.089 N 
HETATM    2  C   UNK N   1      27.880  23.858  -5.551  0.00  0.00     0.131 C 
HETATM    3  C   UNK N   1      26.377  23.564  -5.708  0.00  0.00     0.072 C 
HETATM    4  C   UNK N   1      28.038  24.226  -4.035  0.00  0.00     0.072 C 
HETATM    5  C   UNK N   1      25.561  24.861  -5.374  0.00  0.00     0.275 C 
HETATM    6  C   UNK N   1      26.789  24.680  -3.275  0.00  0.00     0.275 C 
ENDROOT
BRANCH   2   7
HETATM    7  N   UNK N   1      28.821  22.747  -5.892  0.00  0.00    -0.298 N 
HETATM    8  C   UNK N   1      28.690  22.010  -7.058  0.00  0.00     0.225 C 
HETATM    9  O   UNK N   1      27.701  22.128  -7.765  0.00  0.00    -0.273 OA
BRANCH   7  10
HETATM   10  C   UNK N   1      30.008  22.590  -5.078  0.00  0.00     0.038 A 
HETATM   11  C   UNK N   1      31.171  23.338  -5.330  0.00  0.00     0.030 A 
HETATM   12  C   UNK N   1      32.351  23.063  -4.630  0.00  0.00     0.002 A 
HETATM   13  C   UNK N   1      32.386  22.042  -3.675  0.00  0.00     0.000 A 
HETATM   14  C   UNK N   1      31.234  21.315  -3.392  0.00  0.00     0.002 A 
HETATM   15  C   UNK N   1      30.060  21.590  -4.083  0.00  0.00     0.030 A 
ENDBRANCH   7  10
BRANCH   8  16
HETATM   16  C   UNK N   1      29.820  21.132  -7.556  0.00  0.00     0.099 C 
HETATM   17  C   UNK N   1      29.522  19.652  -7.437  0.00  0.00     0.014 C 
ENDBRANCH   8  16
ENDBRANCH   2   7
BRANCH   2  18
HETATM   18  C   UNK N   1      28.199  25.007  -6.486  0.00  0.00     0.287 C 
HETATM   19  O   UNK N   1      29.105  25.786  -6.225  0.00  0.00    -0.262 OA
BRANCH  18  20
HETATM   20  O   UNK N   1      27.441  25.179  -7.599  0.00  0.00    -0.325 OA
HETATM   21  C   UNK N   1      27.353  26.381  -8.258  0.00  0.00     0.213 C 
ENDBRANCH  18  20
ENDBRANCH   2  18
BRANCH   1  22
HETATM   22  C   UNK N   1      26.640  26.804  -4.296  0.00  0.00     0.282 C 
BRANCH  22  23
HETATM   23  C   UNK N   1      25.719  28.008  -4.148  0.00  0.00     0.141 C 
BRANCH  23  24
HETATM   24  C   UNK N   1      26.381  29.148  -3.444  0.00  0.00     0.260 C 
HETATM   25  O   UNK N   1      26.314  30.282  -3.901  0.00  0.00    -0.265 OA
BRANCH  24  26
HETATM   26  O   UNK N   1      27.062  28.892  -2.303  0.00  0.00    -0.326 OA
HETATM   27  C   UNK N   1      28.209  29.563  -1.957  0.00  0.00     0.213 C 
ENDBRANCH  24  26
ENDBRANCH  23  24
ENDBRANCH  22  23
ENDBRANCH   1  22
TORSDOF 9
ENDMDL
MODEL 7
REMARK VINA RESULT:      -5.7      2.661      7.781
REMARK  9 active torsions:
REMARK  status: ('A' for Active; 'I' for Inactive)
REMARK    1  A    between atoms: O_1  and  C_13 
REMARK    2  A    between atoms: O_4  and  C_21 
REMARK    3  A    between atoms: N_6  and  C_14 
REMARK    4  A    between atoms: N_7  and  C_8 
REMARK    5  A    between atoms: N_7  and  C_15 
REMARK       I    between atoms: N_7  and  C_16 
REMARK    6  A    between atoms: C_8  and  C_13 
REMARK    7  A    between atoms: C_14  and  C_17 
REMARK    8  A    between atoms: C_16  and  C_18 
REMARK    9  A    between atoms: C_17  and  C_21 
ROOT
HETATM    1  N   UNK N   1      35.483  14.120  10.028  0.00  0.00     0.089 N 
HETATM    2  C   UNK N   1      33.836  15.395   7.953  0.00  0.00     0.131 C 
HETATM    3  C   UNK N   1      35.341  15.196   7.695  0.00  0.00     0.072 C 
HETATM    4  C   UNK N   1      33.761  15.798   9.467  0.00  0.00     0.072 C 
HETATM    5  C   UNK N   1      35.868  14.027   8.597  0.00  0.00     0.275 C 
HETATM    6  C   UNK N   1      34.946  15.432  10.364  0.00  0.00     0.275 C 
ENDROOT
BRANCH   2   7
HETATM    7  N   UNK N   1      33.145  16.434   7.128  0.00  0.00    -0.298 N 
HETATM    8  C   UNK N   1      33.609  16.800   5.875  0.00  0.00     0.225 C 
HETATM    9  O   UNK N   1      34.694  16.412   5.471  0.00  0.00    -0.273 OA
BRANCH   7  10
HETATM   10  C   UNK N   1      31.852  16.905   7.577  0.00  0.00     0.038 A 
HETATM   11  C   UNK N   1      30.661  16.418   7.012  0.00  0.00     0.030 A 
HETATM   12  C   UNK N   1      29.432  16.995   7.352  0.00  0.00     0.002 A 
HETATM   13  C   UNK N   1      29.377  18.062   8.255  0.00  0.00     0.000 A 
HETATM   14  C   UNK N   1      30.544  18.532   8.848  0.00  0.00     0.002 A 
HETATM   15  C   UNK N   1      31.765  17.957   8.514  0.00  0.00     0.030 A 
ENDBRANCH   7  10
BRANCH   8  16
HETATM   16  C   UNK N   1      32.734  17.586   4.920  0.00  0.00     0.099 C 
HETATM   17  C   UNK N   1      32.657  16.969   3.539  0.00  0.00     0.014 C 
ENDBRANCH   8  16
ENDBRANCH   2   7
BRANCH   2  18
HETATM   18  C   UNK N   1      33.164  14.072   7.648  0.00  0.00     0.287 C 
HETATM   19  O   UNK N   1      32.330  13.609   8.413  0.00  0.00    -0.262 OA
BRANCH  18  20
HETATM   20  O   UNK N   1      33.526  13.393   6.530  0.00  0.00    -0.325 OA
HETATM   21  C   UNK N   1      32.711  13.285   5.430  0.00  0.00     0.213 C 
ENDBRANCH  18  20
ENDBRANCH   2  18
BRANCH   1  22
HETATM   22  C   UNK N   1      34.492  13.116  10.436  0.00  0.00     0.282 C 
BRANCH  22  23
HETATM   23  C   UNK N   1      35.048  12.115  11.441  0.00  0.00     0.141 C 
BRANCH  23  24
HETATM   24  C   UNK N   1      35.672  12.783  12.623  0.00  0.00     0.260 C 
HETATM   25  O   UNK N   1      36.888  12.911  12.694  0.00  0.00    -0.265 OA
BRANCH  24  26
HETATM   26  O   UNK N   1      34.863  13.228  13.612  0.00  0.00    -0.326 OA
HETATM   27  C   UNK N   1      35.143  13.037  14.943  0.00  0.00     0.213 C 
ENDBRANCH  24  26
ENDBRANCH  23  24
ENDBRANCH  22  23
ENDBRANCH   1  22
TORSDOF 9
ENDMDL
MODEL 8
REMARK VINA RESULT:      -5.7      7.413     10.991
REMARK  9 active torsions:
REMARK  status: ('A' for Active; 'I' for Inactive)
REMARK    1  A    between atoms: O_1  and  C_13 
REMARK    2  A    between atoms: O_4  and  C_21 
REMARK    3  A    between atoms: N_6  and  C_14 
REMARK    4  A    between atoms: N_7  and  C_8 
REMARK    5  A    between atoms: N_7  and  C_15 
REMARK       I    between atoms: N_7  and  C_16 
REMARK    6  A    between atoms: C_8  and  C_13 
REMARK    7  A    between atoms: C_14  and  C_17 
REMARK    8  A    between atoms: C_16  and  C_18 
REMARK    9  A    between atoms: C_17  and  C_21 
ROOT
HETATM    1  N   UNK N   1      25.571  16.622   4.389  0.00  0.00     0.089 N 
HETATM    2  C   UNK N   1      28.301  17.261   5.271  0.00  0.00     0.131 C 
HETATM    3  C   UNK N   1      28.080  16.754   3.834  0.00  0.00     0.072 C 
HETATM    4  C   UNK N   1      27.306  16.408   6.132  0.00  0.00     0.072 C 
HETATM    5  C   UNK N   1      26.600  17.048   3.407  0.00  0.00     0.275 C 
HETATM    6  C   UNK N   1      26.124  15.749   5.416  0.00  0.00     0.275 C 
ENDROOT
BRANCH   2   7
HETATM    7  N   UNK N   1      29.683  17.122   5.827  0.00  0.00    -0.298 N 
HETATM    8  C   UNK N   1      29.933  17.191   7.188  0.00  0.00     0.225 C 
HETATM    9  O   UNK N   1      29.060  17.538   7.968  0.00  0.00    -0.273 OA
BRANCH   7  10
HETATM   10  C   UNK N   1      30.736  16.702   4.927  0.00  0.00     0.038 A 
HETATM   11  C   UNK N   1      31.010  15.340   4.709  0.00  0.00     0.030 A 
HETATM   12  C   UNK N   1      32.126  14.958   3.957  0.00  0.00     0.002 A 
HETATM   13  C   UNK N   1      32.980  15.925   3.417  0.00  0.00     0.000 A 
HETATM   14  C   UNK N   1      32.703  17.276   3.596  0.00  0.00     0.002 A 
HETATM   15  C   UNK N   1      31.593  17.657   4.340  0.00  0.00     0.030 A 
ENDBRANCH   7  10
BRANCH   8  16
HETATM   16  C   UNK N   1      31.253  16.719   7.762  0.00  0.00     0.099 C 
HETATM   17  C   UNK N   1      32.081  17.840   8.355  0.00  0.00     0.014 C 
ENDBRANCH   8  16
ENDBRANCH   2   7
BRANCH   2  18
HETATM   18  C   UNK N   1      27.976  18.740   5.265  0.00  0.00     0.287 C 
HETATM   19  O   UNK N   1      28.481  19.483   4.435  0.00  0.00    -0.262 OA
BRANCH  18  20
HETATM   20  O   UNK N   1      27.144  19.235   6.216  0.00  0.00    -0.325 OA
HETATM   21  C   UNK N   1      27.230  20.526   6.680  0.00  0.00     0.213 C 
ENDBRANCH  18  20
ENDBRANCH   2  18
BRANCH   1  22
HETATM   22  C   UNK N   1      24.908  17.743   5.067  0.00  0.00     0.282 C 
BRANCH  22  23
HETATM   23  C   UNK N   1      23.457  17.917   4.636  0.00  0.00     0.141 C 
BRANCH  23  24
HETATM   24  C   UNK N   1      23.262  19.119   3.769  0.00  0.00     0.260 C 
HETATM   25  O   UNK N   1      24.183  19.903   3.578  0.00  0.00    -0.265 OA
BRANCH  24  26
HETATM   26  O   UNK N   1      22.044  19.322   3.216  0.00  0.00    -0.326 OA
HETATM   27  C   UNK N   1      21.679  20.514   2.641  0.00  0.00     0.213 C 
ENDBRANCH  24  26
ENDBRANCH  23  24
ENDBRANCH  22  23
ENDBRANCH   1  22
TORSDOF 9
ENDMDL
MODEL 9
REMARK VINA RESULT:      -5.7     16.940     20.009
REMARK  9 active torsions:
REMARK  status: ('A' for Active; 'I' for Inactive)
REMARK    1  A    between atoms: O_1  and  C_13 
REMARK    2  A    between atoms: O_4  and  C_21 
REMARK    3  A    between atoms: N_6  and  C_14 
REMARK    4  A    between atoms: N_7  and  C_8 
REMARK    5  A    between atoms: N_7  and  C_15 
REMARK       I    between atoms: N_7  and  C_16 
REMARK    6  A    between atoms: C_8  and  C_13 
REMARK    7  A    between atoms: C_14  and  C_17 
REMARK    8  A    between atoms: C_16  and  C_18 
REMARK    9  A    between atoms: C_17  and  C_21 
ROOT
HETATM    1  N   UNK N   1      26.488  25.247  -4.326  0.00  0.00     0.089 N 
HETATM    2  C   UNK N   1      29.144  23.997  -4.480  0.00  0.00     0.131 C 
HETATM    3  C   UNK N   1      28.168  23.826  -5.659  0.00  0.00     0.072 C 
HETATM    4  C   UNK N   1      28.227  23.896  -3.212  0.00  0.00     0.072 C 
HETATM    5  C   UNK N   1      27.130  25.001  -5.642  0.00  0.00     0.275 C 
HETATM    6  C   UNK N   1      26.729  24.159  -3.389  0.00  0.00     0.275 C 
ENDROOT
BRANCH   2   7
HETATM    7  N   UNK N   1      30.250  22.996  -4.373  0.00  0.00    -0.298 N 
HETATM    8  C   UNK N   1      30.849  22.695  -3.161  0.00  0.00     0.225 C 
HETATM    9  O   UNK N   1      30.612  23.360  -2.164  0.00  0.00    -0.273 OA
BRANCH   7  10
HETATM   10  C   UNK N   1      30.546  22.186  -5.536  0.00  0.00     0.038 A 
HETATM   11  C   UNK N   1      29.940  20.932  -5.726  0.00  0.00     0.030 A 
HETATM   12  C   UNK N   1      30.353  20.102  -6.774  0.00  0.00     0.002 A 
HETATM   13  C   UNK N   1      31.371  20.510  -7.642  0.00  0.00     0.000 A 
HETATM   14  C   UNK N   1      31.956  21.763  -7.487  0.00  0.00     0.002 A 
HETATM   15  C   UNK N   1      31.544  22.590  -6.449  0.00  0.00     0.030 A 
ENDBRANCH   7  10
BRANCH   8  16
HETATM   16  C   UNK N   1      31.714  21.461  -3.004  0.00  0.00     0.099 C 
HETATM   17  C   UNK N   1      33.185  21.730  -3.244  0.00  0.00     0.014 C 
ENDBRANCH   8  16
ENDBRANCH   2   7
BRANCH   2  18
HETATM   18  C   UNK N   1      29.794  25.355  -4.646  0.00  0.00     0.287 C 
HETATM   19  O   UNK N   1      30.140  25.746  -5.752  0.00  0.00    -0.262 OA
BRANCH  18  20
HETATM   20  O   UNK N   1      30.018  26.116  -3.545  0.00  0.00    -0.325 OA
HETATM   21  C   UNK N   1      31.084  26.977  -3.442  0.00  0.00     0.213 C 
ENDBRANCH  18  20
ENDBRANCH   2  18
BRANCH   1  22
HETATM   22  C   UNK N   1      26.925  26.494  -3.684  0.00  0.00     0.282 C 
BRANCH  22  23
HETATM   23  C   UNK N   1      25.987  27.660  -3.964  0.00  0.00     0.141 C 
BRANCH  23  24
HETATM   24  C   UNK N   1      26.468  28.937  -3.354  0.00  0.00     0.260 C 
HETATM   25  O   UNK N   1      26.224  30.011  -3.889  0.00  0.00    -0.265 OA
BRANCH  24  26
HETATM   26  O   UNK N   1      27.187  28.872  -2.210  0.00  0.00    -0.326 OA
HETATM   27  C   UNK N   1      28.304  29.640  -1.991  0.00  0.00     0.213 C 
ENDBRANCH  24  26
ENDBRANCH  23  24
ENDBRANCH  22  23
ENDBRANCH   1  22
TORSDOF 9
ENDMDL
