REMARK  9 active torsions:
REMARK  status: ('A' for Active; 'I' for Inactive)
REMARK    1  A    between atoms: O_1  and  C_13 
REMARK    2  A    between atoms: O_4  and  C_21 
REMARK    3  A    between atoms: N_6  and  C_14 
REMARK    4  A    between atoms: N_7  and  C_8 
REMARK    5  A    between atoms: N_7  and  C_15 
REMARK       I    between atoms: N_7  and  C_16 
REMARK    6  A    between atoms: C_8  and  C_13 
REMARK    7  A    between atoms: C_14  and  C_17 
REMARK    8  A    between atoms: C_16  and  C_18 
REMARK    9  A    between atoms: C_17  and  C_21 
ROOT
HETATM    1  N   UNK N   1       3.055  -1.622  -0.588  0.00  0.00     0.089 N 
HETATM    2  C   UNK N   1       3.765   1.214  -0.283  0.00  0.00     0.131 C 
HETATM    3  C   UNK N   1       2.728   0.814  -1.349  0.00  0.00     0.072 C 
HETATM    4  C   UNK N   1       4.836   0.070  -0.348  0.00  0.00     0.072 C 
HETATM    5  C   UNK N   1       2.084  -0.559  -0.950  0.00  0.00     0.275 C 
HETATM    6  C   UNK N   1       4.417  -1.268  -0.963  0.00  0.00     0.275 C 
ENDROOT
BRANCH   2   7
HETATM    7  N   UNK N   1       4.440   2.536  -0.466  0.00  0.00    -0.298 N 
HETATM    8  C   UNK N   1       3.730   3.681  -0.788  0.00  0.00     0.225 C 
HETATM    9  O   UNK N   1       2.551   3.619  -1.101  0.00  0.00    -0.273 OA
BRANCH   7  10
HETATM   10  C   UNK N   1       5.835   2.642  -0.093  0.00  0.00     0.038 A 
HETATM   11  C   UNK N   1       6.736   3.412  -0.849  0.00  0.00     0.030 A 
HETATM   12  C   UNK N   1       8.105   3.379  -0.561  0.00  0.00     0.002 A 
HETATM   13  C   UNK N   1       8.590   2.580   0.480  0.00  0.00     0.000 A 
HETATM   14  C   UNK N   1       7.706   1.839   1.258  0.00  0.00     0.002 A 
HETATM   15  C   UNK N   1       6.346   1.874   0.975  0.00  0.00     0.030 A 
ENDBRANCH   7  10
BRANCH   8  16
HETATM   16  C   UNK N   1       4.355   5.053  -0.639  0.00  0.00     0.099 C 
HETATM   17  C   UNK N   1       4.416   5.824  -1.941  0.00  0.00     0.014 C 
ENDBRANCH   8  16
ENDBRANCH   2   7
BRANCH   2  18
HETATM   18  C   UNK N   1       3.029   1.275   1.039  0.00  0.00     0.287 C 
HETATM   19  O   UNK N   1       3.443   0.656   2.009  0.00  0.00    -0.262 OA
BRANCH  18  20
HETATM   20  O   UNK N   1       1.884   1.999   1.122  0.00  0.00    -0.325 OA
HETATM   21  C   UNK N   1       1.064   1.968   2.224  0.00  0.00     0.213 C 
ENDBRANCH  18  20
ENDBRANCH   2  18
BRANCH   1  22
HETATM   22  C   UNK N   1       3.058  -1.952   0.843  0.00  0.00     0.282 C 
BRANCH  22  23
HETATM   23  C   UNK N   1       1.996  -2.979   1.213  0.00  0.00     0.141 C 
BRANCH  23  24
HETATM   24  C   UNK N   1       1.965  -4.133   0.264  0.00  0.00     0.260 C 
HETATM   25  O   UNK N   1       2.927  -4.885   0.170  0.00  0.00    -0.265 OA
BRANCH  24  26
HETATM   26  O   UNK N   1       0.858  -4.315  -0.492  0.00  0.00    -0.326 OA
HETATM   27  C   UNK N   1       0.749  -5.323  -1.418  0.00  0.00     0.213 C 
ENDBRANCH  24  26
ENDBRANCH  23  24
ENDBRANCH  22  23
ENDBRANCH   1  22
TORSDOF 9
