MODEL 1
REMARK VINA RESULT:      -5.7      0.000      0.000
REMARK  3 active torsions:
REMARK  status: ('A' for Active; 'I' for Inactive)
REMARK    1  A    between atoms: O_2  and  C_14 
REMARK    2  A    between atoms: C_10  and  N_4 
REMARK    3  A    between atoms: C_13  and  C_14 
ROOT
HETATM    1  O   UNK N   1      26.753  18.902   4.796  0.00  0.00    -0.266 OA
HETATM    2  N   UNK N   1      30.763  17.183   5.740  0.00  0.00    -0.300 N 
HETATM    3  N   UNK N   1      29.428  17.971   7.605  0.00  0.00    -0.336 N 
HETATM    4  N   UNK N   1      29.291  17.707   4.121  0.00  0.00    -0.345 N 
ATOM      5  HN  UNK N   1      28.856  17.823   3.206  1.00  0.00     0.167 HD
HETATM    6  N   UNK N   1      27.311  18.862   6.983  0.00  0.00    -0.318 N 
ATOM      7  HN  UNK N   1      26.423  19.283   7.254  1.00  0.00     0.169 HD
HETATM    8  C   UNK N   1      29.677  17.743   6.290  0.00  0.00     0.144 A 
HETATM    9  C   UNK N   1      30.510  17.166   4.404  0.00  0.00     0.188 A 
HETATM   10  C   UNK N   1      28.792  18.053   5.324  0.00  0.00     0.146 A 
HETATM   11  C   UNK N   1      27.575  18.624   5.650  0.00  0.00     0.277 A 
HETATM   12  C   UNK N   1      28.232  18.539   7.948  0.00  0.00     0.185 A 
HETATM   13  H   UNK N   1      30.091  17.733   8.293  0.00  0.00     0.168 HD
ENDROOT
BRANCH   2  14
HETATM   14  C   UNK N   1      31.956  16.649   6.401  0.00  0.00     0.231 C 
HETATM   15  O   UNK N   1      32.375  17.485   7.459  0.00  0.00    -0.359 OA
HETATM   16  C   UNK N   1      33.689  17.876   7.158  0.00  0.00     0.147 C 
HETATM   17  C   UNK N   1      34.280  16.821   6.258  0.00  0.00     0.038 C 
HETATM   18  C   UNK N   1      33.097  16.481   5.418  0.00  0.00     0.057 C 
BRANCH  16  19
HETATM   19  C   UNK N   1      34.490  18.001   8.443  0.00  0.00     0.196 C 
BRANCH  19  20
HETATM   20  O   UNK N   1      35.243  19.177   8.438  0.00  0.00    -0.398 OA
HETATM   21  H   UNK N   1      35.122  20.054   8.042  0.00  0.00     0.209 HD
ENDBRANCH  19  20
ENDBRANCH  16  19
ENDBRANCH   2  14
TORSDOF 3
ENDMDL
MODEL 2
REMARK VINA RESULT:      -5.7      3.540      6.483
REMARK  3 active torsions:
REMARK  status: ('A' for Active; 'I' for Inactive)
REMARK    1  A    between atoms: O_2  and  C_14 
REMARK    2  A    between atoms: C_10  and  N_4 
REMARK    3  A    between atoms: C_13  and  C_14 
ROOT
HETATM    1  O   UNK N   1      36.351  13.856   9.240  0.00  0.00    -0.266 OA
HETATM    2  N   UNK N   1      32.831  16.275   7.945  0.00  0.00    -0.300 N 
HETATM    3  N   UNK N   1      34.163  17.149   9.773  0.00  0.00    -0.336 N 
HETATM    4  N   UNK N   1      34.025  14.397   7.620  0.00  0.00    -0.345 N 
ATOM      5  HN  UNK N   1      34.346  13.503   7.248  1.00  0.00     0.167 HD
HETATM    6  N   UNK N   1      36.013  15.778  10.374  0.00  0.00    -0.318 N 
ATOM      7  HN  UNK N   1      36.830  15.616  10.962  1.00  0.00     0.169 HD
HETATM    8  C   UNK N   1      33.841  16.233   8.824  0.00  0.00     0.144 A 
HETATM    9  C   UNK N   1      32.958  15.139   7.209  0.00  0.00     0.188 A 
HETATM   10  C   UNK N   1      34.560  15.112   8.629  0.00  0.00     0.146 A 
HETATM   11  C   UNK N   1      35.677  14.856   9.406  0.00  0.00     0.277 A 
HETATM   12  C   UNK N   1      35.260  16.912  10.555  0.00  0.00     0.185 A 
HETATM   13  H   UNK N   1      33.621  17.961   9.895  0.00  0.00     0.168 HD
ENDROOT
BRANCH   2  14
HETATM   14  C   UNK N   1      31.822  17.320   7.754  0.00  0.00     0.231 C 
HETATM   15  O   UNK N   1      31.151  17.613   8.961  0.00  0.00    -0.359 OA
HETATM   16  C   UNK N   1      29.789  17.367   8.727  0.00  0.00     0.147 C 
HETATM   17  C   UNK N   1      29.551  17.510   7.245  0.00  0.00     0.038 C 
HETATM   18  C   UNK N   1      30.805  16.914   6.705  0.00  0.00     0.057 C 
BRANCH  16  19
HETATM   19  C   UNK N   1      28.949  18.362   9.509  0.00  0.00     0.196 C 
BRANCH  19  20
HETATM   20  O   UNK N   1      27.589  18.114   9.315  0.00  0.00    -0.398 OA
HETATM   21  H   UNK N   1      26.836  17.972   9.910  0.00  0.00     0.209 HD
ENDBRANCH  19  20
ENDBRANCH  16  19
ENDBRANCH   2  14
TORSDOF 3
ENDMDL
MODEL 3
REMARK VINA RESULT:      -5.7      8.694     11.111
REMARK  3 active torsions:
REMARK  status: ('A' for Active; 'I' for Inactive)
REMARK    1  A    between atoms: O_2  and  C_14 
REMARK    2  A    between atoms: C_10  and  N_4 
REMARK    3  A    between atoms: C_13  and  C_14 
ROOT
HETATM    1  O   UNK N   1      24.153  11.405  12.693  0.00  0.00    -0.266 OA
HETATM    2  N   UNK N   1      21.415  13.284   9.710  0.00  0.00    -0.300 N 
HETATM    3  N   UNK N   1      23.798  13.537   9.340  0.00  0.00    -0.336 N 
HETATM    4  N   UNK N   1      21.567  12.094  11.613  0.00  0.00    -0.345 N 
ATOM      5  HN  UNK N   1      21.320  11.568  12.452  1.00  0.00     0.167 HD
HETATM    6  N   UNK N   1      25.158  12.493  10.990  0.00  0.00    -0.318 N 
ATOM      7  HN  UNK N   1      26.086  12.264  11.345  1.00  0.00     0.169 HD
HETATM    8  C   UNK N   1      22.706  13.109  10.024  0.00  0.00     0.144 A 
HETATM    9  C   UNK N   1      20.725  12.651  10.698  0.00  0.00     0.188 A 
HETATM   10  C   UNK N   1      22.800  12.393  11.160  0.00  0.00     0.146 A 
HETATM   11  C   UNK N   1      24.041  12.062  11.675  0.00  0.00     0.277 A 
HETATM   12  C   UNK N   1      25.034  13.225   9.835  0.00  0.00     0.185 A 
HETATM   13  H   UNK N   1      23.702  14.059   8.511  0.00  0.00     0.168 HD
ENDROOT
BRANCH   2  14
HETATM   14  C   UNK N   1      20.834  13.957   8.546  0.00  0.00     0.231 C 
HETATM   15  O   UNK N   1      21.832  14.335   7.622  0.00  0.00    -0.359 OA
HETATM   16  C   UNK N   1      21.731  15.728   7.479  0.00  0.00     0.147 C 
HETATM   17  C   UNK N   1      20.318  16.118   7.831  0.00  0.00     0.038 C 
HETATM   18  C   UNK N   1      20.047  15.184   8.959  0.00  0.00     0.057 C 
BRANCH  16  19
HETATM   19  C   UNK N   1      22.061  16.119   6.049  0.00  0.00     0.196 C 
BRANCH  19  20
HETATM   20  O   UNK N   1      22.728  17.345   6.018  0.00  0.00    -0.398 OA
HETATM   21  H   UNK N   1      22.872  18.020   5.336  0.00  0.00     0.209 HD
ENDBRANCH  19  20
ENDBRANCH  16  19
ENDBRANCH   2  14
TORSDOF 3
ENDMDL
MODEL 4
REMARK VINA RESULT:      -5.6      4.947      6.740
REMARK  3 active torsions:
REMARK  status: ('A' for Active; 'I' for Inactive)
REMARK    1  A    between atoms: O_2  and  C_14 
REMARK    2  A    between atoms: C_10  and  N_4 
REMARK    3  A    between atoms: C_13  and  C_14 
ROOT
HETATM    1  O   UNK N   1      20.342  19.525   3.521  0.00  0.00    -0.266 OA
HETATM    2  N   UNK N   1      24.787  19.372   3.903  0.00  0.00    -0.300 N 
HETATM    3  N   UNK N   1      23.500  17.912   5.350  0.00  0.00    -0.336 N 
HETATM    4  N   UNK N   1      23.035  20.321   2.858  0.00  0.00    -0.345 N 
ATOM      5  HN  UNK N   1      22.476  20.906   2.237  1.00  0.00     0.167 HD
HETATM    6  N   UNK N   1      21.144  18.077   5.056  0.00  0.00    -0.318 N 
ATOM      7  HN  UNK N   1      20.205  17.773   5.312  1.00  0.00     0.169 HD
HETATM    8  C   UNK N   1      23.648  18.863   4.392  0.00  0.00     0.144 A 
HETATM    9  C   UNK N   1      24.394  20.267   2.958  0.00  0.00     0.188 A 
HETATM   10  C   UNK N   1      22.598  19.426   3.765  0.00  0.00     0.146 A 
HETATM   11  C   UNK N   1      21.307  19.040   4.083  0.00  0.00     0.277 A 
HETATM   12  C   UNK N   1      22.231  17.521   5.683  0.00  0.00     0.185 A 
HETATM   13  H   UNK N   1      24.284  17.515   5.793  0.00  0.00     0.168 HD
ENDROOT
BRANCH   2  14
HETATM   14  C   UNK N   1      26.168  19.030   4.248  0.00  0.00     0.231 C 
HETATM   15  O   UNK N   1      26.321  18.851   5.640  0.00  0.00    -0.359 OA
HETATM   16  C   UNK N   1      27.288  19.781   6.055  0.00  0.00     0.147 C 
HETATM   17  C   UNK N   1      28.151  20.099   4.861  0.00  0.00     0.038 C 
HETATM   18  C   UNK N   1      27.132  20.100   3.776  0.00  0.00     0.057 C 
BRANCH  16  19
HETATM   19  C   UNK N   1      28.117  19.186   7.181  0.00  0.00     0.196 C 
BRANCH  19  20
HETATM   20  O   UNK N   1      27.405  19.215   8.381  0.00  0.00    -0.398 OA
HETATM   21  H   UNK N   1      27.193  19.909   9.024  0.00  0.00     0.209 HD
ENDBRANCH  19  20
ENDBRANCH  16  19
ENDBRANCH   2  14
TORSDOF 3
ENDMDL
MODEL 5
REMARK VINA RESULT:      -5.5      8.993     11.090
REMARK  3 active torsions:
REMARK  status: ('A' for Active; 'I' for Inactive)
REMARK    1  A    between atoms: O_2  and  C_14 
REMARK    2  A    between atoms: C_10  and  N_4 
REMARK    3  A    between atoms: C_13  and  C_14 
ROOT
HETATM    1  O   UNK N   1      23.872  11.835  13.303  0.00  0.00    -0.266 OA
HETATM    2  N   UNK N   1      23.769  13.158   9.042  0.00  0.00    -0.300 N 
HETATM    3  N   UNK N   1      21.660  12.521  10.055  0.00  0.00    -0.336 N 
HETATM    4  N   UNK N   1      25.057  12.768  10.844  0.00  0.00    -0.345 N 
ATOM      5  HN  UNK N   1      25.868  12.688  11.459  1.00  0.00     0.167 HD
HETATM    6  N   UNK N   1      21.837  11.838  12.328  0.00  0.00    -0.318 N 
ATOM      7  HN  UNK N   1      21.387  11.509  13.183  1.00  0.00     0.169 HD
HETATM    8  C   UNK N   1      23.004  12.712  10.048  0.00  0.00     0.144 A 
HETATM    9  C   UNK N   1      25.031  13.189   9.548  0.00  0.00     0.188 A 
HETATM   10  C   UNK N   1      23.772  12.483  11.129  0.00  0.00     0.146 A 
HETATM   11  C   UNK N   1      23.201  12.038  12.309  0.00  0.00     0.277 A 
HETATM   12  C   UNK N   1      21.077  12.076  11.210  0.00  0.00     0.185 A 
HETATM   13  H   UNK N   1      21.121  12.697   9.251  0.00  0.00     0.168 HD
ENDROOT
BRANCH   2  14
HETATM   14  C   UNK N   1      23.367  13.577   7.697  0.00  0.00     0.231 C 
HETATM   15  O   UNK N   1      22.170  14.326   7.729  0.00  0.00    -0.359 OA
HETATM   16  C   UNK N   1      21.250  13.635   6.925  0.00  0.00     0.147 C 
HETATM   17  C   UNK N   1      22.038  12.817   5.934  0.00  0.00     0.038 C 
HETATM   18  C   UNK N   1      23.182  12.382   6.784  0.00  0.00     0.057 C 
BRANCH  16  19
HETATM   19  C   UNK N   1      20.349  14.629   6.212  0.00  0.00     0.196 C 
BRANCH  19  20
HETATM   20  O   UNK N   1      19.503  15.265   7.124  0.00  0.00    -0.398 OA
HETATM   21  H   UNK N   1      19.075  16.134   7.155  0.00  0.00     0.209 HD
ENDBRANCH  19  20
ENDBRANCH  16  19
ENDBRANCH   2  14
TORSDOF 3
ENDMDL
MODEL 6
REMARK VINA RESULT:      -5.5      2.057      2.319
REMARK  3 active torsions:
REMARK  status: ('A' for Active; 'I' for Inactive)
REMARK    1  A    between atoms: O_2  and  C_14 
REMARK    2  A    between atoms: C_10  and  N_4 
REMARK    3  A    between atoms: C_13  and  C_14 
ROOT
HETATM    1  O   UNK N   1      27.792  18.933   6.812  0.00  0.00    -0.266 OA
HETATM    2  N   UNK N   1      31.281  16.261   7.594  0.00  0.00    -0.300 N 
HETATM    3  N   UNK N   1      30.290  17.377   9.505  0.00  0.00    -0.336 N 
HETATM    4  N   UNK N   1      29.906  17.128   6.039  0.00  0.00    -0.345 N 
ATOM      5  HN  UNK N   1      29.465  17.343   5.144  1.00  0.00     0.167 HD
HETATM    6  N   UNK N   1      28.438  18.771   8.969  0.00  0.00    -0.318 N 
ATOM      7  HN  UNK N   1      27.700  19.406   9.275  1.00  0.00     0.169 HD
HETATM    8  C   UNK N   1      30.403  17.083   8.185  0.00  0.00     0.144 A 
HETATM    9  C   UNK N   1      30.961  16.297   6.272  0.00  0.00     0.188 A 
HETATM   10  C   UNK N   1      29.575  17.599   7.257  0.00  0.00     0.146 A 
HETATM   11  C   UNK N   1      28.561  18.463   7.631  0.00  0.00     0.277 A 
HETATM   12  C   UNK N   1      29.297  18.233   9.895  0.00  0.00     0.185 A 
HETATM   13  H   UNK N   1      30.907  16.985  10.164  0.00  0.00     0.168 HD
ENDROOT
BRANCH   2  14
HETATM   14  C   UNK N   1      32.334  15.447   8.206  0.00  0.00     0.231 C 
HETATM   15  O   UNK N   1      33.069  16.189   9.155  0.00  0.00    -0.359 OA
HETATM   16  C   UNK N   1      34.406  16.167   8.725  0.00  0.00     0.147 C 
HETATM   17  C   UNK N   1      34.587  14.935   7.875  0.00  0.00     0.038 C 
HETATM   18  C   UNK N   1      33.282  14.900   7.158  0.00  0.00     0.057 C 
BRANCH  16  19
HETATM   19  C   UNK N   1      35.329  16.134   9.932  0.00  0.00     0.196 C 
BRANCH  19  20
HETATM   20  O   UNK N   1      34.992  17.145  10.833  0.00  0.00    -0.398 OA
HETATM   21  H   UNK N   1      35.207  17.320  11.763  0.00  0.00     0.209 HD
ENDBRANCH  19  20
ENDBRANCH  16  19
ENDBRANCH   2  14
TORSDOF 3
ENDMDL
MODEL 7
REMARK VINA RESULT:      -5.4      3.821      6.415
REMARK  3 active torsions:
REMARK  status: ('A' for Active; 'I' for Inactive)
REMARK    1  A    between atoms: O_2  and  C_14 
REMARK    2  A    between atoms: C_10  and  N_4 
REMARK    3  A    between atoms: C_13  and  C_14 
ROOT
HETATM    1  O   UNK N   1      34.469  13.661  11.886  0.00  0.00    -0.266 OA
HETATM    2  N   UNK N   1      32.953  16.105   8.473  0.00  0.00    -0.300 N 
HETATM    3  N   UNK N   1      34.690  17.086   9.853  0.00  0.00    -0.336 N 
HETATM    4  N   UNK N   1      32.783  14.166   9.600  0.00  0.00    -0.345 N 
ATOM      5  HN  UNK N   1      32.484  13.234   9.889  1.00  0.00     0.167 HD
HETATM    6  N   UNK N   1      35.421  15.692  11.638  0.00  0.00    -0.318 N 
ATOM      7  HN  UNK N   1      36.032  15.543  12.441  1.00  0.00     0.169 HD
HETATM    8  C   UNK N   1      33.813  16.111   9.501  0.00  0.00     0.144 A 
HETATM    9  C   UNK N   1      32.327  14.900   8.546  0.00  0.00     0.188 A 
HETATM   10  C   UNK N   1      33.717  14.949  10.174  0.00  0.00     0.146 A 
HETATM   11  C   UNK N   1      34.528  14.708  11.269  0.00  0.00     0.277 A 
HETATM   12  C   UNK N   1      35.497  16.869  10.936  0.00  0.00     0.185 A 
HETATM   13  H   UNK N   1      34.741  17.926   9.343  0.00  0.00     0.168 HD
ENDROOT
BRANCH   2  14
HETATM   14  C   UNK N   1      32.740  17.129   7.448  0.00  0.00     0.231 C 
HETATM   15  O   UNK N   1      31.568  16.874   6.703  0.00  0.00    -0.359 OA
HETATM   16  C   UNK N   1      31.969  16.750   5.364  0.00  0.00     0.147 C 
HETATM   17  C   UNK N   1      33.258  17.516   5.204  0.00  0.00     0.038 C 
HETATM   18  C   UNK N   1      33.922  17.212   6.503  0.00  0.00     0.057 C 
BRANCH  16  19
HETATM   19  C   UNK N   1      30.889  17.312   4.454  0.00  0.00     0.196 C 
BRANCH  19  20
HETATM   20  O   UNK N   1      31.404  17.563   3.181  0.00  0.00    -0.398 OA
HETATM   21  H   UNK N   1      31.946  18.271   2.798  0.00  0.00     0.209 HD
ENDBRANCH  19  20
ENDBRANCH  16  19
ENDBRANCH   2  14
TORSDOF 3
ENDMDL
MODEL 8
REMARK VINA RESULT:      -5.4      9.619     11.961
REMARK  3 active torsions:
REMARK  status: ('A' for Active; 'I' for Inactive)
REMARK    1  A    between atoms: O_2  and  C_14 
REMARK    2  A    between atoms: C_10  and  N_4 
REMARK    3  A    between atoms: C_13  and  C_14 
ROOT
HETATM    1  O   UNK N   1      24.591  11.802  11.374  0.00  0.00    -0.266 OA
HETATM    2  N   UNK N   1      21.511  13.932   8.945  0.00  0.00    -0.300 N 
HETATM    3  N   UNK N   1      20.735  12.705  10.887  0.00  0.00    -0.336 N 
HETATM    4  N   UNK N   1      23.693  13.434   9.171  0.00  0.00    -0.345 N 
ATOM      5  HN  UNK N   1      24.700  13.386   9.010  1.00  0.00     0.167 HD
HETATM    6  N   UNK N   1      22.464  11.614  12.107  0.00  0.00    -0.318 N 
ATOM      7  HN  UNK N   1      22.749  11.036  12.897  1.00  0.00     0.169 HD
HETATM    8  C   UNK N   1      21.680  13.149  10.019  0.00  0.00     0.144 A 
HETATM    9  C   UNK N   1      22.761  14.100   8.433  0.00  0.00     0.188 A 
HETATM   10  C   UNK N   1      22.986  12.854  10.159  0.00  0.00     0.146 A 
HETATM   11  C   UNK N   1      23.414  12.073  11.219  0.00  0.00     0.277 A 
HETATM   12  C   UNK N   1      21.138  11.927  11.939  0.00  0.00     0.185 A 
HETATM   13  H   UNK N   1      19.787  12.937  10.763  0.00  0.00     0.168 HD
ENDROOT
BRANCH   2  14
HETATM   14  C   UNK N   1      20.279  14.534   8.431  0.00  0.00     0.231 C 
HETATM   15  O   UNK N   1      20.132  14.301   7.046  0.00  0.00    -0.359 OA
HETATM   16  C   UNK N   1      20.060  15.564   6.437  0.00  0.00     0.147 C 
HETATM   17  C   UNK N   1      19.558  16.537   7.473  0.00  0.00     0.038 C 
HETATM   18  C   UNK N   1      20.249  16.027   8.690  0.00  0.00     0.057 C 
BRANCH  16  19
HETATM   19  C   UNK N   1      19.117  15.503   5.248  0.00  0.00     0.196 C 
BRANCH  19  20
HETATM   20  O   UNK N   1      17.824  15.865   5.631  0.00  0.00    -0.398 OA
HETATM   21  H   UNK N   1      16.984  15.973   5.157  0.00  0.00     0.209 HD
ENDBRANCH  19  20
ENDBRANCH  16  19
ENDBRANCH   2  14
TORSDOF 3
ENDMDL
MODEL 9
REMARK VINA RESULT:      -5.3      8.964     10.382
REMARK  3 active torsions:
REMARK  status: ('A' for Active; 'I' for Inactive)
REMARK    1  A    between atoms: O_2  and  C_14 
REMARK    2  A    between atoms: C_10  and  N_4 
REMARK    3  A    between atoms: C_13  and  C_14 
ROOT
HETATM    1  O   UNK N   1      21.858  20.940   1.868  0.00  0.00    -0.266 OA
HETATM    2  N   UNK N   1      21.915  17.456   4.657  0.00  0.00    -0.300 N 
HETATM    3  N   UNK N   1      19.850  17.883   3.460  0.00  0.00    -0.336 N 
HETATM    4  N   UNK N   1      23.080  19.177   3.798  0.00  0.00    -0.345 N 
ATOM      5  HN  UNK N   1      23.833  19.837   3.599  1.00  0.00     0.167 HD
HETATM    6  N   UNK N   1      19.938  19.761   2.001  0.00  0.00    -0.318 N 
ATOM      7  HN  UNK N   1      19.478  20.365   1.320  1.00  0.00     0.169 HD
HETATM    8  C   UNK N   1      21.137  18.140   3.808  0.00  0.00     0.144 A 
HETATM    9  C   UNK N   1      23.110  18.105   4.639  0.00  0.00     0.188 A 
HETATM   10  C   UNK N   1      21.833  19.169   3.289  0.00  0.00     0.146 A 
HETATM   11  C   UNK N   1      21.246  20.011   2.361  0.00  0.00     0.277 A 
HETATM   12  C   UNK N   1      19.249  18.707   2.548  0.00  0.00     0.185 A 
HETATM   13  H   UNK N   1      19.363  17.123   3.853  0.00  0.00     0.168 HD
ENDROOT
BRANCH   2  14
HETATM   14  C   UNK N   1      21.602  16.244   5.417  0.00  0.00     0.231 C 
HETATM   15  O   UNK N   1      20.587  16.482   6.369  0.00  0.00    -0.359 OA
HETATM   16  C   UNK N   1      21.137  16.166   7.621  0.00  0.00     0.147 C 
HETATM   17  C   UNK N   1      22.252  15.178   7.390  0.00  0.00     0.038 C 
HETATM   18  C   UNK N   1      22.831  15.707   6.123  0.00  0.00     0.057 C 
BRANCH  16  19
HETATM   19  C   UNK N   1      20.063  15.571   8.515  0.00  0.00     0.196 C 
BRANCH  19  20
HETATM   20  O   UNK N   1      20.060  14.178   8.415  0.00  0.00    -0.398 OA
HETATM   21  H   UNK N   1      20.671  13.526   8.036  0.00  0.00     0.209 HD
ENDBRANCH  19  20
ENDBRANCH  16  19
ENDBRANCH   2  14
TORSDOF 3
ENDMDL
