MODEL 1
REMARK VINA RESULT:      -6.7      0.000      0.000
REMARK  2 active torsions:
REMARK  status: ('A' for Active; 'I' for Inactive)
REMARK    1  A    between atoms: N_3  and  C_8 
REMARK    2  A    between atoms: C_4  and  C_8 
ROOT
HETATM    1  S   UNK N   1      28.988  16.791   5.498  0.00  0.00    -0.086 SA
HETATM    2  N   UNK N   1      31.781  17.467   6.944  0.00  0.00    -0.344 N 
HETATM    3  C   UNK N   1      31.790  17.189   5.528  0.00  0.00     0.052 A 
HETATM    4  C   UNK N   1      30.566  17.625   7.697  0.00  0.00     0.052 A 
HETATM    5  C   UNK N   1      30.613  16.915   4.789  0.00  0.00     0.032 A 
HETATM    6  C   UNK N   1      29.281  17.375   7.151  0.00  0.00     0.032 A 
HETATM    7  C   UNK N   1      33.007  17.194   4.826  0.00  0.00     0.031 A 
HETATM    8  C   UNK N   1      30.639  18.041   9.043  0.00  0.00     0.031 A 
HETATM    9  C   UNK N   1      30.694  16.671   3.412  0.00  0.00     0.021 A 
HETATM   10  C   UNK N   1      28.141  17.539   7.946  0.00  0.00     0.021 A 
HETATM   11  C   UNK N   1      33.078  16.960   3.457  0.00  0.00     0.002 A 
HETATM   12  C   UNK N   1      29.491  18.208   9.819  0.00  0.00     0.002 A 
HETATM   13  C   UNK N   1      31.916  16.700   2.744  0.00  0.00     0.002 A 
HETATM   14  C   UNK N   1      28.239  17.956   9.269  0.00  0.00     0.002 A 
ENDROOT
BRANCH   2  15
HETATM   15  C   UNK N   1      33.048  17.528   7.692  0.00  0.00     0.136 C 
BRANCH  15  16
HETATM   16  C   UNK N   1      33.479  16.223   8.369  0.00  0.00     0.034 C 
HETATM   17  C   UNK N   1      34.597  15.557   7.600  0.00  0.00     0.038 C 
HETATM   18  C   UNK N   1      35.510  14.965   8.672  0.00  0.00     0.272 C 
HETATM   19  N   UNK N   1      35.006  15.391   9.972  0.00  0.00     0.084 N 
HETATM   20  C   UNK N   1      34.169  16.534   9.676  0.00  0.00     0.278 C 
HETATM   21  C   UNK N   1      36.124  15.866  10.766  0.00  0.00     0.309 C 
ENDBRANCH  15  16
ENDBRANCH   2  15
TORSDOF 2
ENDMDL
MODEL 2
REMARK VINA RESULT:      -6.3      1.945      6.107
REMARK  2 active torsions:
REMARK  status: ('A' for Active; 'I' for Inactive)
REMARK    1  A    between atoms: N_3  and  C_8 
REMARK    2  A    between atoms: C_4  and  C_8 
ROOT
HETATM    1  S   UNK N   1      35.099  14.351   6.278  0.00  0.00    -0.086 SA
HETATM    2  N   UNK N   1      33.505  16.983   7.219  0.00  0.00    -0.344 N 
HETATM    3  C   UNK N   1      34.360  16.319   8.173  0.00  0.00     0.052 A 
HETATM    4  C   UNK N   1      33.469  16.622   5.827  0.00  0.00     0.052 A 
HETATM    5  C   UNK N   1      35.132  15.176   7.852  0.00  0.00     0.032 A 
HETATM    6  C   UNK N   1      34.151  15.496   5.302  0.00  0.00     0.032 A 
HETATM    7  C   UNK N   1      34.457  16.816   9.483  0.00  0.00     0.031 A 
HETATM    8  C   UNK N   1      32.718  17.413   4.931  0.00  0.00     0.031 A 
HETATM    9  C   UNK N   1      35.956  14.594   8.825  0.00  0.00     0.021 A 
HETATM   10  C   UNK N   1      34.063  15.199   3.937  0.00  0.00     0.021 A 
HETATM   11  C   UNK N   1      35.284  16.238  10.440  0.00  0.00     0.002 A 
HETATM   12  C   UNK N   1      32.648  17.107   3.570  0.00  0.00     0.002 A 
HETATM   13  C   UNK N   1      36.040  15.122  10.110  0.00  0.00     0.002 A 
HETATM   14  C   UNK N   1      33.321  15.997   3.073  0.00  0.00     0.002 A 
ENDROOT
BRANCH   2  15
HETATM   15  C   UNK N   1      32.568  18.026   7.668  0.00  0.00     0.136 C 
BRANCH  15  16
HETATM   16  C   UNK N   1      31.299  17.521   8.362  0.00  0.00     0.034 C 
HETATM   17  C   UNK N   1      30.607  18.638   9.107  0.00  0.00     0.038 C 
HETATM   18  C   UNK N   1      29.116  18.371   8.914  0.00  0.00     0.272 C 
HETATM   19  N   UNK N   1      28.978  17.246   7.998  0.00  0.00     0.084 N 
HETATM   20  C   UNK N   1      30.257  17.172   7.325  0.00  0.00     0.278 C 
HETATM   21  C   UNK N   1      27.982  17.583   6.998  0.00  0.00     0.309 C 
ENDBRANCH  15  16
ENDBRANCH   2  15
TORSDOF 2
ENDMDL
MODEL 3
REMARK VINA RESULT:      -6.2      3.250      6.405
REMARK  2 active torsions:
REMARK  status: ('A' for Active; 'I' for Inactive)
REMARK    1  A    between atoms: N_3  and  C_8 
REMARK    2  A    between atoms: C_4  and  C_8 
ROOT
HETATM    1  S   UNK N   1      28.581  18.810   8.237  0.00  0.00    -0.086 SA
HETATM    2  N   UNK N   1      29.224  17.680   5.294  0.00  0.00    -0.344 N 
HETATM    3  C   UNK N   1      28.292  18.774   5.421  0.00  0.00     0.052 A 
HETATM    4  C   UNK N   1      30.003  17.191   6.399  0.00  0.00     0.052 A 
HETATM    5  C   UNK N   1      27.967  19.369   6.665  0.00  0.00     0.032 A 
HETATM    6  C   UNK N   1      29.817  17.636   7.732  0.00  0.00     0.032 A 
HETATM    7  C   UNK N   1      27.674  19.299   4.274  0.00  0.00     0.031 A 
HETATM    8  C   UNK N   1      30.998  16.217   6.163  0.00  0.00     0.031 A 
HETATM    9  C   UNK N   1      27.067  20.442   6.712  0.00  0.00     0.021 A 
HETATM   10  C   UNK N   1      30.606  17.108   8.762  0.00  0.00     0.021 A 
HETATM   11  C   UNK N   1      26.789  20.371   4.329  0.00  0.00     0.002 A 
HETATM   12  C   UNK N   1      31.781  15.708   7.200  0.00  0.00     0.002 A 
HETATM   13  C   UNK N   1      26.485  20.948   5.553  0.00  0.00     0.002 A 
HETATM   14  C   UNK N   1      31.583  16.154   8.502  0.00  0.00     0.002 A 
ENDROOT
BRANCH   2  15
HETATM   15  C   UNK N   1      29.354  16.967   4.012  0.00  0.00     0.136 C 
BRANCH  15  16
HETATM   16  C   UNK N   1      28.475  15.722   3.856  0.00  0.00     0.034 C 
HETATM   17  C   UNK N   1      27.401  15.943   2.816  0.00  0.00     0.038 C 
HETATM   18  C   UNK N   1      27.275  14.602   2.094  0.00  0.00     0.272 C 
HETATM   19  N   UNK N   1      28.314  13.719   2.608  0.00  0.00     0.084 N 
HETATM   20  C   UNK N   1      29.276  14.612   3.217  0.00  0.00     0.278 C 
HETATM   21  C   UNK N   1      28.970  13.076   1.485  0.00  0.00     0.309 C 
ENDBRANCH  15  16
ENDBRANCH   2  15
TORSDOF 2
ENDMDL
MODEL 4
REMARK VINA RESULT:      -6.2      0.591      4.155
REMARK  2 active torsions:
REMARK  status: ('A' for Active; 'I' for Inactive)
REMARK    1  A    between atoms: N_3  and  C_8 
REMARK    2  A    between atoms: C_4  and  C_8 
ROOT
HETATM    1  S   UNK N   1      29.254  17.623   5.214  0.00  0.00    -0.086 SA
HETATM    2  N   UNK N   1      31.855  17.303   7.081  0.00  0.00    -0.344 N 
HETATM    3  C   UNK N   1      30.583  17.558   7.713  0.00  0.00     0.052 A 
HETATM    4  C   UNK N   1      31.981  17.015   5.677  0.00  0.00     0.052 A 
HETATM    5  C   UNK N   1      29.373  17.680   6.987  0.00  0.00     0.032 A 
HETATM    6  C   UNK N   1      30.895  17.104   4.770  0.00  0.00     0.032 A 
HETATM    7  C   UNK N   1      30.513  17.685   9.110  0.00  0.00     0.031 A 
HETATM    8  C   UNK N   1      33.238  16.632   5.164  0.00  0.00     0.031 A 
HETATM    9  C   UNK N   1      28.170  17.911   7.668  0.00  0.00     0.021 A 
HETATM   10  C   UNK N   1      31.093  16.820   3.414  0.00  0.00     0.021 A 
HETATM   11  C   UNK N   1      29.314  17.904   9.780  0.00  0.00     0.002 A 
HETATM   12  C   UNK N   1      33.416  16.343   3.809  0.00  0.00     0.002 A 
HETATM   13  C   UNK N   1      28.135  18.015   9.056  0.00  0.00     0.002 A 
HETATM   14  C   UNK N   1      32.341  16.438   2.933  0.00  0.00     0.002 A 
ENDROOT
BRANCH   2  15
HETATM   15  C   UNK N   1      33.100  17.403   7.861  0.00  0.00     0.136 C 
BRANCH  15  16
HETATM   16  C   UNK N   1      33.301  16.322   8.927  0.00  0.00     0.034 C 
HETATM   17  C   UNK N   1      33.676  15.001   8.296  0.00  0.00     0.038 C 
HETATM   18  C   UNK N   1      34.695  14.386   9.254  0.00  0.00     0.272 C 
HETATM   19  N   UNK N   1      34.978  15.366  10.295  0.00  0.00     0.084 N 
HETATM   20  C   UNK N   1      34.545  16.626   9.729  0.00  0.00     0.278 C 
HETATM   21  C   UNK N   1      36.416  15.444  10.476  0.00  0.00     0.309 C 
ENDBRANCH  15  16
ENDBRANCH   2  15
TORSDOF 2
ENDMDL
MODEL 5
REMARK VINA RESULT:      -6.2      2.920      7.080
REMARK  2 active torsions:
REMARK  status: ('A' for Active; 'I' for Inactive)
REMARK    1  A    between atoms: N_3  and  C_8 
REMARK    2  A    between atoms: C_4  and  C_8 
ROOT
HETATM    1  S   UNK N   1      32.279  17.234   7.304  0.00  0.00    -0.086 SA
HETATM    2  N   UNK N   1      29.479  17.119   5.722  0.00  0.00    -0.344 N 
HETATM    3  C   UNK N   1      29.460  17.432   7.130  0.00  0.00     0.052 A 
HETATM    4  C   UNK N   1      30.698  17.028   4.963  0.00  0.00     0.052 A 
HETATM    5  C   UNK N   1      30.636  17.543   7.911  0.00  0.00     0.032 A 
HETATM    6  C   UNK N   1      31.984  17.088   5.557  0.00  0.00     0.032 A 
HETATM    7  C   UNK N   1      28.233  17.653   7.777  0.00  0.00     0.031 A 
HETATM    8  C   UNK N   1      30.627  16.864   3.563  0.00  0.00     0.031 A 
HETATM    9  C   UNK N   1      30.544  17.868   9.271  0.00  0.00     0.021 A 
HETATM   10  C   UNK N   1      33.128  16.981   4.758  0.00  0.00     0.021 A 
HETATM   11  C   UNK N   1      28.150  17.985   9.125  0.00  0.00     0.002 A 
HETATM   12  C   UNK N   1      31.778  16.768   2.780  0.00  0.00     0.002 A 
HETATM   13  C   UNK N   1      29.311  18.096   9.876  0.00  0.00     0.002 A 
HETATM   14  C   UNK N   1      33.031  16.826   3.379  0.00  0.00     0.002 A 
ENDROOT
BRANCH   2  15
HETATM   15  C   UNK N   1      28.225  16.805   5.018  0.00  0.00     0.136 C 
BRANCH  15  16
HETATM   16  C   UNK N   1      27.568  17.977   4.283  0.00  0.00     0.034 C 
HETATM   17  C   UNK N   1      26.086  18.037   4.571  0.00  0.00     0.038 C 
HETATM   18  C   UNK N   1      25.765  19.528   4.660  0.00  0.00     0.272 C 
HETATM   19  N   UNK N   1      27.021  20.261   4.563  0.00  0.00     0.084 N 
HETATM   20  C   UNK N   1      28.035  19.281   4.886  0.00  0.00     0.278 C 
HETATM   21  C   UNK N   1      27.047  21.271   5.605  0.00  0.00     0.309 C 
ENDBRANCH  15  16
ENDBRANCH   2  15
TORSDOF 2
ENDMDL
MODEL 6
REMARK VINA RESULT:      -6.0      7.559     11.786
REMARK  2 active torsions:
REMARK  status: ('A' for Active; 'I' for Inactive)
REMARK    1  A    between atoms: N_3  and  C_8 
REMARK    2  A    between atoms: C_4  and  C_8 
ROOT
HETATM    1  S   UNK N   1      35.419   9.151  17.672  0.00  0.00    -0.086 SA
HETATM    2  N   UNK N   1      35.096  11.077  15.115  0.00  0.00    -0.344 N 
HETATM    3  C   UNK N   1      35.139  11.678  16.426  0.00  0.00     0.052 A 
HETATM    4  C   UNK N   1      35.363   9.682  14.891  0.00  0.00     0.052 A 
HETATM    5  C   UNK N   1      35.314  10.925  17.613  0.00  0.00     0.032 A 
HETATM    6  C   UNK N   1      35.543   8.751  15.944  0.00  0.00     0.032 A 
HETATM    7  C   UNK N   1      35.015  13.071  16.558  0.00  0.00     0.031 A 
HETATM    8  C   UNK N   1      35.446   9.202  13.566  0.00  0.00     0.031 A 
HETATM    9  C   UNK N   1      35.365  11.577  18.853  0.00  0.00     0.021 A 
HETATM   10  C   UNK N   1      35.790   7.404  15.652  0.00  0.00     0.021 A 
HETATM   11  C   UNK N   1      35.076  13.711  17.792  0.00  0.00     0.002 A 
HETATM   12  C   UNK N   1      35.702   7.857  13.293  0.00  0.00     0.002 A 
HETATM   13  C   UNK N   1      35.254  12.961  18.945  0.00  0.00     0.002 A 
HETATM   14  C   UNK N   1      35.873   6.956  14.338  0.00  0.00     0.002 A 
ENDROOT
BRANCH   2  15
HETATM   15  C   UNK N   1      34.696  11.881  13.948  0.00  0.00     0.136 C 
BRANCH  15  16
HETATM   16  C   UNK N   1      35.839  12.567  13.195  0.00  0.00     0.034 C 
HETATM   17  C   UNK N   1      35.822  12.199  11.730  0.00  0.00     0.038 C 
HETATM   18  C   UNK N   1      36.228  13.478  11.000  0.00  0.00     0.272 C 
HETATM   19  N   UNK N   1      36.335  14.542  11.990  0.00  0.00     0.084 N 
HETATM   20  C   UNK N   1      35.580  14.054  13.124  0.00  0.00     0.278 C 
HETATM   21  C   UNK N   1      35.647  15.715  11.484  0.00  0.00     0.309 C 
ENDBRANCH  15  16
ENDBRANCH   2  15
TORSDOF 2
ENDMDL
MODEL 7
REMARK VINA RESULT:      -6.0     13.594     16.199
REMARK  2 active torsions:
REMARK  status: ('A' for Active; 'I' for Inactive)
REMARK    1  A    between atoms: N_3  and  C_8 
REMARK    2  A    between atoms: C_4  and  C_8 
ROOT
HETATM    1  S   UNK N   1      29.727  21.875  -7.288  0.00  0.00    -0.086 SA
HETATM    2  N   UNK N   1      27.613  23.466  -5.456  0.00  0.00    -0.344 N 
HETATM    3  C   UNK N   1      27.115  22.701  -6.574  0.00  0.00     0.052 A 
HETATM    4  C   UNK N   1      28.985  23.409  -5.026  0.00  0.00     0.052 A 
HETATM    5  C   UNK N   1      27.955  21.937  -7.420  0.00  0.00     0.032 A 
HETATM    6  C   UNK N   1      29.992  22.718  -5.746  0.00  0.00     0.032 A 
HETATM    7  C   UNK N   1      25.738  22.688  -6.849  0.00  0.00     0.031 A 
HETATM    8  C   UNK N   1      29.361  24.070  -3.837  0.00  0.00     0.031 A 
HETATM    9  C   UNK N   1      27.400  21.203  -8.477  0.00  0.00     0.021 A 
HETATM   10  C   UNK N   1      31.310  22.713  -5.273  0.00  0.00     0.021 A 
HETATM   11  C   UNK N   1      25.193  21.949  -7.894  0.00  0.00     0.002 A 
HETATM   12  C   UNK N   1      30.678  24.048  -3.376  0.00  0.00     0.002 A 
HETATM   13  C   UNK N   1      26.028  21.200  -8.711  0.00  0.00     0.002 A 
HETATM   14  C   UNK N   1      31.654  23.368  -4.096  0.00  0.00     0.002 A 
ENDROOT
BRANCH   2  15
HETATM   15  C   UNK N   1      26.727  24.407  -4.752  0.00  0.00     0.136 C 
BRANCH  15  16
HETATM   16  C   UNK N   1      26.581  25.788  -5.397  0.00  0.00     0.034 C 
HETATM   17  C   UNK N   1      25.126  26.138  -5.607  0.00  0.00     0.038 C 
HETATM   18  C   UNK N   1      25.038  27.635  -5.316  0.00  0.00     0.272 C 
HETATM   19  N   UNK N   1      26.343  28.073  -4.837  0.00  0.00     0.084 N 
HETATM   20  C   UNK N   1      26.998  26.855  -4.413  0.00  0.00     0.278 C 
HETATM   21  C   UNK N   1      26.149  28.894  -3.656  0.00  0.00     0.309 C 
ENDBRANCH  15  16
ENDBRANCH   2  15
TORSDOF 2
ENDMDL
MODEL 8
REMARK VINA RESULT:      -6.0      3.300      4.856
REMARK  2 active torsions:
REMARK  status: ('A' for Active; 'I' for Inactive)
REMARK    1  A    between atoms: N_3  and  C_8 
REMARK    2  A    between atoms: C_4  and  C_8 
ROOT
HETATM    1  S   UNK N   1      25.761  16.669   3.014  0.00  0.00    -0.086 SA
HETATM    2  N   UNK N   1      28.687  17.444   4.107  0.00  0.00    -0.344 N 
HETATM    3  C   UNK N   1      28.528  16.201   3.391  0.00  0.00     0.052 A 
HETATM    4  C   UNK N   1      27.640  18.425   4.201  0.00  0.00     0.052 A 
HETATM    5  C   UNK N   1      27.292  15.782   2.839  0.00  0.00     0.032 A 
HETATM    6  C   UNK N   1      26.321  18.196   3.732  0.00  0.00     0.032 A 
HETATM    7  C   UNK N   1      29.634  15.355   3.212  0.00  0.00     0.031 A 
HETATM    8  C   UNK N   1      27.920  19.676   4.790  0.00  0.00     0.031 A 
HETATM    9  C   UNK N   1      27.214  14.570   2.140  0.00  0.00     0.021 A 
HETATM   10  C   UNK N   1      25.348  19.193   3.867  0.00  0.00     0.021 A 
HETATM   11  C   UNK N   1      29.551  14.157   2.509  0.00  0.00     0.002 A 
HETATM   12  C   UNK N   1      26.940  20.664   4.908  0.00  0.00     0.002 A 
HETATM   13  C   UNK N   1      28.336  13.763   1.967  0.00  0.00     0.002 A 
HETATM   14  C   UNK N   1      25.651  20.420   4.446  0.00  0.00     0.002 A 
ENDROOT
BRANCH   2  15
HETATM   15  C   UNK N   1      29.933  17.719   4.840  0.00  0.00     0.136 C 
BRANCH  15  16
HETATM   16  C   UNK N   1      30.092  16.982   6.174  0.00  0.00     0.034 C 
HETATM   17  C   UNK N   1      31.516  17.062   6.672  0.00  0.00     0.038 C 
HETATM   18  C   UNK N   1      31.393  17.211   8.187  0.00  0.00     0.272 C 
HETATM   19  N   UNK N   1      29.977  17.343   8.509  0.00  0.00     0.084 N 
HETATM   20  C   UNK N   1      29.361  17.736   7.260  0.00  0.00     0.278 C 
HETATM   21  C   UNK N   1      29.817  18.448   9.437  0.00  0.00     0.309 C 
ENDBRANCH  15  16
ENDBRANCH   2  15
TORSDOF 2
ENDMDL
MODEL 9
REMARK VINA RESULT:      -5.9      2.878      7.231
REMARK  2 active torsions:
REMARK  status: ('A' for Active; 'I' for Inactive)
REMARK    1  A    between atoms: N_3  and  C_8 
REMARK    2  A    between atoms: C_4  and  C_8 
ROOT
HETATM    1  S   UNK N   1      32.175  16.720   7.492  0.00  0.00    -0.086 SA
HETATM    2  N   UNK N   1      29.753  17.538   5.537  0.00  0.00    -0.344 N 
HETATM    3  C   UNK N   1      29.597  17.759   6.954  0.00  0.00     0.052 A 
HETATM    4  C   UNK N   1      31.001  17.132   4.947  0.00  0.00     0.052 A 
HETATM    5  C   UNK N   1      30.613  17.468   7.896  0.00  0.00     0.032 A 
HETATM    6  C   UNK N   1      32.137  16.772   5.715  0.00  0.00     0.032 A 
HETATM    7  C   UNK N   1      28.396  18.296   7.446  0.00  0.00     0.031 A 
HETATM    8  C   UNK N   1      31.113  17.079   3.541  0.00  0.00     0.031 A 
HETATM    9  C   UNK N   1      30.399  17.726   9.257  0.00  0.00     0.021 A 
HETATM   10  C   UNK N   1      33.317  16.376   5.074  0.00  0.00     0.021 A 
HETATM   11  C   UNK N   1      28.194  18.558   8.797  0.00  0.00     0.002 A 
HETATM   12  C   UNK N   1      32.301  16.691   2.918  0.00  0.00     0.002 A 
HETATM   13  C   UNK N   1      29.202  18.274   9.708  0.00  0.00     0.002 A 
HETATM   14  C   UNK N   1      33.404  16.338   3.687  0.00  0.00     0.002 A 
ENDROOT
BRANCH   2  15
HETATM   15  C   UNK N   1      28.592  17.653   4.639  0.00  0.00     0.136 C 
BRANCH  15  16
HETATM   16  C   UNK N   1      27.695  16.415   4.556  0.00  0.00     0.034 C 
HETATM   17  C   UNK N   1      26.254  16.769   4.839  0.00  0.00     0.038 C 
HETATM   18  C   UNK N   1      25.441  15.894   3.887  0.00  0.00     0.272 C 
HETATM   19  N   UNK N   1      26.378  15.187   3.021  0.00  0.00     0.084 N 
HETATM   20  C   UNK N   1      27.604  15.950   3.121  0.00  0.00     0.278 C 
HETATM   21  C   UNK N   1      25.911  15.295   1.651  0.00  0.00     0.309 C 
ENDBRANCH  15  16
ENDBRANCH   2  15
TORSDOF 2
ENDMDL
