MODEL 1
REMARK VINA RESULT:      -6.0      0.000      0.000
REMARK  7 active torsions:
REMARK  status: ('A' for Active; 'I' for Inactive)
REMARK    1  A    between atoms: O_3  and  C_13 
REMARK    2  A    between atoms: O_3  and  C_18 
REMARK    3  A    between atoms: O_5  and  C_19 
REMARK    4  A    between atoms: C_7  and  C_9 
REMARK    5  A    between atoms: C_8  and  C_9 
REMARK    6  A    between atoms: C_8  and  C_10 
REMARK    7  A    between atoms: C_18  and  C_19 
ROOT
HETATM    1 Cl   UNK N   1      29.400  16.868   3.494  0.00  0.00    -0.081 Cl
HETATM    2 Cl   UNK N   1      32.186  16.177   4.795  0.00  0.00    -0.080 Cl
HETATM    3  C   UNK N   1      28.634  17.802   6.024  0.00  0.00     0.038 A 
HETATM    4  C   UNK N   1      29.655  17.223   5.210  0.00  0.00     0.072 A 
HETATM    5  C   UNK N   1      28.925  18.043   7.371  0.00  0.00     0.020 A 
HETATM    6  C   UNK N   1      31.158  17.148   7.138  0.00  0.00     0.092 A 
HETATM    7  C   UNK N   1      30.913  16.906   5.777  0.00  0.00     0.090 A 
HETATM    8  C   UNK N   1      30.155  17.723   7.922  0.00  0.00     0.039 A 
ENDROOT
BRANCH   3   9
HETATM    9  C   UNK N   1      27.251  18.134   5.507  0.00  0.00     0.189 C 
HETATM   10  O   UNK N   1      26.385  17.272   5.529  0.00  0.00    -0.287 OA
BRANCH   9  11
HETATM   11  C   UNK N   1      26.854  19.490   4.990  0.00  0.00    -0.017 C 
HETATM   12  C   UNK N   1      26.931  19.805   3.691  0.00  0.00     0.023 C 
BRANCH  11  13
HETATM   13  C   UNK N   1      26.346  20.515   5.981  0.00  0.00     0.037 C 
HETATM   14  C   UNK N   1      27.341  21.618   6.328  0.00  0.00     0.010 C 
ENDBRANCH  11  13
ENDBRANCH   9  11
ENDBRANCH   3   9
BRANCH   6  15
HETATM   15  O   UNK N   1      32.353  16.816   7.687  0.00  0.00    -0.339 OA
BRANCH  15  16
HETATM   16  C   UNK N   1      33.056  17.689   8.494  0.00  0.00     0.285 C 
BRANCH  16  17
HETATM   17  C   UNK N   1      34.254  18.228   7.792  0.00  0.00     0.164 C 
HETATM   18  O   UNK N   1      34.538  17.839   6.670  0.00  0.00    -0.648 OA
BRANCH  17  19
HETATM   19  O   UNK N   1      35.046  19.119   8.415  0.00  0.00    -0.775 OA
HETATM   20  H   UNK N   1      35.967  19.290   8.400  0.00  0.00     0.167 HD
ENDBRANCH  17  19
ENDBRANCH  16  17
ENDBRANCH  15  16
ENDBRANCH   6  15
TORSDOF 7
ENDMDL
MODEL 2
REMARK VINA RESULT:      -5.8      5.902      9.808
REMARK  7 active torsions:
REMARK  status: ('A' for Active; 'I' for Inactive)
REMARK    1  A    between atoms: O_3  and  C_13 
REMARK    2  A    between atoms: O_3  and  C_18 
REMARK    3  A    between atoms: O_5  and  C_19 
REMARK    4  A    between atoms: C_7  and  C_9 
REMARK    5  A    between atoms: C_8  and  C_9 
REMARK    6  A    between atoms: C_8  and  C_10 
REMARK    7  A    between atoms: C_18  and  C_19 
ROOT
HETATM    1 Cl   UNK N   1      34.877  11.477  11.161  0.00  0.00    -0.081 Cl
HETATM    2 Cl   UNK N   1      33.704  13.131   8.748  0.00  0.00    -0.080 Cl
HETATM    3  C   UNK N   1      35.820  13.919  12.164  0.00  0.00     0.038 A 
HETATM    4  C   UNK N   1      35.109  13.232  11.133  0.00  0.00     0.072 A 
HETATM    5  C   UNK N   1      35.955  15.308  12.056  0.00  0.00     0.020 A 
HETATM    6  C   UNK N   1      34.749  15.350   9.963  0.00  0.00     0.092 A 
HETATM    7  C   UNK N   1      34.574  13.959  10.042  0.00  0.00     0.090 A 
HETATM    8  C   UNK N   1      35.438  16.012  10.982  0.00  0.00     0.039 A 
ENDROOT
BRANCH   3   9
HETATM    9  C   UNK N   1      36.454  13.215  13.343  0.00  0.00     0.189 C 
HETATM   10  O   UNK N   1      37.307  12.364  13.139  0.00  0.00    -0.287 OA
BRANCH   9  11
HETATM   11  C   UNK N   1      36.125  13.522  14.778  0.00  0.00    -0.017 C 
HETATM   12  C   UNK N   1      36.938  14.250  15.554  0.00  0.00     0.023 C 
BRANCH  11  13
HETATM   13  C   UNK N   1      34.827  12.990  15.346  0.00  0.00     0.037 C 
HETATM   14  C   UNK N   1      34.379  11.649  14.772  0.00  0.00     0.010 C 
ENDBRANCH  11  13
ENDBRANCH   9  11
ENDBRANCH   3   9
BRANCH   6  15
HETATM   15  O   UNK N   1      34.262  16.040   8.901  0.00  0.00    -0.339 OA
BRANCH  15  16
HETATM   16  C   UNK N   1      33.843  17.352   9.010  0.00  0.00     0.285 C 
BRANCH  16  17
HETATM   17  C   UNK N   1      34.592  18.238   8.076  0.00  0.00     0.164 C 
HETATM   18  O   UNK N   1      35.258  19.165   8.506  0.00  0.00    -0.648 OA
BRANCH  17  19
HETATM   19  O   UNK N   1      34.500  18.034   6.750  0.00  0.00    -0.775 OA
HETATM   20  H   UNK N   1      35.132  17.931   6.065  0.00  0.00     0.167 HD
ENDBRANCH  17  19
ENDBRANCH  16  17
ENDBRANCH  15  16
ENDBRANCH   6  15
TORSDOF 7
ENDMDL
MODEL 3
REMARK VINA RESULT:      -5.8     10.733     13.648
REMARK  7 active torsions:
REMARK  status: ('A' for Active; 'I' for Inactive)
REMARK    1  A    between atoms: O_3  and  C_13 
REMARK    2  A    between atoms: O_3  and  C_18 
REMARK    3  A    between atoms: O_5  and  C_19 
REMARK    4  A    between atoms: C_7  and  C_9 
REMARK    5  A    between atoms: C_8  and  C_9 
REMARK    6  A    between atoms: C_8  and  C_10 
REMARK    7  A    between atoms: C_18  and  C_19 
ROOT
HETATM    1 Cl   UNK N   1      31.704  25.336  -4.171  0.00  0.00    -0.081 Cl
HETATM    2 Cl   UNK N   1      29.694  27.268  -5.640  0.00  0.00    -0.080 Cl
HETATM    3  C   UNK N   1      29.449  23.916  -3.301  0.00  0.00     0.038 A 
HETATM    4  C   UNK N   1      29.966  25.016  -4.051  0.00  0.00     0.072 A 
HETATM    5  C   UNK N   1      28.060  23.744  -3.261  0.00  0.00     0.020 A 
HETATM    6  C   UNK N   1      27.691  25.696  -4.638  0.00  0.00     0.092 A 
HETATM    7  C   UNK N   1      29.078  25.894  -4.719  0.00  0.00     0.090 A 
HETATM    8  C   UNK N   1      27.197  24.612  -3.909  0.00  0.00     0.039 A 
ENDROOT
BRANCH   3   9
HETATM    9  C   UNK N   1      30.324  22.954  -2.529  0.00  0.00     0.189 C 
HETATM   10  O   UNK N   1      30.388  23.055  -1.313  0.00  0.00    -0.287 OA
BRANCH   9  11
HETATM   11  C   UNK N   1      31.109  21.840  -3.165  0.00  0.00    -0.017 C 
HETATM   12  C   UNK N   1      32.385  21.597  -2.843  0.00  0.00     0.023 C 
BRANCH  11  13
HETATM   13  C   UNK N   1      30.417  20.972  -4.193  0.00  0.00     0.037 C 
HETATM   14  C   UNK N   1      30.691  21.357  -5.644  0.00  0.00     0.010 C 
ENDBRANCH  11  13
ENDBRANCH   9  11
ENDBRANCH   3   9
BRANCH   6  15
HETATM   15  O   UNK N   1      26.841  26.556  -5.252  0.00  0.00    -0.339 OA
BRANCH  15  16
HETATM   16  C   UNK N   1      25.618  26.893  -4.705  0.00  0.00     0.285 C 
BRANCH  16  17
HETATM   17  C   UNK N   1      25.770  27.919  -3.636  0.00  0.00     0.164 C 
HETATM   18  O   UNK N   1      25.887  27.582  -2.470  0.00  0.00    -0.648 OA
BRANCH  17  19
HETATM   19  O   UNK N   1      25.739  29.225  -3.959  0.00  0.00    -0.775 OA
HETATM   20  H   UNK N   1      26.292  29.955  -3.760  0.00  0.00     0.167 HD
ENDBRANCH  17  19
ENDBRANCH  16  17
ENDBRANCH  15  16
ENDBRANCH   6  15
TORSDOF 7
ENDMDL
MODEL 4
REMARK VINA RESULT:      -5.7      4.685      9.084
REMARK  7 active torsions:
REMARK  status: ('A' for Active; 'I' for Inactive)
REMARK    1  A    between atoms: O_3  and  C_13 
REMARK    2  A    between atoms: O_3  and  C_18 
REMARK    3  A    between atoms: O_5  and  C_19 
REMARK    4  A    between atoms: C_7  and  C_9 
REMARK    5  A    between atoms: C_8  and  C_9 
REMARK    6  A    between atoms: C_8  and  C_10 
REMARK    7  A    between atoms: C_18  and  C_19 
ROOT
HETATM    1 Cl   UNK N   1      25.339  17.113   5.254  0.00  0.00    -0.081 Cl
HETATM    2 Cl   UNK N   1      22.354  16.971   4.252  0.00  0.00    -0.080 Cl
HETATM    3  C   UNK N   1      25.448  19.646   4.058  0.00  0.00     0.038 A 
HETATM    4  C   UNK N   1      24.672  18.484   4.353  0.00  0.00     0.072 A 
HETATM    5  C   UNK N   1      24.837  20.679   3.338  0.00  0.00     0.020 A 
HETATM    6  C   UNK N   1      22.760  19.454   3.176  0.00  0.00     0.092 A 
HETATM    7  C   UNK N   1      23.329  18.403   3.912  0.00  0.00     0.090 A 
HETATM    8  C   UNK N   1      23.526  20.589   2.901  0.00  0.00     0.039 A 
ENDROOT
BRANCH   3   9
HETATM    9  C   UNK N   1      26.899  19.797   4.459  0.00  0.00     0.189 C 
HETATM   10  O   UNK N   1      27.761  19.769   3.593  0.00  0.00    -0.287 OA
BRANCH   9  11
HETATM   11  C   UNK N   1      27.359  20.017   5.874  0.00  0.00    -0.017 C 
HETATM   12  C   UNK N   1      27.093  21.149   6.539  0.00  0.00     0.023 C 
BRANCH  11  13
HETATM   13  C   UNK N   1      28.138  18.913   6.555  0.00  0.00     0.037 C 
HETATM   14  C   UNK N   1      28.065  18.924   8.079  0.00  0.00     0.010 C 
ENDBRANCH  11  13
ENDBRANCH   9  11
ENDBRANCH   3   9
BRANCH   6  15
HETATM   15  O   UNK N   1      21.483  19.361   2.727  0.00  0.00    -0.339 OA
BRANCH  15  16
HETATM   16  C   UNK N   1      20.686  20.476   2.552  0.00  0.00     0.285 C 
BRANCH  16  17
HETATM   17  C   UNK N   1      20.710  20.940   1.137  0.00  0.00     0.164 C 
HETATM   18  O   UNK N   1      20.907  20.147   0.231  0.00  0.00    -0.648 OA
BRANCH  17  19
HETATM   19  O   UNK N   1      20.551  22.247   0.864  0.00  0.00    -0.775 OA
HETATM   20  H   UNK N   1      20.767  23.036   1.322  0.00  0.00     0.167 HD
ENDBRANCH  17  19
ENDBRANCH  16  17
ENDBRANCH  15  16
ENDBRANCH   6  15
TORSDOF 7
ENDMDL
MODEL 5
REMARK VINA RESULT:      -5.6      9.001     12.400
REMARK  7 active torsions:
REMARK  status: ('A' for Active; 'I' for Inactive)
REMARK    1  A    between atoms: O_3  and  C_13 
REMARK    2  A    between atoms: O_3  and  C_18 
REMARK    3  A    between atoms: O_5  and  C_19 
REMARK    4  A    between atoms: C_7  and  C_9 
REMARK    5  A    between atoms: C_8  and  C_9 
REMARK    6  A    between atoms: C_8  and  C_10 
REMARK    7  A    between atoms: C_18  and  C_19 
ROOT
HETATM    1 Cl   UNK N   1      33.794  10.523  14.852  0.00  0.00    -0.081 Cl
HETATM    2 Cl   UNK N   1      34.163  11.442  11.860  0.00  0.00    -0.080 Cl
HETATM    3  C   UNK N   1      35.411  12.704  15.550  0.00  0.00     0.038 A 
HETATM    4  C   UNK N   1      34.774  11.958  14.511  0.00  0.00     0.072 A 
HETATM    5  C   UNK N   1      36.169  13.823  15.185  0.00  0.00     0.020 A 
HETATM    6  C   UNK N   1      35.713  13.475  12.837  0.00  0.00     0.092 A 
HETATM    7  C   UNK N   1      34.928  12.356  13.161  0.00  0.00     0.090 A 
HETATM    8  C   UNK N   1      36.323  14.202  13.862  0.00  0.00     0.039 A 
ENDROOT
BRANCH   3   9
HETATM    9  C   UNK N   1      35.330  12.325  17.012  0.00  0.00     0.189 C 
HETATM   10  O   UNK N   1      34.836  13.114  17.804  0.00  0.00    -0.287 OA
BRANCH   9  11
HETATM   11  C   UNK N   1      35.793  11.004  17.562  0.00  0.00    -0.017 C 
HETATM   12  C   UNK N   1      36.682  10.239  16.917  0.00  0.00     0.023 C 
BRANCH  11  13
HETATM   13  C   UNK N   1      35.234  10.545  18.891  0.00  0.00     0.037 C 
HETATM   14  C   UNK N   1      36.150  10.781  20.088  0.00  0.00     0.010 C 
ENDBRANCH  11  13
ENDBRANCH   9  11
ENDBRANCH   3   9
BRANCH   6  15
HETATM   15  O   UNK N   1      35.884  13.837  11.541  0.00  0.00    -0.339 OA
BRANCH  15  16
HETATM   16  C   UNK N   1      35.094  14.796  10.939  0.00  0.00     0.285 C 
BRANCH  16  17
HETATM   17  C   UNK N   1      35.824  16.087  10.800  0.00  0.00     0.164 C 
HETATM   18  O   UNK N   1      35.210  17.127  10.625  0.00  0.00    -0.648 OA
BRANCH  17  19
HETATM   19  O   UNK N   1      37.169  16.097  10.831  0.00  0.00    -0.775 OA
HETATM   20  H   UNK N   1      37.827  15.462  10.623  0.00  0.00     0.167 HD
ENDBRANCH  17  19
ENDBRANCH  16  17
ENDBRANCH  15  16
ENDBRANCH   6  15
TORSDOF 7
ENDMDL
MODEL 6
REMARK VINA RESULT:      -5.6     11.943     14.791
REMARK  7 active torsions:
REMARK  status: ('A' for Active; 'I' for Inactive)
REMARK    1  A    between atoms: O_3  and  C_13 
REMARK    2  A    between atoms: O_3  and  C_18 
REMARK    3  A    between atoms: O_5  and  C_19 
REMARK    4  A    between atoms: C_7  and  C_9 
REMARK    5  A    between atoms: C_8  and  C_9 
REMARK    6  A    between atoms: C_8  and  C_10 
REMARK    7  A    between atoms: C_18  and  C_19 
ROOT
HETATM    1 Cl   UNK N   1      35.681  11.927  19.915  0.00  0.00    -0.081 Cl
HETATM    2 Cl   UNK N   1      35.412  14.176  17.723  0.00  0.00    -0.080 Cl
HETATM    3  C   UNK N   1      35.046  10.101  17.884  0.00  0.00     0.038 A 
HETATM    4  C   UNK N   1      35.270  11.462  18.256  0.00  0.00     0.072 A 
HETATM    5  C   UNK N   1      34.723   9.829  16.550  0.00  0.00     0.020 A 
HETATM    6  C   UNK N   1      34.810  12.171  15.961  0.00  0.00     0.092 A 
HETATM    7  C   UNK N   1      35.154  12.486  17.285  0.00  0.00     0.090 A 
HETATM    8  C   UNK N   1      34.602  10.836  15.607  0.00  0.00     0.039 A 
ENDROOT
BRANCH   3   9
HETATM    9  C   UNK N   1      35.112   8.952  18.866  0.00  0.00     0.189 C 
HETATM   10  O   UNK N   1      36.202   8.585  19.279  0.00  0.00    -0.287 OA
BRANCH   9  11
HETATM   11  C   UNK N   1      33.902   8.240  19.405  0.00  0.00    -0.017 C 
HETATM   12  C   UNK N   1      33.700   6.932  19.206  0.00  0.00     0.023 C 
BRANCH  11  13
HETATM   13  C   UNK N   1      32.894   9.041  20.201  0.00  0.00     0.037 C 
HETATM   14  C   UNK N   1      31.448   8.578  20.053  0.00  0.00     0.010 C 
ENDBRANCH  11  13
ENDBRANCH   9  11
ENDBRANCH   3   9
BRANCH   6  15
HETATM   15  O   UNK N   1      34.669  13.156  15.039  0.00  0.00    -0.339 OA
BRANCH  15  16
HETATM   16  C   UNK N   1      35.388  13.163  13.860  0.00  0.00     0.285 C 
BRANCH  16  17
HETATM   17  C   UNK N   1      36.251  14.373  13.761  0.00  0.00     0.164 C 
HETATM   18  O   UNK N   1      36.130  15.142  12.822  0.00  0.00    -0.648 OA
BRANCH  17  19
HETATM   19  O   UNK N   1      37.194  14.594  14.694  0.00  0.00    -0.775 OA
HETATM   20  H   UNK N   1      37.896  15.211  14.773  0.00  0.00     0.167 HD
ENDBRANCH  17  19
ENDBRANCH  16  17
ENDBRANCH  15  16
ENDBRANCH   6  15
TORSDOF 7
ENDMDL
MODEL 7
REMARK VINA RESULT:      -5.6     10.887     12.838
REMARK  7 active torsions:
REMARK  status: ('A' for Active; 'I' for Inactive)
REMARK    1  A    between atoms: O_3  and  C_13 
REMARK    2  A    between atoms: O_3  and  C_18 
REMARK    3  A    between atoms: O_5  and  C_19 
REMARK    4  A    between atoms: C_7  and  C_9 
REMARK    5  A    between atoms: C_8  and  C_9 
REMARK    6  A    between atoms: C_8  and  C_10 
REMARK    7  A    between atoms: C_18  and  C_19 
ROOT
HETATM    1 Cl   UNK N   1      26.807  22.613  -7.707  0.00  0.00    -0.081 Cl
HETATM    2 Cl   UNK N   1      29.553  21.257  -6.962  0.00  0.00    -0.080 Cl
HETATM    3  C   UNK N   1      27.149  24.187  -5.413  0.00  0.00     0.038 A 
HETATM    4  C   UNK N   1      27.667  23.159  -6.258  0.00  0.00     0.072 A 
HETATM    5  C   UNK N   1      27.897  24.551  -4.287  0.00  0.00     0.020 A 
HETATM    6  C   UNK N   1      29.610  22.922  -4.791  0.00  0.00     0.092 A 
HETATM    7  C   UNK N   1      28.900  22.539  -5.940  0.00  0.00     0.090 A 
HETATM    8  C   UNK N   1      29.098  23.935  -3.976  0.00  0.00     0.039 A 
ENDROOT
BRANCH   3   9
HETATM    9  C   UNK N   1      25.823  24.873  -5.659  0.00  0.00     0.189 C 
HETATM   10  O   UNK N   1      24.797  24.344  -5.259  0.00  0.00    -0.287 OA
BRANCH   9  11
HETATM   11  C   UNK N   1      25.684  26.204  -6.345  0.00  0.00    -0.017 C 
HETATM   12  C   UNK N   1      26.142  26.415  -7.585  0.00  0.00     0.023 C 
BRANCH  11  13
HETATM   13  C   UNK N   1      24.994  27.326  -5.600  0.00  0.00     0.037 C 
HETATM   14  C   UNK N   1      25.573  27.631  -4.222  0.00  0.00     0.010 C 
ENDBRANCH  11  13
ENDBRANCH   9  11
ENDBRANCH   3   9
BRANCH   6  15
HETATM   15  O   UNK N   1      30.775  22.306  -4.471  0.00  0.00    -0.339 OA
BRANCH  15  16
HETATM   16  C   UNK N   1      31.237  22.244  -3.171  0.00  0.00     0.285 C 
BRANCH  16  17
HETATM   17  C   UNK N   1      32.560  21.562  -3.101  0.00  0.00     0.164 C 
HETATM   18  O   UNK N   1      33.250  21.449  -4.101  0.00  0.00    -0.648 OA
BRANCH  17  19
HETATM   19  O   UNK N   1      32.975  21.036  -1.934  0.00  0.00    -0.775 OA
HETATM   20  H   UNK N   1      32.601  20.426  -1.329  0.00  0.00     0.167 HD
ENDBRANCH  17  19
ENDBRANCH  16  17
ENDBRANCH  15  16
ENDBRANCH   6  15
TORSDOF 7
ENDMDL
MODEL 8
REMARK VINA RESULT:      -5.5      5.719      9.499
REMARK  7 active torsions:
REMARK  status: ('A' for Active; 'I' for Inactive)
REMARK    1  A    between atoms: O_3  and  C_13 
REMARK    2  A    between atoms: O_3  and  C_18 
REMARK    3  A    between atoms: O_5  and  C_19 
REMARK    4  A    between atoms: C_7  and  C_9 
REMARK    5  A    between atoms: C_8  and  C_9 
REMARK    6  A    between atoms: C_8  and  C_10 
REMARK    7  A    between atoms: C_18  and  C_19 
ROOT
HETATM    1 Cl   UNK N   1      25.317  17.300   4.281  0.00  0.00    -0.081 Cl
HETATM    2 Cl   UNK N   1      22.363  16.202   4.316  0.00  0.00    -0.080 Cl
HETATM    3  C   UNK N   1      24.234  19.716   3.359  0.00  0.00     0.038 A 
HETATM    4  C   UNK N   1      23.999  18.373   3.785  0.00  0.00     0.072 A 
HETATM    5  C   UNK N   1      23.130  20.489   2.982  0.00  0.00     0.020 A 
HETATM    6  C   UNK N   1      21.600  18.666   3.404  0.00  0.00     0.092 A 
HETATM    7  C   UNK N   1      22.678  17.862   3.808  0.00  0.00     0.090 A 
HETATM    8  C   UNK N   1      21.842  19.981   2.999  0.00  0.00     0.039 A 
ENDROOT
BRANCH   3   9
HETATM    9  C   UNK N   1      25.615  20.326   3.268  0.00  0.00     0.189 C 
HETATM   10  O   UNK N   1      25.933  20.929   2.254  0.00  0.00    -0.287 OA
BRANCH   9  11
HETATM   11  C   UNK N   1      26.631  20.269   4.376  0.00  0.00    -0.017 C 
HETATM   12  C   UNK N   1      27.864  19.781   4.185  0.00  0.00     0.023 C 
BRANCH  11  13
HETATM   13  C   UNK N   1      26.235  20.789   5.740  0.00  0.00     0.037 C 
HETATM   14  C   UNK N   1      27.297  21.634   6.437  0.00  0.00     0.010 C 
ENDBRANCH  11  13
ENDBRANCH   9  11
ENDBRANCH   3   9
BRANCH   6  15
HETATM   15  O   UNK N   1      20.339  18.166   3.398  0.00  0.00    -0.339 OA
BRANCH  15  16
HETATM   16  C   UNK N   1      19.538  18.215   2.275  0.00  0.00     0.285 C 
BRANCH  16  17
HETATM   17  C   UNK N   1      20.025  17.281   1.223  0.00  0.00     0.164 C 
HETATM   18  O   UNK N   1      20.188  16.098   1.475  0.00  0.00    -0.648 OA
BRANCH  17  19
HETATM   19  O   UNK N   1      20.322  17.755  -0.001  0.00  0.00    -0.775 OA
HETATM   20  H   UNK N   1      20.285  17.389  -0.864  0.00  0.00     0.167 HD
ENDBRANCH  17  19
ENDBRANCH  16  17
ENDBRANCH  15  16
ENDBRANCH   6  15
TORSDOF 7
ENDMDL
MODEL 9
REMARK VINA RESULT:      -5.4      9.128     10.886
REMARK  7 active torsions:
REMARK  status: ('A' for Active; 'I' for Inactive)
REMARK    1  A    between atoms: O_3  and  C_13 
REMARK    2  A    between atoms: O_3  and  C_18 
REMARK    3  A    between atoms: O_5  and  C_19 
REMARK    4  A    between atoms: C_7  and  C_9 
REMARK    5  A    between atoms: C_8  and  C_9 
REMARK    6  A    between atoms: C_8  and  C_10 
REMARK    7  A    between atoms: C_18  and  C_19 
ROOT
HETATM    1 Cl   UNK N   1      21.074  12.230   6.927  0.00  0.00    -0.081 Cl
HETATM    2 Cl   UNK N   1      20.879  14.377   4.628  0.00  0.00    -0.080 Cl
HETATM    3  C   UNK N   1      20.785  14.363   8.722  0.00  0.00     0.038 A 
HETATM    4  C   UNK N   1      20.860  13.933   7.362  0.00  0.00     0.072 A 
HETATM    5  C   UNK N   1      20.618  15.730   8.970  0.00  0.00     0.020 A 
HETATM    6  C   UNK N   1      20.625  16.248   6.609  0.00  0.00     0.092 A 
HETATM    7  C   UNK N   1      20.773  14.884   6.316  0.00  0.00     0.090 A 
HETATM    8  C   UNK N   1      20.543  16.656   7.943  0.00  0.00     0.039 A 
ENDROOT
BRANCH   3   9
HETATM    9  C   UNK N   1      20.907  13.420   9.898  0.00  0.00     0.189 C 
HETATM   10  O   UNK N   1      19.892  13.037  10.461  0.00  0.00    -0.287 OA
BRANCH   9  11
HETATM   11  C   UNK N   1      22.216  12.884  10.409  0.00  0.00    -0.017 C 
HETATM   12  C   UNK N   1      22.292  12.131  11.514  0.00  0.00     0.023 C 
BRANCH  11  13
HETATM   13  C   UNK N   1      23.475  13.208   9.636  0.00  0.00     0.037 C 
HETATM   14  C   UNK N   1      24.106  12.022   8.912  0.00  0.00     0.010 C 
ENDBRANCH  11  13
ENDBRANCH   9  11
ENDBRANCH   3   9
BRANCH   6  15
HETATM   15  O   UNK N   1      20.573  17.161   5.607  0.00  0.00    -0.339 OA
BRANCH  15  16
HETATM   16  C   UNK N   1      21.477  18.200   5.516  0.00  0.00     0.285 C 
BRANCH  16  17
HETATM   17  C   UNK N   1      21.306  18.955   4.243  0.00  0.00     0.164 C 
HETATM   18  O   UNK N   1      21.813  18.546   3.211  0.00  0.00    -0.648 OA
BRANCH  17  19
HETATM   19  O   UNK N   1      20.620  20.112   4.243  0.00  0.00    -0.775 OA
HETATM   20  H   UNK N   1      20.267  20.656   4.920  0.00  0.00     0.167 HD
ENDBRANCH  17  19
ENDBRANCH  16  17
ENDBRANCH  15  16
ENDBRANCH   6  15
TORSDOF 7
ENDMDL
