REMARK  2 active torsions:
REMARK  status: ('A' for Active; 'I' for Inactive)
REMARK    1  A    between atoms: N_3  and  C_12 
REMARK    2  A    between atoms: C_6  and  C_12 
ROOT
HETATM    1  O   UNK N   1       4.065  -1.989  -0.503  0.00  0.00    -0.292 OA
HETATM    2  N   UNK N   1       2.711   2.354  -0.027  0.00  0.00    -0.353 N 
HETATM    3  C   UNK N   1       5.887  -0.497  -0.138  0.00  0.00     0.079 C 
HETATM    4  C   UNK N   1       6.112   0.911   0.470  0.00  0.00     0.020 C 
HETATM    5  C   UNK N   1       5.227   2.017  -0.109  0.00  0.00     0.059 C 
HETATM    6  C   UNK N   1       3.805   1.565  -0.090  0.00  0.00     0.026 A 
HETATM    7  C   UNK N   1       3.434   0.239  -0.172  0.00  0.00     0.045 A 
HETATM    8  C   UNK N   1       4.418  -0.845  -0.260  0.00  0.00     0.168 C 
HETATM    9  C   UNK N   1       2.056   0.220  -0.170  0.00  0.00     0.007 A 
HETATM   10  C   UNK N   1       1.645   1.530  -0.074  0.00  0.00     0.045 A 
HETATM   11  C   UNK N   1       2.694   3.806   0.065  0.00  0.00     0.156 C 
HETATM   12  C   UNK N   1       1.149  -0.833  -0.241  0.00  0.00     0.015 A 
HETATM   13  C   UNK N   1       0.296   1.874  -0.042  0.00  0.00     0.030 A 
HETATM   14  C   UNK N   1      -0.221  -0.516  -0.211  0.00  0.00     0.001 A 
HETATM   15  C   UNK N   1      -0.646   0.830  -0.111  0.00  0.00     0.002 A 
ENDROOT
BRANCH   3  16
HETATM   16  C   UNK N   1       6.621  -1.486   0.756  0.00  0.00     0.142 C 
BRANCH  16  17
HETATM   17  N   UNK N   1       8.039  -1.491   0.420  0.00  0.00    -0.345 N 
HETATM   18  C   UNK N   1       8.776  -2.549   0.050  0.00  0.00     0.079 A 
HETATM   19  N   UNK N   1      10.048  -2.208  -0.216  0.00  0.00    -0.355 N 
HETATM   20  C   UNK N   1       8.258  -3.943  -0.056  0.00  0.00     0.089 C 
HETATM   21  C   UNK N   1      10.113  -0.874   0.000  0.00  0.00     0.106 A 
ATOM     22  HN  UNK N   1      10.803  -2.823  -0.517  1.00  0.00     0.166 HD
HETATM   23  C   UNK N   1       8.866  -0.430   0.400  0.00  0.00     0.109 A 
ENDBRANCH  16  17
ENDBRANCH   3  16
TORSDOF 2
