MODEL 1
REMARK VINA RESULT:      -6.9      0.000      0.000
REMARK  2 active torsions:
REMARK  status: ('A' for Active; 'I' for Inactive)
REMARK    1  A    between atoms: N_3  and  C_12 
REMARK    2  A    between atoms: C_6  and  C_12 
ROOT
HETATM    1  O   UNK N   1      19.831  16.699   6.991  0.00  0.00    -0.292 OA
HETATM    2  N   UNK N   1      23.670  14.251   7.425  0.00  0.00    -0.353 N 
HETATM    3  C   UNK N   1      21.349  17.049   5.187  0.00  0.00     0.079 C 
HETATM    4  C   UNK N   1      22.537  16.304   4.528  0.00  0.00     0.020 C 
HETATM    5  C   UNK N   1      23.656  15.891   5.486  0.00  0.00     0.059 C 
HETATM    6  C   UNK N   1      23.061  15.176   6.653  0.00  0.00     0.026 A 
HETATM    7  C   UNK N   1      21.782  15.415   7.111  0.00  0.00     0.045 A 
HETATM    8  C   UNK N   1      20.888  16.382   6.467  0.00  0.00     0.168 C 
HETATM    9  C   UNK N   1      21.609  14.610   8.216  0.00  0.00     0.007 A 
HETATM   10  C   UNK N   1      22.780  13.906   8.378  0.00  0.00     0.045 A 
HETATM   11  C   UNK N   1      25.022  13.739   7.261  0.00  0.00     0.156 C 
HETATM   12  C   UNK N   1      20.526  14.445   9.075  0.00  0.00     0.015 A 
HETATM   13  C   UNK N   1      22.946  12.987   9.411  0.00  0.00     0.030 A 
HETATM   14  C   UNK N   1      20.665  13.523  10.128  0.00  0.00     0.001 A 
HETATM   15  C   UNK N   1      21.868  12.797  10.295  0.00  0.00     0.002 A 
ENDROOT
BRANCH   3  16
HETATM   16  C   UNK N   1      20.233  17.103   4.154  0.00  0.00     0.142 C 
BRANCH  16  17
HETATM   17  N   UNK N   1      20.419  18.262   3.291  0.00  0.00    -0.345 N 
HETATM   18  C   UNK N   1      20.308  18.299   1.955  0.00  0.00     0.079 A 
HETATM   19  N   UNK N   1      20.516  19.533   1.466  0.00  0.00    -0.355 N 
HETATM   20  C   UNK N   1      19.993  17.118   1.101  0.00  0.00     0.089 C 
HETATM   21  C   UNK N   1      20.773  20.306   2.546  0.00  0.00     0.106 A 
ATOM     22  HN  UNK N   1      20.487  19.824   0.490  1.00  0.00     0.166 HD
HETATM   23  C   UNK N   1      20.718  19.515   3.679  0.00  0.00     0.109 A 
ENDBRANCH  16  17
ENDBRANCH   3  16
TORSDOF 2
ENDMDL
MODEL 2
REMARK VINA RESULT:      -6.8     14.807     15.501
REMARK  2 active torsions:
REMARK  status: ('A' for Active; 'I' for Inactive)
REMARK    1  A    between atoms: N_3  and  C_12 
REMARK    2  A    between atoms: C_6  and  C_12 
ROOT
HETATM    1  O   UNK N   1      29.243  24.948  -3.356  0.00  0.00    -0.292 OA
HETATM    2  N   UNK N   1      29.447  21.466  -6.315  0.00  0.00    -0.353 N 
HETATM    3  C   UNK N   1      27.429  24.953  -4.901  0.00  0.00     0.079 C 
HETATM    4  C   UNK N   1      26.700  23.937  -5.817  0.00  0.00     0.020 C 
HETATM    5  C   UNK N   1      27.607  23.156  -6.771  0.00  0.00     0.059 C 
HETATM    6  C   UNK N   1      28.743  22.575  -5.999  0.00  0.00     0.026 A 
HETATM    7  C   UNK N   1      29.244  23.147  -4.848  0.00  0.00     0.045 A 
HETATM    8  C   UNK N   1      28.678  24.371  -4.272  0.00  0.00     0.168 C 
HETATM    9  C   UNK N   1      30.304  22.360  -4.452  0.00  0.00     0.007 A 
HETATM   10  C   UNK N   1      30.397  21.336  -5.368  0.00  0.00     0.045 A 
HETATM   11  C   UNK N   1      29.222  20.594  -7.458  0.00  0.00     0.156 C 
HETATM   12  C   UNK N   1      31.176  22.464  -3.373  0.00  0.00     0.015 A 
HETATM   13  C   UNK N   1      31.371  20.347  -5.263  0.00  0.00     0.030 A 
HETATM   14  C   UNK N   1      32.171  21.478  -3.241  0.00  0.00     0.001 A 
HETATM   15  C   UNK N   1      32.268  20.424  -4.181  0.00  0.00     0.002 A 
ENDROOT
BRANCH   3  16
HETATM   16  C   UNK N   1      26.426  25.393  -3.844  0.00  0.00     0.142 C 
BRANCH  16  17
HETATM   17  N   UNK N   1      26.333  26.847  -3.833  0.00  0.00    -0.345 N 
HETATM   18  C   UNK N   1      25.544  27.610  -4.604  0.00  0.00     0.079 A 
HETATM   19  N   UNK N   1      25.679  28.917  -4.324  0.00  0.00    -0.355 N 
HETATM   20  C   UNK N   1      24.623  27.083  -5.651  0.00  0.00     0.089 C 
HETATM   21  C   UNK N   1      26.598  28.978  -3.333  0.00  0.00     0.106 A 
ATOM     22  HN  UNK N   1      25.192  29.697  -4.764  1.00  0.00     0.166 HD
HETATM   23  C   UNK N   1      27.008  27.692  -3.032  0.00  0.00     0.109 A 
ENDBRANCH  16  17
ENDBRANCH   3  16
TORSDOF 2
ENDMDL
MODEL 3
REMARK VINA RESULT:      -6.6     15.664     17.814
REMARK  2 active torsions:
REMARK  status: ('A' for Active; 'I' for Inactive)
REMARK    1  A    between atoms: N_3  and  C_12 
REMARK    2  A    between atoms: C_6  and  C_12 
ROOT
HETATM    1  O   UNK N   1      36.248  13.846  14.551  0.00  0.00    -0.292 OA
HETATM    2  N   UNK N   1      36.424  10.093  17.161  0.00  0.00    -0.353 N 
HETATM    3  C   UNK N   1      36.843  11.898  13.314  0.00  0.00     0.079 C 
HETATM    4  C   UNK N   1      36.693  10.361  13.452  0.00  0.00     0.020 C 
HETATM    5  C   UNK N   1      37.211   9.774  14.767  0.00  0.00     0.059 C 
HETATM    6  C   UNK N   1      36.637  10.547  15.907  0.00  0.00     0.026 A 
HETATM    7  C   UNK N   1      36.279  11.876  15.812  0.00  0.00     0.045 A 
HETATM    8  C   UNK N   1      36.410  12.635  14.564  0.00  0.00     0.168 C 
HETATM    9  C   UNK N   1      35.838  12.250  17.063  0.00  0.00     0.007 A 
HETATM   10  C   UNK N   1      35.934  11.134  17.864  0.00  0.00     0.045 A 
HETATM   11  C   UNK N   1      36.682   8.748  17.650  0.00  0.00     0.156 C 
HETATM   12  C   UNK N   1      35.366  13.466  17.549  0.00  0.00     0.015 A 
HETATM   13  C   UNK N   1      35.563  11.161  19.205  0.00  0.00     0.030 A 
HETATM   14  C   UNK N   1      34.983  13.523  18.901  0.00  0.00     0.001 A 
HETATM   15  C   UNK N   1      35.080  12.377  19.725  0.00  0.00     0.002 A 
ENDROOT
BRANCH   3  16
HETATM   16  C   UNK N   1      36.016  12.315  12.106  0.00  0.00     0.142 C 
BRANCH  16  17
HETATM   17  N   UNK N   1      36.820  13.158  11.231  0.00  0.00    -0.345 N 
HETATM   18  C   UNK N   1      36.598  14.445  10.925  0.00  0.00     0.079 A 
HETATM   19  N   UNK N   1      37.544  14.939  10.108  0.00  0.00    -0.355 N 
HETATM   20  C   UNK N   1      35.441  15.244  11.423  0.00  0.00     0.089 C 
HETATM   21  C   UNK N   1      38.398  13.913   9.890  0.00  0.00     0.106 A 
ATOM     22  HN  UNK N   1      37.605  15.885   9.734  1.00  0.00     0.166 HD
HETATM   23  C   UNK N   1      37.945  12.806  10.583  0.00  0.00     0.109 A 
ENDBRANCH  16  17
ENDBRANCH   3  16
TORSDOF 2
ENDMDL
MODEL 4
REMARK VINA RESULT:      -6.5     15.367     16.038
REMARK  2 active torsions:
REMARK  status: ('A' for Active; 'I' for Inactive)
REMARK    1  A    between atoms: N_3  and  C_12 
REMARK    2  A    between atoms: C_6  and  C_12 
ROOT
HETATM    1  O   UNK N   1      27.084  24.331  -6.449  0.00  0.00    -0.292 OA
HETATM    2  N   UNK N   1      30.584  21.950  -4.716  0.00  0.00    -0.353 N 
HETATM    3  C   UNK N   1      28.235  25.515  -4.731  0.00  0.00     0.079 C 
HETATM    4  C   UNK N   1      29.634  25.496  -4.064  0.00  0.00     0.020 C 
HETATM    5  C   UNK N   1      30.076  24.134  -3.523  0.00  0.00     0.059 C 
HETATM    6  C   UNK N   1      29.892  23.103  -4.586  0.00  0.00     0.026 A 
HETATM    7  C   UNK N   1      28.935  23.200  -5.574  0.00  0.00     0.045 A 
HETATM    8  C   UNK N   1      28.029  24.349  -5.675  0.00  0.00     0.168 C 
HETATM    9  C   UNK N   1      29.040  22.054  -6.331  0.00  0.00     0.007 A 
HETATM   10  C   UNK N   1      30.063  21.313  -5.783  0.00  0.00     0.045 A 
HETATM   11  C   UNK N   1      31.669  21.490  -3.863  0.00  0.00     0.156 C 
HETATM   12  C   UNK N   1      28.328  21.616  -7.444  0.00  0.00     0.015 A 
HETATM   13  C   UNK N   1      30.441  20.082  -6.313  0.00  0.00     0.030 A 
HETATM   14  C   UNK N   1      28.688  20.376  -8.001  0.00  0.00     0.001 A 
HETATM   15  C   UNK N   1      29.740  19.613  -7.440  0.00  0.00     0.002 A 
ENDROOT
BRANCH   3  16
HETATM   16  C   UNK N   1      28.110  26.847  -5.457  0.00  0.00     0.142 C 
BRANCH  16  17
HETATM   17  N   UNK N   1      27.317  27.770  -4.655  0.00  0.00    -0.345 N 
HETATM   18  C   UNK N   1      25.982  27.902  -4.663  0.00  0.00     0.079 A 
HETATM   19  N   UNK N   1      25.562  28.827  -3.783  0.00  0.00    -0.355 N 
HETATM   20  C   UNK N   1      25.062  27.124  -5.541  0.00  0.00     0.089 C 
HETATM   21  C   UNK N   1      26.687  29.299  -3.197  0.00  0.00     0.106 A 
ATOM     22  HN  UNK N   1      24.602  29.112  -3.597  1.00  0.00     0.166 HD
HETATM   23  C   UNK N   1      27.777  28.645  -3.742  0.00  0.00     0.109 A 
ENDBRANCH  16  17
ENDBRANCH   3  16
TORSDOF 2
ENDMDL
MODEL 5
REMARK VINA RESULT:      -6.5      7.278     10.815
REMARK  2 active torsions:
REMARK  status: ('A' for Active; 'I' for Inactive)
REMARK    1  A    between atoms: N_3  and  C_12 
REMARK    2  A    between atoms: C_6  and  C_12 
ROOT
HETATM    1  O   UNK N   1      28.999  18.884   8.609  0.00  0.00    -0.292 OA
HETATM    2  N   UNK N   1      28.206  17.402   4.355  0.00  0.00    -0.353 N 
HETATM    3  C   UNK N   1      30.412  17.067   7.995  0.00  0.00     0.079 C 
HETATM    4  C   UNK N   1      30.936  16.411   6.692  0.00  0.00     0.020 C 
HETATM    5  C   UNK N   1      29.854  16.004   5.689  0.00  0.00     0.059 C 
HETATM    6  C   UNK N   1      28.937  17.159   5.464  0.00  0.00     0.026 A 
HETATM    7  C   UNK N   1      28.699  18.129   6.415  0.00  0.00     0.045 A 
HETATM    8  C   UNK N   1      29.354  18.116   7.727  0.00  0.00     0.168 C 
HETATM    9  C   UNK N   1      27.775  18.993   5.867  0.00  0.00     0.007 A 
HETATM   10  C   UNK N   1      27.499  18.523   4.603  0.00  0.00     0.045 A 
HETATM   11  C   UNK N   1      28.184  16.602   3.140  0.00  0.00     0.156 C 
HETATM   12  C   UNK N   1      27.170  20.139   6.374  0.00  0.00     0.015 A 
HETATM   13  C   UNK N   1      26.598  19.169   3.761  0.00  0.00     0.030 A 
HETATM   14  C   UNK N   1      26.254  20.813   5.547  0.00  0.00     0.001 A 
HETATM   15  C   UNK N   1      25.970  20.332   4.247  0.00  0.00     0.002 A 
ENDROOT
BRANCH   3  16
HETATM   16  C   UNK N   1      31.619  17.662   8.706  0.00  0.00     0.142 C 
BRANCH  16  17
HETATM   17  N   UNK N   1      32.666  16.655   8.819  0.00  0.00    -0.345 N 
HETATM   18  C   UNK N   1      33.970  16.814   8.547  0.00  0.00     0.079 A 
HETATM   19  N   UNK N   1      34.673  15.693   8.782  0.00  0.00    -0.355 N 
HETATM   20  C   UNK N   1      34.579  18.077   8.043  0.00  0.00     0.089 C 
HETATM   21  C   UNK N   1      33.768  14.788   9.219  0.00  0.00     0.106 A 
ATOM     22  HN  UNK N   1      35.676  15.555   8.658  1.00  0.00     0.166 HD
HETATM   23  C   UNK N   1      32.520  15.384   9.237  0.00  0.00     0.109 A 
ENDBRANCH  16  17
ENDBRANCH   3  16
TORSDOF 2
ENDMDL
MODEL 6
REMARK VINA RESULT:      -6.4     12.682     15.917
REMARK  2 active torsions:
REMARK  status: ('A' for Active; 'I' for Inactive)
REMARK    1  A    between atoms: N_3  and  C_12 
REMARK    2  A    between atoms: C_6  and  C_12 
ROOT
HETATM    1  O   UNK N   1      34.077  15.001  11.370  0.00  0.00    -0.292 OA
HETATM    2  N   UNK N   1      35.593  14.761   7.061  0.00  0.00    -0.353 N 
HETATM    3  C   UNK N   1      35.803  13.381  11.096  0.00  0.00     0.079 C 
HETATM    4  C   UNK N   1      36.958  13.093  10.103  0.00  0.00     0.020 C 
HETATM    5  C   UNK N   1      36.543  13.006   8.633  0.00  0.00     0.059 C 
HETATM    6  C   UNK N   1      35.724  14.204   8.285  0.00  0.00     0.026 A 
HETATM    7  C   UNK N   1      34.953  14.883   9.204  0.00  0.00     0.045 A 
HETATM    8  C   UNK N   1      34.894  14.494  10.617  0.00  0.00     0.168 C 
HETATM    9  C   UNK N   1      34.316  15.890   8.510  0.00  0.00     0.007 A 
HETATM   10  C   UNK N   1      34.735  15.791   7.202  0.00  0.00     0.045 A 
HETATM   11  C   UNK N   1      36.247  14.325   5.836  0.00  0.00     0.156 C 
HETATM   12  C   UNK N   1      33.419  16.869   8.924  0.00  0.00     0.015 A 
HETATM   13  C   UNK N   1      34.283  16.668   6.220  0.00  0.00     0.030 A 
HETATM   14  C   UNK N   1      32.945  17.770   7.953  0.00  0.00     0.001 A 
HETATM   15  C   UNK N   1      33.375  17.671   6.608  0.00  0.00     0.002 A 
ENDROOT
BRANCH   3  16
HETATM   16  C   UNK N   1      36.446  13.725  12.432  0.00  0.00     0.142 C 
BRANCH  16  17
HETATM   17  N   UNK N   1      35.731  13.051  13.508  0.00  0.00    -0.345 N 
HETATM   18  C   UNK N   1      35.881  13.252  14.826  0.00  0.00     0.079 A 
HETATM   19  N   UNK N   1      35.048  12.485  15.550  0.00  0.00    -0.355 N 
HETATM   20  C   UNK N   1      36.853  14.208  15.428  0.00  0.00     0.089 C 
HETATM   21  C   UNK N   1      34.344  11.768  14.644  0.00  0.00     0.106 A 
ATOM     22  HN  UNK N   1      34.963  12.452  16.565  1.00  0.00     0.166 HD
HETATM   23  C   UNK N   1      34.773  12.115  13.376  0.00  0.00     0.109 A 
ENDBRANCH  16  17
ENDBRANCH   3  16
TORSDOF 2
ENDMDL
MODEL 7
REMARK VINA RESULT:      -6.4     14.951     16.716
REMARK  2 active torsions:
REMARK  status: ('A' for Active; 'I' for Inactive)
REMARK    1  A    between atoms: N_3  and  C_12 
REMARK    2  A    between atoms: C_6  and  C_12 
ROOT
HETATM    1  O   UNK N   1      28.226  23.166  -5.664  0.00  0.00    -0.292 OA
HETATM    2  N   UNK N   1      28.558  27.372  -3.897  0.00  0.00    -0.353 N 
HETATM    3  C   UNK N   1      30.255  23.494  -4.457  0.00  0.00     0.079 C 
HETATM    4  C   UNK N   1      30.790  24.437  -3.348  0.00  0.00     0.020 C 
HETATM    5  C   UNK N   1      30.634  25.932  -3.636  0.00  0.00     0.059 C 
HETATM    6  C   UNK N   1      29.224  26.206  -4.042  0.00  0.00     0.026 A 
HETATM    7  C   UNK N   1      28.423  25.273  -4.667  0.00  0.00     0.045 A 
HETATM    8  C   UNK N   1      28.890  23.914  -4.962  0.00  0.00     0.168 C 
HETATM    9  C   UNK N   1      27.223  25.899  -4.922  0.00  0.00     0.007 A 
HETATM   10  C   UNK N   1      27.336  27.181  -4.433  0.00  0.00     0.045 A 
HETATM   11  C   UNK N   1      29.068  28.591  -3.288  0.00  0.00     0.156 C 
HETATM   12  C   UNK N   1      26.059  25.445  -5.535  0.00  0.00     0.015 A 
HETATM   13  C   UNK N   1      26.290  28.095  -4.524  0.00  0.00     0.030 A 
HETATM   14  C   UNK N   1      24.984  26.347  -5.642  0.00  0.00     0.001 A 
HETATM   15  C   UNK N   1      25.098  27.664  -5.138  0.00  0.00     0.002 A 
ENDROOT
BRANCH   3  16
HETATM   16  C   UNK N   1      30.222  22.092  -3.866  0.00  0.00     0.142 C 
BRANCH  16  17
HETATM   17  N   UNK N   1      31.158  21.236  -4.585  0.00  0.00    -0.345 N 
HETATM   18  C   UNK N   1      32.357  20.814  -4.156  0.00  0.00     0.079 A 
HETATM   19  N   UNK N   1      32.958  20.013  -5.052  0.00  0.00    -0.355 N 
HETATM   20  C   UNK N   1      32.962  21.183  -2.845  0.00  0.00     0.089 C 
HETATM   21  C   UNK N   1      32.097  19.932  -6.092  0.00  0.00     0.106 A 
ATOM     22  HN  UNK N   1      33.868  19.563  -4.965  1.00  0.00     0.166 HD
HETATM   23  C   UNK N   1      30.981  20.696  -5.804  0.00  0.00     0.109 A 
ENDBRANCH  16  17
ENDBRANCH   3  16
TORSDOF 2
ENDMDL
MODEL 8
REMARK VINA RESULT:      -6.4     13.677     16.732
REMARK  2 active torsions:
REMARK  status: ('A' for Active; 'I' for Inactive)
REMARK    1  A    between atoms: N_3  and  C_12 
REMARK    2  A    between atoms: C_6  and  C_12 
ROOT
HETATM    1  O   UNK N   1      34.940  13.661  14.612  0.00  0.00    -0.292 OA
HETATM    2  N   UNK N   1      37.515   9.929  15.217  0.00  0.00    -0.353 N 
HETATM    3  C   UNK N   1      35.978  12.928  12.596  0.00  0.00     0.079 C 
HETATM    4  C   UNK N   1      36.583  11.619  12.028  0.00  0.00     0.020 C 
HETATM    5  C   UNK N   1      37.655  10.967  12.903  0.00  0.00     0.059 C 
HETATM    6  C   UNK N   1      37.139  10.844  14.298  0.00  0.00     0.026 A 
HETATM    7  C   UNK N   1      36.209  11.708  14.836  0.00  0.00     0.045 A 
HETATM    8  C   UNK N   1      35.628  12.812  14.065  0.00  0.00     0.168 C 
HETATM    9  C   UNK N   1      36.017  11.309  16.141  0.00  0.00     0.007 A 
HETATM   10  C   UNK N   1      36.826  10.214  16.340  0.00  0.00     0.045 A 
HETATM   11  C   UNK N   1      38.478   8.855  15.027  0.00  0.00     0.156 C 
HETATM   12  C   UNK N   1      35.204  11.817  17.150  0.00  0.00     0.015 A 
HETATM   13  C   UNK N   1      36.875   9.552  17.565  0.00  0.00     0.030 A 
HETATM   14  C   UNK N   1      35.232  11.169  18.398  0.00  0.00     0.001 A 
HETATM   15  C   UNK N   1      36.062  10.042  18.605  0.00  0.00     0.002 A 
ENDROOT
BRANCH   3  16
HETATM   16  C   UNK N   1      34.751  13.249  11.755  0.00  0.00     0.142 C 
BRANCH  16  17
HETATM   17  N   UNK N   1      34.862  14.601  11.222  0.00  0.00    -0.345 N 
HETATM   18  C   UNK N   1      34.159  15.128  10.208  0.00  0.00     0.079 A 
HETATM   19  N   UNK N   1      34.486  16.411   9.983  0.00  0.00    -0.355 N 
HETATM   20  C   UNK N   1      33.136  14.387   9.415  0.00  0.00     0.089 C 
HETATM   21  C   UNK N   1      35.440  16.703  10.897  0.00  0.00     0.106 A 
ATOM     22  HN  UNK N   1      34.097  17.033   9.276  1.00  0.00     0.166 HD
HETATM   23  C   UNK N   1      35.677  15.576  11.663  0.00  0.00     0.109 A 
ENDBRANCH  16  17
ENDBRANCH   3  16
TORSDOF 2
ENDMDL
MODEL 9
REMARK VINA RESULT:      -6.3      5.972      9.339
REMARK  2 active torsions:
REMARK  status: ('A' for Active; 'I' for Inactive)
REMARK    1  A    between atoms: N_3  and  C_12 
REMARK    2  A    between atoms: C_6  and  C_12 
ROOT
HETATM    1  O   UNK N   1      29.117  18.807   4.895  0.00  0.00    -0.292 OA
HETATM    2  N   UNK N   1      24.753  17.439   4.970  0.00  0.00    -0.353 N 
HETATM    3  C   UNK N   1      28.843  16.674   5.923  0.00  0.00     0.079 C 
HETATM    4  C   UNK N   1      27.807  15.522   5.915  0.00  0.00     0.020 C 
HETATM    5  C   UNK N   1      26.369  15.940   6.232  0.00  0.00     0.059 C 
HETATM    6  C   UNK N   1      25.997  17.101   5.370  0.00  0.00     0.026 A 
HETATM    7  C   UNK N   1      26.917  18.012   4.895  0.00  0.00     0.045 A 
HETATM    8  C   UNK N   1      28.351  17.899   5.181  0.00  0.00     0.168 C 
HETATM    9  C   UNK N   1      26.201  18.952   4.185  0.00  0.00     0.007 A 
HETATM   10  C   UNK N   1      24.881  18.569   4.245  0.00  0.00     0.045 A 
HETATM   11  C   UNK N   1      23.521  16.726   5.273  0.00  0.00     0.156 C 
HETATM   12  C   UNK N   1      26.606  20.094   3.500  0.00  0.00     0.015 A 
HETATM   13  C   UNK N   1      23.875  19.304   3.622  0.00  0.00     0.030 A 
HETATM   14  C   UNK N   1      25.612  20.857   2.861  0.00  0.00     0.001 A 
HETATM   15  C   UNK N   1      24.254  20.464   2.920  0.00  0.00     0.002 A 
ENDROOT
BRANCH   3  16
HETATM   16  C   UNK N   1      30.120  16.124   5.304  0.00  0.00     0.142 C 
BRANCH  16  17
HETATM   17  N   UNK N   1      31.274  16.604   6.052  0.00  0.00    -0.345 N 
HETATM   18  C   UNK N   1      32.336  17.260   5.561  0.00  0.00     0.079 A 
HETATM   19  N   UNK N   1      33.215  17.586   6.524  0.00  0.00    -0.355 N 
HETATM   20  C   UNK N   1      32.532  17.593   4.121  0.00  0.00     0.089 C 
HETATM   21  C   UNK N   1      32.681  17.110   7.672  0.00  0.00     0.106 A 
ATOM     22  HN  UNK N   1      34.096  18.086   6.413  1.00  0.00     0.166 HD
HETATM   23  C   UNK N   1      31.478  16.496   7.377  0.00  0.00     0.109 A 
ENDBRANCH  16  17
ENDBRANCH   3  16
TORSDOF 2
ENDMDL
