MODEL 1
REMARK VINA RESULT:      -7.4      0.000      0.000
REMARK  15 active torsions:
REMARK  status: ('A' for Active; 'I' for Inactive)
REMARK    1  A    between atoms: C_8  and  O_1 
REMARK    2  A    between atoms: C_9  and  O_2 
REMARK    3  A    between atoms: C_15  and  O_3 
REMARK       I    between atoms: N_5  and  C_25 
REMARK    4  A    between atoms: N_5  and  C_29 
REMARK    5  A    between atoms: C_6  and  C_11 
REMARK    6  A    between atoms: C_7  and  C_12 
REMARK    7  A    between atoms: C_11  and  C_13 
REMARK    8  A    between atoms: C_14  and  C_15 
REMARK    9  A    between atoms: C_15  and  C_17 
REMARK   10  A    between atoms: C_16  and  C_18 
REMARK   11  A    between atoms: C_17  and  C_19 
REMARK   12  A    between atoms: C_18  and  C_20 
REMARK   13  A    between atoms: C_19  and  C_21 
REMARK   14  A    between atoms: C_20  and  C_22 
REMARK   15  A    between atoms: C_22  and  C_25 
ROOT
HETATM    1  C   UNK N   1      21.653  18.753   3.514  0.00  0.00     0.028 C 
HETATM    2  C   UNK N   1      21.819  20.198   3.080  0.00  0.00     0.043 C 
HETATM    3  C   UNK N   1      20.571  18.178   2.589  0.00  0.00     0.125 C 
HETATM    4  C   UNK N   1      21.147  20.284   1.726  0.00  0.00     0.128 C 
HETATM    5  C   UNK N   1      19.959  19.366   1.879  0.00  0.00     0.064 C 
ENDROOT
BRANCH   2   6
HETATM    6  C   UNK N   1      23.274  20.521   3.018  0.00  0.00    -0.021 C 
HETATM    7  C   UNK N   1      24.190  19.648   3.435  0.00  0.00     0.001 C 
BRANCH   7   8
HETATM    8  C   UNK N   1      25.653  19.915   3.236  0.00  0.00     0.141 C 
BRANCH   8   9
HETATM    9  O   UNK N   1      25.823  20.931   2.298  0.00  0.00    -0.392 OA
HETATM   10  H   UNK N   1      26.322  21.744   2.469  0.00  0.00     0.210 HD
ENDBRANCH   8   9
BRANCH   8  11
HETATM   11  C   UNK N   1      26.342  20.324   4.524  0.00  0.00     0.040 C 
BRANCH  11  12
HETATM   12  C   UNK N   1      27.784  19.842   4.514  0.00  0.00     0.041 C 
BRANCH  12  13
HETATM   13  C   UNK N   1      28.172  19.085   5.748  0.00  0.00    -0.058 A 
HETATM   14  C   UNK N   1      27.832  19.537   7.035  0.00  0.00     0.007 A 
HETATM   15  C   UNK N   1      28.225  18.813   8.162  0.00  0.00     0.001 A 
HETATM   16  C   UNK N   1      28.962  17.635   8.012  0.00  0.00     0.000 A 
HETATM   17  C   UNK N   1      29.302  17.180   6.735  0.00  0.00     0.001 A 
HETATM   18  C   UNK N   1      28.908  17.905   5.607  0.00  0.00     0.007 A 
ENDBRANCH  12  13
ENDBRANCH  11  12
ENDBRANCH   8  11
ENDBRANCH   7   8
ENDBRANCH   2   6
BRANCH   1  19
HETATM   19  C   UNK N   1      21.335  18.707   5.008  0.00  0.00     0.034 C 
BRANCH  19  20
HETATM   20  C   UNK N   1      22.218  17.713   5.703  0.00  0.00    -0.030 C 
HETATM   21  C   UNK N   1      21.743  16.615   6.307  0.00  0.00    -0.031 C 
BRANCH  21  22
HETATM   22  C   UNK N   1      20.290  16.251   6.309  0.00  0.00     0.027 C 
BRANCH  22  23
HETATM   23  C   UNK N   1      19.764  16.291   7.732  0.00  0.00     0.013 C 
BRANCH  23  24
HETATM   24  C   UNK N   1      20.840  15.843   8.709  0.00  0.00     0.103 C 
BRANCH  24  25
HETATM   25  C   UNK N   1      20.504  14.584   9.457  0.00  0.00     0.217 C 
HETATM   26  O   UNK N   1      19.343  14.291   9.700  0.00  0.00    -0.274 OA
HETATM   27  N   UNK N   1      21.517  13.785   9.870  0.00  0.00    -0.361 N 
HETATM   28  H   UNK N   1      22.444  14.039   9.652  0.00  0.00     0.162 HD
BRANCH  27  29
HETATM   29  C   UNK N   1      21.285  12.576  10.619  0.00  0.00     0.118 C 
HETATM   30  C   UNK N   1      22.592  12.099  11.219  0.00  0.00     0.026 C 
ENDBRANCH  27  29
ENDBRANCH  24  25
ENDBRANCH  23  24
ENDBRANCH  22  23
ENDBRANCH  21  22
ENDBRANCH  19  20
ENDBRANCH   1  19
BRANCH   4  31
HETATM   31  O   UNK N   1      20.730  21.588   1.460  0.00  0.00    -0.395 OA
HETATM   32  H   UNK N   1      21.161  22.428   1.682  0.00  0.00     0.210 HD
ENDBRANCH   4  31
BRANCH   3  33
HETATM   33  O   UNK N   1      19.602  17.424   3.255  0.00  0.00    -0.395 OA
HETATM   34  H   UNK N   1      19.617  16.457   3.328  0.00  0.00     0.210 HD
ENDBRANCH   3  33
TORSDOF 15
ENDMDL
MODEL 2
REMARK VINA RESULT:      -7.4     13.224     15.916
REMARK  15 active torsions:
REMARK  status: ('A' for Active; 'I' for Inactive)
REMARK    1  A    between atoms: C_8  and  O_1 
REMARK    2  A    between atoms: C_9  and  O_2 
REMARK    3  A    between atoms: C_15  and  O_3 
REMARK       I    between atoms: N_5  and  C_25 
REMARK    4  A    between atoms: N_5  and  C_29 
REMARK    5  A    between atoms: C_6  and  C_11 
REMARK    6  A    between atoms: C_7  and  C_12 
REMARK    7  A    between atoms: C_11  and  C_13 
REMARK    8  A    between atoms: C_14  and  C_15 
REMARK    9  A    between atoms: C_15  and  C_17 
REMARK   10  A    between atoms: C_16  and  C_18 
REMARK   11  A    between atoms: C_17  and  C_19 
REMARK   12  A    between atoms: C_18  and  C_20 
REMARK   13  A    between atoms: C_19  and  C_21 
REMARK   14  A    between atoms: C_20  and  C_22 
REMARK   15  A    between atoms: C_22  and  C_25 
ROOT
HETATM    1  C   UNK N   1      29.990  21.484  -4.753  0.00  0.00     0.028 C 
HETATM    2  C   UNK N   1      29.780  22.955  -4.437  0.00  0.00     0.043 C 
HETATM    3  C   UNK N   1      30.890  20.957  -3.626  0.00  0.00     0.125 C 
HETATM    4  C   UNK N   1      30.217  23.116  -2.997  0.00  0.00     0.128 C 
HETATM    5  C   UNK N   1      31.396  22.181  -2.894  0.00  0.00     0.064 C 
ENDROOT
BRANCH   2   6
HETATM    6  C   UNK N   1      28.342  23.293  -4.641  0.00  0.00    -0.021 C 
HETATM    7  C   UNK N   1      27.963  24.138  -5.599  0.00  0.00     0.001 C 
BRANCH   7   8
HETATM    8  C   UNK N   1      26.510  24.362  -5.896  0.00  0.00     0.141 C 
BRANCH   8   9
HETATM    9  O   UNK N   1      25.839  23.141  -5.913  0.00  0.00    -0.392 OA
HETATM   10  H   UNK N   1      25.584  22.677  -6.725  0.00  0.00     0.210 HD
ENDBRANCH   8   9
BRANCH   8  11
HETATM   11  C   UNK N   1      25.847  25.265  -4.874  0.00  0.00     0.040 C 
BRANCH  11  12
HETATM   12  C   UNK N   1      25.259  26.485  -5.566  0.00  0.00     0.041 C 
BRANCH  12  13
HETATM   13  C   UNK N   1      26.048  27.739  -5.341  0.00  0.00    -0.058 A 
HETATM   14  C   UNK N   1      27.080  28.134  -6.211  0.00  0.00     0.007 A 
HETATM   15  C   UNK N   1      27.805  29.300  -5.960  0.00  0.00     0.001 A 
HETATM   16  C   UNK N   1      27.507  30.078  -4.838  0.00  0.00     0.000 A 
HETATM   17  C   UNK N   1      26.482  29.691  -3.970  0.00  0.00     0.001 A 
HETATM   18  C   UNK N   1      25.756  28.524  -4.222  0.00  0.00     0.007 A 
ENDBRANCH  12  13
ENDBRANCH  11  12
ENDBRANCH   8  11
ENDBRANCH   7   8
ENDBRANCH   2   6
BRANCH   1  19
HETATM   19  C   UNK N   1      30.553  21.344  -6.166  0.00  0.00     0.034 C 
BRANCH  19  20
HETATM   20  C   UNK N   1      30.067  20.077  -6.803  0.00  0.00    -0.030 C 
HETATM   21  C   UNK N   1      29.007  20.033  -7.623  0.00  0.00    -0.031 C 
BRANCH  21  22
HETATM   22  C   UNK N   1      28.234  21.254  -8.018  0.00  0.00     0.027 C 
BRANCH  22  23
HETATM   23  C   UNK N   1      26.772  20.888  -8.194  0.00  0.00     0.013 C 
BRANCH  23  24
HETATM   24  C   UNK N   1      26.234  21.463  -9.495  0.00  0.00     0.103 C 
BRANCH  24  25
HETATM   25  C   UNK N   1      25.540  22.787  -9.341  0.00  0.00     0.217 C 
HETATM   26  O   UNK N   1      24.632  22.928  -8.535  0.00  0.00    -0.274 OA
HETATM   27  N   UNK N   1      25.933  23.821 -10.123  0.00  0.00    -0.361 N 
HETATM   28  H   UNK N   1      26.675  23.684 -10.757  0.00  0.00     0.162 HD
BRANCH  27  29
HETATM   29  C   UNK N   1      25.302  25.115 -10.061  0.00  0.00     0.118 C 
HETATM   30  C   UNK N   1      26.108  26.023  -9.154  0.00  0.00     0.026 C 
ENDBRANCH  27  29
ENDBRANCH  24  25
ENDBRANCH  23  24
ENDBRANCH  22  23
ENDBRANCH  21  22
ENDBRANCH  19  20
ENDBRANCH   1  19
BRANCH   4  31
HETATM   31  O   UNK N   1      30.608  24.430  -2.741  0.00  0.00    -0.395 OA
HETATM   32  H   UNK N   1      30.060  25.214  -2.577  0.00  0.00     0.210 HD
ENDBRANCH   4  31
BRANCH   3  33
HETATM   33  O   UNK N   1      31.943  20.156  -4.073  0.00  0.00    -0.395 OA
HETATM   34  H   UNK N   1      32.807  20.496  -4.354  0.00  0.00     0.210 HD
ENDBRANCH   3  33
TORSDOF 15
ENDMDL
MODEL 3
REMARK VINA RESULT:      -7.3      4.414      8.485
REMARK  15 active torsions:
REMARK  status: ('A' for Active; 'I' for Inactive)
REMARK    1  A    between atoms: C_8  and  O_1 
REMARK    2  A    between atoms: C_9  and  O_2 
REMARK    3  A    between atoms: C_15  and  O_3 
REMARK       I    between atoms: N_5  and  C_25 
REMARK    4  A    between atoms: N_5  and  C_29 
REMARK    5  A    between atoms: C_6  and  C_11 
REMARK    6  A    between atoms: C_7  and  C_12 
REMARK    7  A    between atoms: C_11  and  C_13 
REMARK    8  A    between atoms: C_14  and  C_15 
REMARK    9  A    between atoms: C_15  and  C_17 
REMARK   10  A    between atoms: C_16  and  C_18 
REMARK   11  A    between atoms: C_17  and  C_19 
REMARK   12  A    between atoms: C_18  and  C_20 
REMARK   13  A    between atoms: C_19  and  C_21 
REMARK   14  A    between atoms: C_20  and  C_22 
REMARK   15  A    between atoms: C_22  and  C_25 
ROOT
HETATM    1  C   UNK N   1      28.746  17.918   6.831  0.00  0.00     0.028 C 
HETATM    2  C   UNK N   1      29.722  16.859   7.315  0.00  0.00     0.043 C 
HETATM    3  C   UNK N   1      28.727  18.982   7.938  0.00  0.00     0.125 C 
HETATM    4  C   UNK N   1      30.491  17.517   8.441  0.00  0.00     0.128 C 
HETATM    5  C   UNK N   1      29.442  18.363   9.119  0.00  0.00     0.064 C 
ENDROOT
BRANCH   2   6
HETATM    6  C   UNK N   1      30.601  16.456   6.180  0.00  0.00    -0.021 C 
HETATM    7  C   UNK N   1      30.852  17.292   5.174  0.00  0.00     0.001 C 
BRANCH   7   8
HETATM    8  C   UNK N   1      31.851  16.939   4.111  0.00  0.00     0.141 C 
BRANCH   8   9
HETATM    9  O   UNK N   1      31.466  17.503   2.897  0.00  0.00    -0.392 OA
HETATM   10  H   UNK N   1      31.065  16.999   2.172  0.00  0.00     0.210 HD
ENDBRANCH   8   9
BRANCH   8  11
HETATM   11  C   UNK N   1      33.247  17.426   4.451  0.00  0.00     0.040 C 
BRANCH  11  12
HETATM   12  C   UNK N   1      34.025  16.321   5.148  0.00  0.00     0.041 C 
BRANCH  12  13
HETATM   13  C   UNK N   1      34.220  16.558   6.614  0.00  0.00    -0.058 A 
HETATM   14  C   UNK N   1      34.052  17.830   7.190  0.00  0.00     0.007 A 
HETATM   15  C   UNK N   1      34.260  18.016   8.559  0.00  0.00     0.001 A 
HETATM   16  C   UNK N   1      34.638  16.935   9.359  0.00  0.00     0.000 A 
HETATM   17  C   UNK N   1      34.806  15.669   8.792  0.00  0.00     0.001 A 
HETATM   18  C   UNK N   1      34.598  15.482   7.424  0.00  0.00     0.007 A 
ENDBRANCH  12  13
ENDBRANCH  11  12
ENDBRANCH   8  11
ENDBRANCH   7   8
ENDBRANCH   2   6
BRANCH   1  19
HETATM   19  C   UNK N   1      27.401  17.263   6.522  0.00  0.00     0.034 C 
BRANCH  19  20
HETATM   20  C   UNK N   1      27.221  17.104   5.042  0.00  0.00    -0.030 C 
HETATM   21  C   UNK N   1      26.854  18.114   4.240  0.00  0.00    -0.031 C 
BRANCH  21  22
HETATM   22  C   UNK N   1      26.631  19.508   4.740  0.00  0.00     0.027 C 
BRANCH  22  23
HETATM   23  C   UNK N   1      25.583  20.189   3.878  0.00  0.00     0.013 C 
BRANCH  23  24
HETATM   24  C   UNK N   1      24.321  19.343   3.809  0.00  0.00     0.103 C 
BRANCH  24  25
HETATM   25  C   UNK N   1      23.133  20.057   3.229  0.00  0.00     0.217 C 
HETATM   26  O   UNK N   1      23.245  21.179   2.759  0.00  0.00    -0.274 OA
HETATM   27  N   UNK N   1      21.929  19.435   3.249  0.00  0.00    -0.361 N 
HETATM   28  H   UNK N   1      21.868  18.526   3.624  0.00  0.00     0.162 HD
BRANCH  27  29
HETATM   29  C   UNK N   1      20.734  20.060   2.741  0.00  0.00     0.118 C 
HETATM   30  C   UNK N   1      19.612  19.042   2.705  0.00  0.00     0.026 C 
ENDBRANCH  27  29
ENDBRANCH  24  25
ENDBRANCH  23  24
ENDBRANCH  22  23
ENDBRANCH  21  22
ENDBRANCH  19  20
ENDBRANCH   1  19
BRANCH   4  31
HETATM   31  O   UNK N   1      30.995  16.560   9.322  0.00  0.00    -0.395 OA
HETATM   32  H   UNK N   1      30.576  15.753   9.658  0.00  0.00     0.210 HD
ENDBRANCH   4  31
BRANCH   3  33
HETATM   33  O   UNK N   1      27.444  19.413   8.283  0.00  0.00    -0.395 OA
HETATM   34  H   UNK N   1      26.761  18.842   8.667  0.00  0.00     0.210 HD
ENDBRANCH   3  33
TORSDOF 15
ENDMDL
MODEL 4
REMARK VINA RESULT:      -7.3      2.044      3.239
REMARK  15 active torsions:
REMARK  status: ('A' for Active; 'I' for Inactive)
REMARK    1  A    between atoms: C_8  and  O_1 
REMARK    2  A    between atoms: C_9  and  O_2 
REMARK    3  A    between atoms: C_15  and  O_3 
REMARK       I    between atoms: N_5  and  C_25 
REMARK    4  A    between atoms: N_5  and  C_29 
REMARK    5  A    between atoms: C_6  and  C_11 
REMARK    6  A    between atoms: C_7  and  C_12 
REMARK    7  A    between atoms: C_11  and  C_13 
REMARK    8  A    between atoms: C_14  and  C_15 
REMARK    9  A    between atoms: C_15  and  C_17 
REMARK   10  A    between atoms: C_16  and  C_18 
REMARK   11  A    between atoms: C_17  and  C_19 
REMARK   12  A    between atoms: C_18  and  C_20 
REMARK   13  A    between atoms: C_19  and  C_21 
REMARK   14  A    between atoms: C_20  and  C_22 
REMARK   15  A    between atoms: C_22  and  C_25 
ROOT
HETATM    1  C   UNK N   1      21.321  18.168   3.149  0.00  0.00     0.028 C 
HETATM    2  C   UNK N   1      22.143  19.396   3.498  0.00  0.00     0.043 C 
HETATM    3  C   UNK N   1      20.277  18.659   2.136  0.00  0.00     0.125 C 
HETATM    4  C   UNK N   1      21.812  20.411   2.424  0.00  0.00     0.128 C 
HETATM    5  C   UNK N   1      20.344  20.169   2.170  0.00  0.00     0.064 C 
ENDROOT
BRANCH   2   6
HETATM    6  C   UNK N   1      23.587  19.025   3.510  0.00  0.00    -0.021 C 
HETATM    7  C   UNK N   1      24.445  19.627   4.332  0.00  0.00     0.001 C 
BRANCH   7   8
HETATM    8  C   UNK N   1      25.864  19.151   4.446  0.00  0.00     0.141 C 
BRANCH   8   9
HETATM    9  O   UNK N   1      26.273  19.208   5.777  0.00  0.00    -0.392 OA
HETATM   10  H   UNK N   1      26.721  19.972   6.171  0.00  0.00     0.210 HD
ENDBRANCH   8   9
BRANCH   8  11
HETATM   11  C   UNK N   1      26.034  17.729   3.947  0.00  0.00     0.040 C 
BRANCH  11  12
HETATM   12  C   UNK N   1      26.111  16.773   5.126  0.00  0.00     0.041 C 
BRANCH  12  13
HETATM   13  C   UNK N   1      24.921  15.871   5.244  0.00  0.00    -0.058 A 
HETATM   14  C   UNK N   1      24.120  15.545   4.135  0.00  0.00     0.007 A 
HETATM   15  C   UNK N   1      23.008  14.715   4.288  0.00  0.00     0.001 A 
HETATM   16  C   UNK N   1      22.686  14.207   5.549  0.00  0.00     0.000 A 
HETATM   17  C   UNK N   1      23.478  14.526   6.656  0.00  0.00     0.001 A 
HETATM   18  C   UNK N   1      24.591  15.357   6.502  0.00  0.00     0.007 A 
ENDBRANCH  12  13
ENDBRANCH  11  12
ENDBRANCH   8  11
ENDBRANCH   7   8
ENDBRANCH   2   6
BRANCH   1  19
HETATM   19  C   UNK N   1      20.759  17.554   4.430  0.00  0.00     0.034 C 
BRANCH  19  20
HETATM   20  C   UNK N   1      21.252  18.303   5.632  0.00  0.00    -0.030 C 
HETATM   21  C   UNK N   1      21.094  17.854   6.885  0.00  0.00    -0.031 C 
BRANCH  21  22
HETATM   22  C   UNK N   1      20.450  16.540   7.203  0.00  0.00     0.027 C 
BRANCH  22  23
HETATM   23  C   UNK N   1      20.796  16.142   8.626  0.00  0.00     0.013 C 
BRANCH  23  24
HETATM   24  C   UNK N   1      20.017  14.902   9.035  0.00  0.00     0.103 C 
BRANCH  24  25
HETATM   25  C   UNK N   1      20.852  13.657   9.137  0.00  0.00     0.217 C 
HETATM   26  O   UNK N   1      20.842  12.821   8.245  0.00  0.00    -0.274 OA
HETATM   27  N   UNK N   1      21.610  13.472  10.245  0.00  0.00    -0.361 N 
HETATM   28  H   UNK N   1      21.609  14.167  10.944  0.00  0.00     0.162 HD
BRANCH  27  29
HETATM   29  C   UNK N   1      22.417  12.294  10.436  0.00  0.00     0.118 C 
HETATM   30  C   UNK N   1      23.850  12.599  10.052  0.00  0.00     0.026 C 
ENDBRANCH  27  29
ENDBRANCH  24  25
ENDBRANCH  23  24
ENDBRANCH  22  23
ENDBRANCH  21  22
ENDBRANCH  19  20
ENDBRANCH   1  19
BRANCH   4  31
HETATM   31  O   UNK N   1      22.024  21.710   2.886  0.00  0.00    -0.395 OA
HETATM   32  H   UNK N   1      21.712  22.130   3.702  0.00  0.00     0.210 HD
ENDBRANCH   4  31
BRANCH   3  33
HETATM   33  O   UNK N   1      18.984  18.197   2.390  0.00  0.00    -0.395 OA
HETATM   34  H   UNK N   1      18.319  18.688   2.899  0.00  0.00     0.210 HD
ENDBRANCH   3  33
TORSDOF 15
ENDMDL
MODEL 5
REMARK VINA RESULT:      -7.3     12.744     14.581
REMARK  15 active torsions:
REMARK  status: ('A' for Active; 'I' for Inactive)
REMARK    1  A    between atoms: C_8  and  O_1 
REMARK    2  A    between atoms: C_9  and  O_2 
REMARK    3  A    between atoms: C_15  and  O_3 
REMARK       I    between atoms: N_5  and  C_25 
REMARK    4  A    between atoms: N_5  and  C_29 
REMARK    5  A    between atoms: C_6  and  C_11 
REMARK    6  A    between atoms: C_7  and  C_12 
REMARK    7  A    between atoms: C_11  and  C_13 
REMARK    8  A    between atoms: C_14  and  C_15 
REMARK    9  A    between atoms: C_15  and  C_17 
REMARK   10  A    between atoms: C_16  and  C_18 
REMARK   11  A    between atoms: C_17  and  C_19 
REMARK   12  A    between atoms: C_18  and  C_20 
REMARK   13  A    between atoms: C_19  and  C_21 
REMARK   14  A    between atoms: C_20  and  C_22 
REMARK   15  A    between atoms: C_22  and  C_25 
ROOT
HETATM    1  C   UNK N   1      26.206  25.317  -4.340  0.00  0.00     0.028 C 
HETATM    2  C   UNK N   1      26.261  24.994  -5.823  0.00  0.00     0.043 C 
HETATM    3  C   UNK N   1      26.002  26.837  -4.268  0.00  0.00     0.125 C 
HETATM    4  C   UNK N   1      25.712  26.224  -6.515  0.00  0.00     0.128 C 
HETATM    5  C   UNK N   1      26.244  27.354  -5.669  0.00  0.00     0.064 C 
ENDROOT
BRANCH   2   6
HETATM    6  C   UNK N   1      25.440  23.777  -6.083  0.00  0.00    -0.021 C 
HETATM    7  C   UNK N   1      25.660  23.016  -7.154  0.00  0.00     0.001 C 
BRANCH   7   8
HETATM    8  C   UNK N   1      24.934  21.715  -7.336  0.00  0.00     0.141 C 
BRANCH   8   9
HETATM    9  O   UNK N   1      23.726  21.938  -7.993  0.00  0.00    -0.392 OA
HETATM   10  H   UNK N   1      23.344  22.818  -8.136  0.00  0.00     0.210 HD
ENDBRANCH   8   9
BRANCH   8  11
HETATM   11  C   UNK N   1      25.743  20.712  -8.136  0.00  0.00     0.040 C 
BRANCH  11  12
HETATM   12  C   UNK N   1      27.014  21.368  -8.653  0.00  0.00     0.041 C 
BRANCH  12  13
HETATM   13  C   UNK N   1      28.264  20.827  -8.028  0.00  0.00    -0.058 A 
HETATM   14  C   UNK N   1      29.148  21.645  -7.304  0.00  0.00     0.007 A 
HETATM   15  C   UNK N   1      30.312  21.108  -6.751  0.00  0.00     0.001 A 
HETATM   16  C   UNK N   1      30.603  19.752  -6.920  0.00  0.00     0.000 A 
HETATM   17  C   UNK N   1      29.727  18.933  -7.639  0.00  0.00     0.001 A 
HETATM   18  C   UNK N   1      28.562  19.470  -8.192  0.00  0.00     0.007 A 
ENDBRANCH  12  13
ENDBRANCH  11  12
ENDBRANCH   8  11
ENDBRANCH   7   8
ENDBRANCH   2   6
BRANCH   1  19
HETATM   19  C   UNK N   1      27.468  24.788  -3.659  0.00  0.00     0.034 C 
BRANCH  19  20
HETATM   20  C   UNK N   1      28.421  24.237  -4.677  0.00  0.00    -0.030 C 
HETATM   21  C   UNK N   1      29.710  23.985  -4.406  0.00  0.00    -0.031 C 
BRANCH  21  22
HETATM   22  C   UNK N   1      30.310  24.188  -3.049  0.00  0.00     0.027 C 
BRANCH  22  23
HETATM   23  C   UNK N   1      30.364  22.858  -2.319  0.00  0.00     0.013 C 
BRANCH  23  24
HETATM   24  C   UNK N   1      30.728  21.739  -3.282  0.00  0.00     0.103 C 
BRANCH  24  25
HETATM   25  C   UNK N   1      32.098  21.161  -3.064  0.00  0.00     0.217 C 
HETATM   26  O   UNK N   1      32.761  21.475  -2.086  0.00  0.00    -0.274 OA
HETATM   27  N   UNK N   1      32.591  20.293  -3.981  0.00  0.00    -0.361 N 
HETATM   28  H   UNK N   1      32.031  20.049  -4.754  0.00  0.00     0.162 HD
BRANCH  27  29
HETATM   29  C   UNK N   1      33.906  19.717  -3.863  0.00  0.00     0.118 C 
HETATM   30  C   UNK N   1      34.465  19.455  -5.247  0.00  0.00     0.026 C 
ENDBRANCH  27  29
ENDBRANCH  24  25
ENDBRANCH  23  24
ENDBRANCH  22  23
ENDBRANCH  21  22
ENDBRANCH  19  20
ENDBRANCH   1  19
BRANCH   4  31
HETATM   31  O   UNK N   1      26.197  26.316  -7.820  0.00  0.00    -0.395 OA
HETATM   32  H   UNK N   1      26.470  27.102  -8.320  0.00  0.00     0.210 HD
ENDBRANCH   4  31
BRANCH   3  33
HETATM   33  O   UNK N   1      26.826  27.473  -3.337  0.00  0.00    -0.395 OA
HETATM   34  H   UNK N   1      26.600  28.300  -2.881  0.00  0.00     0.210 HD
ENDBRANCH   3  33
TORSDOF 15
ENDMDL
MODEL 6
REMARK VINA RESULT:      -7.2     12.642     15.374
REMARK  15 active torsions:
REMARK  status: ('A' for Active; 'I' for Inactive)
REMARK    1  A    between atoms: C_8  and  O_1 
REMARK    2  A    between atoms: C_9  and  O_2 
REMARK    3  A    between atoms: C_15  and  O_3 
REMARK       I    between atoms: N_5  and  C_25 
REMARK    4  A    between atoms: N_5  and  C_29 
REMARK    5  A    between atoms: C_6  and  C_11 
REMARK    6  A    between atoms: C_7  and  C_12 
REMARK    7  A    between atoms: C_11  and  C_13 
REMARK    8  A    between atoms: C_14  and  C_15 
REMARK    9  A    between atoms: C_15  and  C_17 
REMARK   10  A    between atoms: C_16  and  C_18 
REMARK   11  A    between atoms: C_17  and  C_19 
REMARK   12  A    between atoms: C_18  and  C_20 
REMARK   13  A    between atoms: C_19  and  C_21 
REMARK   14  A    between atoms: C_20  and  C_22 
REMARK   15  A    between atoms: C_22  and  C_25 
ROOT
HETATM    1  C   UNK N   1      27.325  22.844  -7.547  0.00  0.00     0.028 C 
HETATM    2  C   UNK N   1      26.083  22.744  -6.680  0.00  0.00     0.043 C 
HETATM    3  C   UNK N   1      27.135  21.785  -8.643  0.00  0.00     0.125 C 
HETATM    4  C   UNK N   1      25.091  21.948  -7.501  0.00  0.00     0.128 C 
HETATM    5  C   UNK N   1      25.965  20.935  -8.199  0.00  0.00     0.064 C 
ENDROOT
BRANCH   2   6
HETATM    6  C   UNK N   1      25.597  24.119  -6.371  0.00  0.00    -0.021 C 
HETATM    7  C   UNK N   1      25.625  24.596  -5.127  0.00  0.00     0.001 C 
BRANCH   7   8
HETATM    8  C   UNK N   1      25.275  26.028  -4.844  0.00  0.00     0.141 C 
BRANCH   8   9
HETATM    9  O   UNK N   1      26.076  26.513  -3.813  0.00  0.00    -0.392 OA
HETATM   10  H   UNK N   1      25.995  27.406  -3.442  0.00  0.00     0.210 HD
ENDBRANCH   8   9
BRANCH   8  11
HETATM   11  C   UNK N   1      25.459  26.915  -6.060  0.00  0.00     0.040 C 
BRANCH  11  12
HETATM   12  C   UNK N   1      26.770  27.677  -5.950  0.00  0.00     0.041 C 
BRANCH  12  13
HETATM   13  C   UNK N   1      27.555  27.705  -7.226  0.00  0.00    -0.058 A 
HETATM   14  C   UNK N   1      27.384  26.732  -8.226  0.00  0.00     0.007 A 
HETATM   15  C   UNK N   1      28.146  26.782  -9.395  0.00  0.00     0.001 A 
HETATM   16  C   UNK N   1      29.086  27.801  -9.571  0.00  0.00     0.000 A 
HETATM   17  C   UNK N   1      29.260  28.772  -8.581  0.00  0.00     0.001 A 
HETATM   18  C   UNK N   1      28.497  28.722  -7.412  0.00  0.00     0.007 A 
ENDBRANCH  12  13
ENDBRANCH  11  12
ENDBRANCH   8  11
ENDBRANCH   7   8
ENDBRANCH   2   6
BRANCH   1  19
HETATM   19  C   UNK N   1      28.568  22.674  -6.674  0.00  0.00     0.034 C 
BRANCH  19  20
HETATM   20  C   UNK N   1      29.422  23.905  -6.731  0.00  0.00    -0.030 C 
HETATM   21  C   UNK N   1      29.607  24.712  -5.677  0.00  0.00    -0.031 C 
BRANCH  21  22
HETATM   22  C   UNK N   1      29.013  24.439  -4.329  0.00  0.00     0.027 C 
BRANCH  22  23
HETATM   23  C   UNK N   1      30.120  24.393  -3.292  0.00  0.00     0.013 C 
BRANCH  23  24
HETATM   24  C   UNK N   1      30.021  23.120  -2.466  0.00  0.00     0.103 C 
BRANCH  24  25
HETATM   25  C   UNK N   1      30.955  22.028  -2.905  0.00  0.00     0.217 C 
HETATM   26  O   UNK N   1      32.003  21.824  -2.310  0.00  0.00    -0.274 OA
HETATM   27  N   UNK N   1      30.618  21.278  -3.982  0.00  0.00    -0.361 N 
HETATM   28  H   UNK N   1      29.762  21.456  -4.437  0.00  0.00     0.162 HD
BRANCH  27  29
HETATM   29  C   UNK N   1      31.469  20.231  -4.487  0.00  0.00     0.118 C 
HETATM   30  C   UNK N   1      32.114  20.688  -5.779  0.00  0.00     0.026 C 
ENDBRANCH  27  29
ENDBRANCH  24  25
ENDBRANCH  23  24
ENDBRANCH  22  23
ENDBRANCH  21  22
ENDBRANCH  19  20
ENDBRANCH   1  19
BRANCH   4  31
HETATM   31  O   UNK N   1      24.163  21.311  -6.677  0.00  0.00    -0.395 OA
HETATM   32  H   UNK N   1      24.240  20.469  -6.201  0.00  0.00     0.210 HD
ENDBRANCH   4  31
BRANCH   3  33
HETATM   33  O   UNK N   1      28.272  21.009  -8.880  0.00  0.00    -0.395 OA
HETATM   34  H   UNK N   1      28.266  20.042  -8.963  0.00  0.00     0.210 HD
ENDBRANCH   3  33
TORSDOF 15
ENDMDL
MODEL 7
REMARK VINA RESULT:      -7.1      3.827      6.956
REMARK  15 active torsions:
REMARK  status: ('A' for Active; 'I' for Inactive)
REMARK    1  A    between atoms: C_8  and  O_1 
REMARK    2  A    between atoms: C_9  and  O_2 
REMARK    3  A    between atoms: C_15  and  O_3 
REMARK       I    between atoms: N_5  and  C_25 
REMARK    4  A    between atoms: N_5  and  C_29 
REMARK    5  A    between atoms: C_6  and  C_11 
REMARK    6  A    between atoms: C_7  and  C_12 
REMARK    7  A    between atoms: C_11  and  C_13 
REMARK    8  A    between atoms: C_14  and  C_15 
REMARK    9  A    between atoms: C_15  and  C_17 
REMARK   10  A    between atoms: C_16  and  C_18 
REMARK   11  A    between atoms: C_17  and  C_19 
REMARK   12  A    between atoms: C_18  and  C_20 
REMARK   13  A    between atoms: C_19  and  C_21 
REMARK   14  A    between atoms: C_20  and  C_22 
REMARK   15  A    between atoms: C_22  and  C_25 
ROOT
HETATM    1  C   UNK N   1      28.082  18.726   5.227  0.00  0.00     0.028 C 
HETATM    2  C   UNK N   1      27.560  18.775   6.652  0.00  0.00     0.043 C 
HETATM    3  C   UNK N   1      27.902  20.151   4.685  0.00  0.00     0.125 C 
HETATM    4  C   UNK N   1      27.476  20.248   6.991  0.00  0.00     0.128 C 
HETATM    5  C   UNK N   1      27.030  20.870   5.691  0.00  0.00     0.064 C 
ENDROOT
BRANCH   2   6
HETATM    6  C   UNK N   1      28.505  18.037   7.539  0.00  0.00    -0.021 C 
HETATM    7  C   UNK N   1      29.507  18.666   8.152  0.00  0.00     0.001 C 
BRANCH   7   8
HETATM    8  C   UNK N   1      30.364  17.952   9.157  0.00  0.00     0.141 C 
BRANCH   8   9
HETATM    9  O   UNK N   1      29.562  17.409  10.158  0.00  0.00    -0.392 OA
HETATM   10  H   UNK N   1      29.263  16.486  10.168  0.00  0.00     0.210 HD
ENDBRANCH   8   9
BRANCH   8  11
HETATM   11  C   UNK N   1      31.176  16.836   8.528  0.00  0.00     0.040 C 
BRANCH  11  12
HETATM   12  C   UNK N   1      32.293  17.425   7.681  0.00  0.00     0.041 C 
BRANCH  12  13
HETATM   13  C   UNK N   1      32.152  17.133   6.218  0.00  0.00    -0.058 A 
HETATM   14  C   UNK N   1      33.106  17.562   5.278  0.00  0.00     0.007 A 
HETATM   15  C   UNK N   1      32.932  17.286   3.921  0.00  0.00     0.001 A 
HETATM   16  C   UNK N   1      31.804  16.583   3.492  0.00  0.00     0.000 A 
HETATM   17  C   UNK N   1      30.852  16.153   4.421  0.00  0.00     0.001 A 
HETATM   18  C   UNK N   1      31.027  16.429   5.779  0.00  0.00     0.007 A 
ENDBRANCH  12  13
ENDBRANCH  11  12
ENDBRANCH   8  11
ENDBRANCH   7   8
ENDBRANCH   2   6
BRANCH   1  19
HETATM   19  C   UNK N   1      27.347  17.630   4.456  0.00  0.00     0.034 C 
BRANCH  19  20
HETATM   20  C   UNK N   1      26.120  17.196   5.201  0.00  0.00    -0.030 C 
HETATM   21  C   UNK N   1      24.878  17.493   4.794  0.00  0.00    -0.031 C 
BRANCH  21  22
HETATM   22  C   UNK N   1      24.595  18.248   3.532  0.00  0.00     0.027 C 
BRANCH  22  23
HETATM   23  C   UNK N   1      24.032  19.614   3.879  0.00  0.00     0.013 C 
BRANCH  23  24
HETATM   24  C   UNK N   1      22.762  19.882   3.086  0.00  0.00     0.103 C 
BRANCH  24  25
HETATM   25  C   UNK N   1      21.536  19.218   3.648  0.00  0.00     0.217 C 
HETATM   26  O   UNK N   1      20.990  19.657   4.649  0.00  0.00    -0.274 OA
HETATM   27  N   UNK N   1      21.054  18.114   3.028  0.00  0.00    -0.361 N 
HETATM   28  H   UNK N   1      21.506  17.787   2.216  0.00  0.00     0.162 HD
BRANCH  27  29
HETATM   29  C   UNK N   1      19.901  17.400   3.517  0.00  0.00     0.118 C 
HETATM   30  C   UNK N   1      20.041  15.930   3.179  0.00  0.00     0.026 C 
ENDBRANCH  27  29
ENDBRANCH  24  25
ENDBRANCH  23  24
ENDBRANCH  22  23
ENDBRANCH  21  22
ENDBRANCH  19  20
ENDBRANCH   1  19
BRANCH   4  31
HETATM   31  O   UNK N   1      26.531  20.473   7.993  0.00  0.00    -0.395 OA
HETATM   32  H   UNK N   1      26.600  21.022   8.790  0.00  0.00     0.210 HD
ENDBRANCH   4  31
BRANCH   3  33
HETATM   33  O   UNK N   1      27.354  20.202   3.402  0.00  0.00    -0.395 OA
HETATM   34  H   UNK N   1      27.708  19.720   2.637  0.00  0.00     0.210 HD
ENDBRANCH   3  33
TORSDOF 15
ENDMDL
MODEL 8
REMARK VINA RESULT:      -7.1      4.551      8.226
REMARK  15 active torsions:
REMARK  status: ('A' for Active; 'I' for Inactive)
REMARK    1  A    between atoms: C_8  and  O_1 
REMARK    2  A    between atoms: C_9  and  O_2 
REMARK    3  A    between atoms: C_15  and  O_3 
REMARK       I    between atoms: N_5  and  C_25 
REMARK    4  A    between atoms: N_5  and  C_29 
REMARK    5  A    between atoms: C_6  and  C_11 
REMARK    6  A    between atoms: C_7  and  C_12 
REMARK    7  A    between atoms: C_11  and  C_13 
REMARK    8  A    between atoms: C_14  and  C_15 
REMARK    9  A    between atoms: C_15  and  C_17 
REMARK   10  A    between atoms: C_16  and  C_18 
REMARK   11  A    between atoms: C_17  and  C_19 
REMARK   12  A    between atoms: C_18  and  C_20 
REMARK   13  A    between atoms: C_19  and  C_21 
REMARK   14  A    between atoms: C_20  and  C_22 
REMARK   15  A    between atoms: C_22  and  C_25 
ROOT
HETATM    1  C   UNK N   1      29.505  17.599   5.125  0.00  0.00     0.028 C 
HETATM    2  C   UNK N   1      29.222  17.047   6.511  0.00  0.00     0.043 C 
HETATM    3  C   UNK N   1      28.466  18.711   4.918  0.00  0.00     0.125 C 
HETATM    4  C   UNK N   1      28.335  18.078   7.175  0.00  0.00     0.128 C 
HETATM    5  C   UNK N   1      27.463  18.555   6.039  0.00  0.00     0.064 C 
ENDROOT
BRANCH   2   6
HETATM    6  C   UNK N   1      30.515  16.857   7.229  0.00  0.00    -0.021 C 
HETATM    7  C   UNK N   1      31.139  17.884   7.805  0.00  0.00     0.001 C 
BRANCH   7   8
HETATM    8  C   UNK N   1      32.360  17.666   8.650  0.00  0.00     0.141 C 
BRANCH   8   9
HETATM    9  O   UNK N   1      32.431  16.330   9.039  0.00  0.00    -0.392 OA
HETATM   10  H   UNK N   1      31.655  15.764   9.167  0.00  0.00     0.210 HD
ENDBRANCH   8   9
BRANCH   8  11
HETATM   11  C   UNK N   1      33.638  18.026   7.916  0.00  0.00     0.040 C 
BRANCH  11  12
HETATM   12  C   UNK N   1      34.256  16.776   7.310  0.00  0.00     0.041 C 
BRANCH  12  13
HETATM   13  C   UNK N   1      33.870  16.549   5.881  0.00  0.00    -0.058 A 
HETATM   14  C   UNK N   1      34.047  15.304   5.251  0.00  0.00     0.007 A 
HETATM   15  C   UNK N   1      33.690  15.135   3.911  0.00  0.00     0.001 A 
HETATM   16  C   UNK N   1      33.158  16.208   3.191  0.00  0.00     0.000 A 
HETATM   17  C   UNK N   1      32.979  17.448   3.812  0.00  0.00     0.001 A 
HETATM   18  C   UNK N   1      33.335  17.616   5.152  0.00  0.00     0.007 A 
ENDBRANCH  12  13
ENDBRANCH  11  12
ENDBRANCH   8  11
ENDBRANCH   7   8
ENDBRANCH   2   6
BRANCH   1  19
HETATM   19  C   UNK N   1      29.463  16.459   4.108  0.00  0.00     0.034 C 
BRANCH  19  20
HETATM   20  C   UNK N   1      28.590  15.345   4.602  0.00  0.00    -0.030 C 
HETATM   21  C   UNK N   1      27.633  14.782   3.852  0.00  0.00    -0.031 C 
BRANCH  21  22
HETATM   22  C   UNK N   1      27.373  15.181   2.431  0.00  0.00     0.027 C 
BRANCH  22  23
HETATM   23  C   UNK N   1      26.035  15.893   2.345  0.00  0.00     0.013 C 
BRANCH  23  24
HETATM   24  C   UNK N   1      25.275  15.754   3.655  0.00  0.00     0.103 C 
BRANCH  24  25
HETATM   25  C   UNK N   1      24.655  17.032   4.145  0.00  0.00     0.217 C 
HETATM   26  O   UNK N   1      23.901  17.034   5.107  0.00  0.00    -0.274 OA
HETATM   27  N   UNK N   1      24.940  18.184   3.491  0.00  0.00    -0.361 N 
HETATM   28  H   UNK N   1      25.559  18.157   2.725  0.00  0.00     0.162 HD
BRANCH  27  29
HETATM   29  C   UNK N   1      24.365  19.448   3.876  0.00  0.00     0.118 C 
HETATM   30  C   UNK N   1      24.824  20.523   2.912  0.00  0.00     0.026 C 
ENDBRANCH  27  29
ENDBRANCH  24  25
ENDBRANCH  23  24
ENDBRANCH  22  23
ENDBRANCH  21  22
ENDBRANCH  19  20
ENDBRANCH   1  19
BRANCH   4  31
HETATM   31  O   UNK N   1      27.561  17.496   8.178  0.00  0.00    -0.395 OA
HETATM   32  H   UNK N   1      27.196  17.896   8.982  0.00  0.00     0.210 HD
ENDBRANCH   4  31
BRANCH   3  33
HETATM   33  O   UNK N   1      27.847  18.677   3.667  0.00  0.00    -0.395 OA
HETATM   34  H   UNK N   1      27.120  19.263   3.401  0.00  0.00     0.210 HD
ENDBRANCH   3  33
TORSDOF 15
ENDMDL
MODEL 9
REMARK VINA RESULT:      -7.1     12.750     16.423
REMARK  15 active torsions:
REMARK  status: ('A' for Active; 'I' for Inactive)
REMARK    1  A    between atoms: C_8  and  O_1 
REMARK    2  A    between atoms: C_9  and  O_2 
REMARK    3  A    between atoms: C_15  and  O_3 
REMARK       I    between atoms: N_5  and  C_25 
REMARK    4  A    between atoms: N_5  and  C_29 
REMARK    5  A    between atoms: C_6  and  C_11 
REMARK    6  A    between atoms: C_7  and  C_12 
REMARK    7  A    between atoms: C_11  and  C_13 
REMARK    8  A    between atoms: C_14  and  C_15 
REMARK    9  A    between atoms: C_15  and  C_17 
REMARK   10  A    between atoms: C_16  and  C_18 
REMARK   11  A    between atoms: C_17  and  C_19 
REMARK   12  A    between atoms: C_18  and  C_20 
REMARK   13  A    between atoms: C_19  and  C_21 
REMARK   14  A    between atoms: C_20  and  C_22 
REMARK   15  A    between atoms: C_22  and  C_25 
ROOT
HETATM    1  C   UNK N   1      29.924  22.586  -5.004  0.00  0.00     0.028 C 
HETATM    2  C   UNK N   1      29.759  23.350  -3.702  0.00  0.00     0.043 C 
HETATM    3  C   UNK N   1      30.679  21.305  -4.623  0.00  0.00     0.125 C 
HETATM    4  C   UNK N   1      30.057  22.343  -2.612  0.00  0.00     0.128 C 
HETATM    5  C   UNK N   1      31.171  21.518  -3.209  0.00  0.00     0.064 C 
ENDROOT
BRANCH   2   6
HETATM    6  C   UNK N   1      28.367  23.881  -3.625  0.00  0.00    -0.021 C 
HETATM    7  C   UNK N   1      28.128  25.192  -3.658  0.00  0.00     0.001 C 
BRANCH   7   8
HETATM    8  C   UNK N   1      26.724  25.716  -3.730  0.00  0.00     0.141 C 
BRANCH   8   9
HETATM    9  O   UNK N   1      26.718  26.963  -4.351  0.00  0.00    -0.392 OA
HETATM   10  H   UNK N   1      25.936  27.534  -4.405  0.00  0.00     0.210 HD
ENDBRANCH   8   9
BRANCH   8  11
HETATM   11  C   UNK N   1      25.803  24.787  -4.499  0.00  0.00     0.040 C 
BRANCH  11  12
HETATM   12  C   UNK N   1      25.581  25.326  -5.903  0.00  0.00     0.041 C 
BRANCH  12  13
HETATM   13  C   UNK N   1      25.828  24.312  -6.979  0.00  0.00    -0.058 A 
HETATM   14  C   UNK N   1      25.706  24.630  -8.343  0.00  0.00     0.007 A 
HETATM   15  C   UNK N   1      25.928  23.654  -9.317  0.00  0.00     0.001 A 
HETATM   16  C   UNK N   1      26.271  22.355  -8.935  0.00  0.00     0.000 A 
HETATM   17  C   UNK N   1      26.395  22.032  -7.580  0.00  0.00     0.001 A 
HETATM   18  C   UNK N   1      26.173  23.009  -6.606  0.00  0.00     0.007 A 
ENDBRANCH  12  13
ENDBRANCH  11  12
ENDBRANCH   8  11
ENDBRANCH   7   8
ENDBRANCH   2   6
BRANCH   1  19
HETATM   19  C   UNK N   1      30.617  23.480  -6.031  0.00  0.00     0.034 C 
BRANCH  19  20
HETATM   20  C   UNK N   1      29.838  23.510  -7.312  0.00  0.00    -0.030 C 
HETATM   21  C   UNK N   1      29.264  24.623  -7.789  0.00  0.00    -0.031 C 
BRANCH  21  22
HETATM   22  C   UNK N   1      29.383  25.954  -7.112  0.00  0.00     0.027 C 
BRANCH  22  23
HETATM   23  C   UNK N   1      29.026  27.053  -8.096  0.00  0.00     0.013 C 
BRANCH  23  24
HETATM   24  C   UNK N   1      27.800  27.816  -7.619  0.00  0.00     0.103 C 
BRANCH  24  25
HETATM   25  C   UNK N   1      28.116  29.056  -6.830  0.00  0.00     0.217 C 
HETATM   26  O   UNK N   1      29.015  29.806  -7.178  0.00  0.00    -0.274 OA
HETATM   27  N   UNK N   1      27.390  29.320  -5.717  0.00  0.00    -0.361 N 
HETATM   28  H   UNK N   1      26.663  28.704  -5.465  0.00  0.00     0.162 HD
BRANCH  27  29
HETATM   29  C   UNK N   1      27.646  30.470  -4.888  0.00  0.00     0.118 C 
HETATM   30  C   UNK N   1      26.595  30.549  -3.800  0.00  0.00     0.026 C 
ENDBRANCH  27  29
ENDBRANCH  24  25
ENDBRANCH  23  24
ENDBRANCH  22  23
ENDBRANCH  21  22
ENDBRANCH  19  20
ENDBRANCH   1  19
BRANCH   4  31
HETATM   31  O   UNK N   1      30.487  22.982  -1.449  0.00  0.00    -0.395 OA
HETATM   32  H   UNK N   1      29.963  23.382  -0.738  0.00  0.00     0.210 HD
ENDBRANCH   4  31
BRANCH   3  33
HETATM   33  O   UNK N   1      31.729  20.991  -5.489  0.00  0.00    -0.395 OA
HETATM   34  H   UNK N   1      32.393  21.628  -5.796  0.00  0.00     0.210 HD
ENDBRANCH   3  33
TORSDOF 15
ENDMDL
