MODEL 1
REMARK VINA RESULT:      -6.6      0.000      0.000
REMARK  7 active torsions:
REMARK  status: ('A' for Active; 'I' for Inactive)
REMARK    1  A    between atoms: O_3  and  C_13 
REMARK    2  A    between atoms: N_5  and  C_11 
REMARK    3  A    between atoms: C_6  and  C_13 
REMARK    4  A    between atoms: C_11  and  C_12 
REMARK    5  A    between atoms: C_12  and  C_14 
REMARK    6  A    between atoms: C_15  and  C_16 
REMARK    7  A    between atoms: C_15  and  C_17 
ROOT
HETATM    1  C   UNK N   1      28.536  16.160   5.472  0.00  0.00    -0.011 C 
HETATM    2  C   UNK N   1      29.166  17.341   5.609  0.00  0.00    -0.005 C 
ENDROOT
BRANCH   1   3
HETATM    3  C   UNK N   1      27.092  15.807   5.532  0.00  0.00     0.058 C 
BRANCH   3   4
HETATM    4  C   UNK N   1      26.412  16.321   4.265  0.00  0.00     0.276 C 
BRANCH   4   5
HETATM    5  N   UNK N   1      25.352  17.262   4.605  0.00  0.00     0.089 N 
HETATM    6  C   UNK N   1      25.303  18.289   3.570  0.00  0.00     0.287 C 
HETATM    7  C   UNK N   1      24.265  19.344   3.957  0.00  0.00     0.112 C 
HETATM    8  C   UNK N   1      22.889  18.679   4.094  0.00  0.00     0.019 C 
HETATM    9  C   UNK N   1      22.960  17.494   5.054  0.00  0.00     0.031 C 
HETATM   10  C   UNK N   1      24.072  16.549   4.609  0.00  0.00     0.272 C 
BRANCH   7  11
HETATM   11  C   UNK N   1      24.255  20.459   2.952  0.00  0.00     0.145 C 
HETATM   12  O   UNK N   1      23.342  21.271   2.962  0.00  0.00    -0.650 OA
BRANCH  11  13
HETATM   13  O   UNK N   1      25.231  20.568   2.031  0.00  0.00    -0.776 OA
HETATM   14  H   UNK N   1      26.149  20.738   2.120  0.00  0.00     0.167 HD
ENDBRANCH  11  13
ENDBRANCH   7  11
ENDBRANCH   4   5
ENDBRANCH   3   4
ENDBRANCH   1   3
BRANCH   2  15
HETATM   15  C   UNK N   1      30.662  17.248   5.513  0.00  0.00     0.022 A 
HETATM   16  S   UNK N   1      31.485  17.194   4.062  0.00  0.00    -0.101 SA
HETATM   17  C   UNK N   1      33.053  17.166   4.590  0.00  0.00     0.051 A 
HETATM   18  C   UNK N   1      32.988  17.225   5.986  0.00  0.00     0.015 A 
HETATM   19  C   UNK N   1      31.663  17.273   6.505  0.00  0.00    -0.044 A 
HETATM   20  C   UNK N   1      31.439  17.444   7.964  0.00  0.00     0.049 C 
ENDBRANCH   2  15
BRANCH   2  21
HETATM   21  C   UNK N   1      28.446  18.634   5.914  0.00  0.00     0.022 A 
HETATM   22  S   UNK N   1      28.081  19.779   4.764  0.00  0.00    -0.101 SA
HETATM   23  C   UNK N   1      27.363  20.949   5.692  0.00  0.00     0.051 A 
HETATM   24  C   UNK N   1      27.390  20.466   7.002  0.00  0.00     0.015 A 
HETATM   25  C   UNK N   1      27.996  19.187   7.137  0.00  0.00    -0.044 A 
HETATM   26  C   UNK N   1      28.048  18.533   8.470  0.00  0.00     0.049 C 
ENDBRANCH   2  21
TORSDOF 7
ENDMDL
MODEL 2
REMARK VINA RESULT:      -6.6      9.373     12.766
REMARK  7 active torsions:
REMARK  status: ('A' for Active; 'I' for Inactive)
REMARK    1  A    between atoms: O_3  and  C_13 
REMARK    2  A    between atoms: N_5  and  C_11 
REMARK    3  A    between atoms: C_6  and  C_13 
REMARK    4  A    between atoms: C_11  and  C_12 
REMARK    5  A    between atoms: C_12  and  C_14 
REMARK    6  A    between atoms: C_15  and  C_16 
REMARK    7  A    between atoms: C_15  and  C_17 
ROOT
HETATM    1  C   UNK N   1      35.909  14.108  13.691  0.00  0.00    -0.011 C 
HETATM    2  C   UNK N   1      35.983  13.123  14.605  0.00  0.00    -0.005 C 
ENDROOT
BRANCH   1   3
HETATM    3  C   UNK N   1      36.026  14.079  12.208  0.00  0.00     0.058 C 
BRANCH   3   4
HETATM    4  C   UNK N   1      35.835  15.498  11.678  0.00  0.00     0.276 C 
BRANCH   4   5
HETATM    5  N   UNK N   1      35.022  15.482  10.467  0.00  0.00     0.089 N 
HETATM    6  C   UNK N   1      35.263  16.722   9.738  0.00  0.00     0.287 C 
HETATM    7  C   UNK N   1      34.345  16.772   8.515  0.00  0.00     0.112 C 
HETATM    8  C   UNK N   1      34.639  15.571   7.607  0.00  0.00     0.019 C 
HETATM    9  C   UNK N   1      34.551  14.269   8.398  0.00  0.00     0.031 C 
HETATM   10  C   UNK N   1      35.452  14.362   9.626  0.00  0.00     0.272 C 
BRANCH   7  11
HETATM   11  C   UNK N   1      34.509  18.078   7.793  0.00  0.00     0.145 C 
HETATM   12  O   UNK N   1      34.206  18.157   6.613  0.00  0.00    -0.650 OA
BRANCH  11  13
HETATM   13  O   UNK N   1      34.998  19.161   8.426  0.00  0.00    -0.776 OA
HETATM   14  H   UNK N   1      34.982  19.410   9.330  0.00  0.00     0.167 HD
ENDBRANCH  11  13
ENDBRANCH   7  11
ENDBRANCH   4   5
ENDBRANCH   3   4
ENDBRANCH   1   3
BRANCH   2  15
HETATM   15  C   UNK N   1      35.845  13.596  16.023  0.00  0.00     0.022 A 
HETATM   16  S   UNK N   1      34.957  12.782  17.178  0.00  0.00    -0.101 SA
HETATM   17  C   UNK N   1      35.233  13.725  18.510  0.00  0.00     0.051 A 
HETATM   18  C   UNK N   1      36.089  14.745  18.086  0.00  0.00     0.015 A 
HETATM   19  C   UNK N   1      36.435  14.679  16.706  0.00  0.00    -0.044 A 
HETATM   20  C   UNK N   1      37.420  15.635  16.137  0.00  0.00     0.049 C 
ENDBRANCH   2  15
BRANCH   2  21
HETATM   21  C   UNK N   1      36.263  11.681  14.248  0.00  0.00     0.022 A 
HETATM   22  S   UNK N   1      37.791  11.072  14.005  0.00  0.00    -0.101 SA
HETATM   23  C   UNK N   1      37.451   9.501  13.605  0.00  0.00     0.051 A 
HETATM   24  C   UNK N   1      36.059   9.390  13.644  0.00  0.00     0.015 A 
HETATM   25  C   UNK N   1      35.391  10.596  13.991  0.00  0.00    -0.044 A 
HETATM   26  C   UNK N   1      33.910  10.608  14.115  0.00  0.00     0.049 C 
ENDBRANCH   2  21
TORSDOF 7
ENDMDL
MODEL 3
REMARK VINA RESULT:      -6.5     10.951     13.527
REMARK  7 active torsions:
REMARK  status: ('A' for Active; 'I' for Inactive)
REMARK    1  A    between atoms: O_3  and  C_13 
REMARK    2  A    between atoms: N_5  and  C_11 
REMARK    3  A    between atoms: C_6  and  C_13 
REMARK    4  A    between atoms: C_11  and  C_12 
REMARK    5  A    between atoms: C_12  and  C_14 
REMARK    6  A    between atoms: C_15  and  C_16 
REMARK    7  A    between atoms: C_15  and  C_17 
ROOT
HETATM    1  C   UNK N   1      29.259  24.098  -7.166  0.00  0.00    -0.011 C 
HETATM    2  C   UNK N   1      28.887  22.920  -6.633  0.00  0.00    -0.005 C 
ENDROOT
BRANCH   1   3
HETATM    3  C   UNK N   1      30.481  24.922  -6.966  0.00  0.00     0.058 C 
BRANCH   3   4
HETATM    4  C   UNK N   1      30.222  25.910  -5.831  0.00  0.00     0.276 C 
BRANCH   4   5
HETATM    5  N   UNK N   1      28.932  26.564  -6.014  0.00  0.00     0.089 N 
HETATM    6  C   UNK N   1      28.278  26.656  -4.713  0.00  0.00     0.287 C 
HETATM    7  C   UNK N   1      26.879  27.249  -4.894  0.00  0.00     0.112 C 
HETATM    8  C   UNK N   1      26.995  28.645  -5.517  0.00  0.00     0.019 C 
HETATM    9  C   UNK N   1      27.819  28.593  -6.800  0.00  0.00     0.031 C 
HETATM   10  C   UNK N   1      29.159  27.923  -6.513  0.00  0.00     0.272 C 
BRANCH   7  11
HETATM   11  C   UNK N   1      26.149  27.274  -3.583  0.00  0.00     0.145 C 
HETATM   12  O   UNK N   1      26.239  26.321  -2.824  0.00  0.00    -0.650 OA
BRANCH  11  13
HETATM   13  O   UNK N   1      25.384  28.327  -3.237  0.00  0.00    -0.776 OA
HETATM   14  H   UNK N   1      24.463  28.477  -3.322  0.00  0.00     0.167 HD
ENDBRANCH  11  13
ENDBRANCH   7  11
ENDBRANCH   4   5
ENDBRANCH   3   4
ENDBRANCH   1   3
BRANCH   2  15
HETATM   15  C   UNK N   1      27.535  22.446  -7.083  0.00  0.00     0.022 A 
HETATM   16  S   UNK N   1      27.318  21.241  -8.216  0.00  0.00    -0.101 SA
HETATM   17  C   UNK N   1      25.666  21.125  -8.240  0.00  0.00     0.051 A 
HETATM   18  C   UNK N   1      25.204  22.051  -7.299  0.00  0.00     0.015 A 
HETATM   19  C   UNK N   1      26.237  22.788  -6.651  0.00  0.00    -0.044 A 
HETATM   20  C   UNK N   1      25.903  23.732  -5.554  0.00  0.00     0.049 C 
ENDBRANCH   2  15
BRANCH   2  21
HETATM   21  C   UNK N   1      29.713  22.176  -5.609  0.00  0.00     0.022 A 
HETATM   22  S   UNK N   1      30.705  20.894  -5.981  0.00  0.00    -0.101 SA
HETATM   23  C   UNK N   1      31.280  20.486  -4.482  0.00  0.00     0.051 A 
HETATM   24  C   UNK N   1      30.684  21.380  -3.589  0.00  0.00     0.015 A 
HETATM   25  C   UNK N   1      29.806  22.315  -4.204  0.00  0.00    -0.044 A 
HETATM   26  C   UNK N   1      29.141  23.354  -3.376  0.00  0.00     0.049 C 
ENDBRANCH   2  21
TORSDOF 7
ENDMDL
MODEL 4
REMARK VINA RESULT:      -6.5      4.935      6.608
REMARK  7 active torsions:
REMARK  status: ('A' for Active; 'I' for Inactive)
REMARK    1  A    between atoms: O_3  and  C_13 
REMARK    2  A    between atoms: N_5  and  C_11 
REMARK    3  A    between atoms: C_6  and  C_13 
REMARK    4  A    between atoms: C_11  and  C_12 
REMARK    5  A    between atoms: C_12  and  C_14 
REMARK    6  A    between atoms: C_15  and  C_16 
REMARK    7  A    between atoms: C_15  and  C_17 
ROOT
HETATM    1  C   UNK N   1      26.321  16.395   6.048  0.00  0.00    -0.011 C 
HETATM    2  C   UNK N   1      27.266  17.352   6.007  0.00  0.00    -0.005 C 
ENDROOT
BRANCH   1   3
HETATM    3  C   UNK N   1      26.295  15.072   6.727  0.00  0.00     0.058 C 
BRANCH   3   4
HETATM    4  C   UNK N   1      24.840  14.687   6.987  0.00  0.00     0.276 C 
BRANCH   4   5
HETATM    5  N   UNK N   1      24.762  13.331   7.518  0.00  0.00     0.089 N 
HETATM    6  C   UNK N   1      24.436  13.415   8.937  0.00  0.00     0.287 C 
HETATM    7  C   UNK N   1      24.447  12.008   9.539  0.00  0.00     0.112 C 
HETATM    8  C   UNK N   1      23.411  11.137   8.819  0.00  0.00     0.019 C 
HETATM    9  C   UNK N   1      23.640  11.170   7.310  0.00  0.00     0.031 C 
HETATM   10  C   UNK N   1      23.678  12.620   6.836  0.00  0.00     0.272 C 
BRANCH   7  11
HETATM   11  C   UNK N   1      24.201  12.072  11.019  0.00  0.00     0.145 C 
HETATM   12  O   UNK N   1      23.140  11.670  11.471  0.00  0.00    -0.650 OA
BRANCH  11  13
HETATM   13  O   UNK N   1      25.128  12.580  11.853  0.00  0.00    -0.776 OA
HETATM   14  H   UNK N   1      25.420  12.299  12.698  0.00  0.00     0.167 HD
ENDBRANCH  11  13
ENDBRANCH   7  11
ENDBRANCH   4   5
ENDBRANCH   3   4
ENDBRANCH   1   3
BRANCH   2  15
HETATM   15  C   UNK N   1      26.898  18.537   5.161  0.00  0.00     0.022 A 
HETATM   16  S   UNK N   1      26.140  18.404   3.681  0.00  0.00    -0.101 SA
HETATM   17  C   UNK N   1      25.945  19.999   3.283  0.00  0.00     0.051 A 
HETATM   18  C   UNK N   1      26.468  20.728   4.355  0.00  0.00     0.015 A 
HETATM   19  C   UNK N   1      26.998  19.922   5.404  0.00  0.00    -0.044 A 
HETATM   20  C   UNK N   1      27.492  20.555   6.654  0.00  0.00     0.049 C 
ENDBRANCH   2  15
BRANCH   2  21
HETATM   21  C   UNK N   1      28.612  17.217   6.682  0.00  0.00     0.022 A 
HETATM   22  S   UNK N   1      29.998  16.753   5.888  0.00  0.00    -0.101 SA
HETATM   23  C   UNK N   1      31.092  16.741   7.132  0.00  0.00     0.051 A 
HETATM   24  C   UNK N   1      30.376  17.111   8.273  0.00  0.00     0.015 A 
HETATM   25  C   UNK N   1      28.998  17.369   8.035  0.00  0.00    -0.044 A 
HETATM   26  C   UNK N   1      28.130  17.819   9.153  0.00  0.00     0.049 C 
ENDBRANCH   2  21
TORSDOF 7
ENDMDL
MODEL 5
REMARK VINA RESULT:      -6.4     10.899     13.306
REMARK  7 active torsions:
REMARK  status: ('A' for Active; 'I' for Inactive)
REMARK    1  A    between atoms: O_3  and  C_13 
REMARK    2  A    between atoms: N_5  and  C_11 
REMARK    3  A    between atoms: C_6  and  C_13 
REMARK    4  A    between atoms: C_11  and  C_12 
REMARK    5  A    between atoms: C_12  and  C_14 
REMARK    6  A    between atoms: C_15  and  C_16 
REMARK    7  A    between atoms: C_15  and  C_17 
ROOT
HETATM    1  C   UNK N   1      29.292  24.924  -6.314  0.00  0.00    -0.011 C 
HETATM    2  C   UNK N   1      28.967  23.673  -5.938  0.00  0.00    -0.005 C 
ENDROOT
BRANCH   1   3
HETATM    3  C   UNK N   1      29.093  25.644  -7.600  0.00  0.00     0.058 C 
BRANCH   3   4
HETATM    4  C   UNK N   1      28.459  27.002  -7.305  0.00  0.00     0.276 C 
BRANCH   4   5
HETATM    5  N   UNK N   1      27.450  26.873  -6.260  0.00  0.00     0.089 N 
HETATM    6  C   UNK N   1      27.496  28.073  -5.431  0.00  0.00     0.287 C 
HETATM    7  C   UNK N   1      26.516  27.917  -4.266  0.00  0.00     0.112 C 
HETATM    8  C   UNK N   1      25.098  27.720  -4.817  0.00  0.00     0.019 C 
HETATM    9  C   UNK N   1      25.067  26.567  -5.815  0.00  0.00     0.031 C 
HETATM   10  C   UNK N   1      26.129  26.796  -6.887  0.00  0.00     0.272 C 
BRANCH   7  11
HETATM   11  C   UNK N   1      26.605  29.100  -3.347  0.00  0.00     0.145 C 
HETATM   12  O   UNK N   1      27.224  29.004  -2.298  0.00  0.00    -0.650 OA
BRANCH  11  13
HETATM   13  O   UNK N   1      26.000  30.263  -3.656  0.00  0.00    -0.776 OA
HETATM   14  H   UNK N   1      26.302  31.009  -4.137  0.00  0.00     0.167 HD
ENDBRANCH  11  13
ENDBRANCH   7  11
ENDBRANCH   4   5
ENDBRANCH   3   4
ENDBRANCH   1   3
BRANCH   2  15
HETATM   15  C   UNK N   1      29.388  23.328  -4.538  0.00  0.00     0.022 A 
HETATM   16  S   UNK N   1      30.896  22.724  -4.159  0.00  0.00    -0.101 SA
HETATM   17  C   UNK N   1      30.785  22.613  -2.511  0.00  0.00     0.051 A 
HETATM   18  C   UNK N   1      29.513  23.089  -2.180  0.00  0.00     0.015 A 
HETATM   19  C   UNK N   1      28.732  23.491  -3.302  0.00  0.00    -0.044 A 
HETATM   20  C   UNK N   1      27.399  24.115  -3.097  0.00  0.00     0.049 C 
ENDBRANCH   2  15
BRANCH   2  21
HETATM   21  C   UNK N   1      28.312  22.674  -6.864  0.00  0.00     0.022 A 
HETATM   22  S   UNK N   1      29.160  21.658  -7.871  0.00  0.00    -0.101 SA
HETATM   23  C   UNK N   1      27.926  20.868  -8.644  0.00  0.00     0.051 A 
HETATM   24  C   UNK N   1      26.746  21.401  -8.121  0.00  0.00     0.015 A 
HETATM   25  C   UNK N   1      26.949  22.409  -7.140  0.00  0.00    -0.044 A 
HETATM   26  C   UNK N   1      25.778  23.028  -6.466  0.00  0.00     0.049 C 
ENDBRANCH   2  21
TORSDOF 7
ENDMDL
MODEL 6
REMARK VINA RESULT:      -6.4     10.884     13.717
REMARK  7 active torsions:
REMARK  status: ('A' for Active; 'I' for Inactive)
REMARK    1  A    between atoms: O_3  and  C_13 
REMARK    2  A    between atoms: N_5  and  C_11 
REMARK    3  A    between atoms: C_6  and  C_13 
REMARK    4  A    between atoms: C_11  and  C_12 
REMARK    5  A    between atoms: C_12  and  C_14 
REMARK    6  A    between atoms: C_15  and  C_16 
REMARK    7  A    between atoms: C_15  and  C_17 
ROOT
HETATM    1  C   UNK N   1      29.597  26.412  -3.998  0.00  0.00    -0.011 C 
HETATM    2  C   UNK N   1      28.459  26.670  -4.668  0.00  0.00    -0.005 C 
ENDROOT
BRANCH   1   3
HETATM    3  C   UNK N   1      30.322  25.137  -3.751  0.00  0.00     0.058 C 
BRANCH   3   4
HETATM    4  C   UNK N   1      31.212  24.842  -4.956  0.00  0.00     0.276 C 
BRANCH   4   5
HETATM    5  N   UNK N   1      31.338  23.403  -5.154  0.00  0.00     0.089 N 
HETATM    6  C   UNK N   1      32.157  22.863  -4.074  0.00  0.00     0.287 C 
HETATM    7  C   UNK N   1      32.386  21.370  -4.316  0.00  0.00     0.112 C 
HETATM    8  C   UNK N   1      31.035  20.646  -4.354  0.00  0.00     0.019 C 
HETATM    9  C   UNK N   1      30.103  21.305  -5.367  0.00  0.00     0.031 C 
HETATM   10  C   UNK N   1      30.007  22.798  -5.070  0.00  0.00     0.272 C 
BRANCH   7  11
HETATM   11  C   UNK N   1      33.300  20.806  -3.266  0.00  0.00     0.145 C 
HETATM   12  O   UNK N   1      34.267  20.141  -3.603  0.00  0.00    -0.650 OA
BRANCH  11  13
HETATM   13  O   UNK N   1      33.058  21.011  -1.957  0.00  0.00    -0.776 OA
HETATM   14  H   UNK N   1      33.578  21.411  -1.287  0.00  0.00     0.167 HD
ENDBRANCH  11  13
ENDBRANCH   7  11
ENDBRANCH   4   5
ENDBRANCH   3   4
ENDBRANCH   1   3
BRANCH   2  15
HETATM   15  C   UNK N   1      28.051  28.115  -4.643  0.00  0.00     0.022 A 
HETATM   16  S   UNK N   1      28.988  29.341  -5.277  0.00  0.00    -0.101 SA
HETATM   17  C   UNK N   1      28.008  30.651  -5.020  0.00  0.00     0.051 A 
HETATM   18  C   UNK N   1      26.848  30.150  -4.423  0.00  0.00     0.015 A 
HETATM   19  C   UNK N   1      26.864  28.741  -4.212  0.00  0.00    -0.044 A 
HETATM   20  C   UNK N   1      25.658  28.053  -3.683  0.00  0.00     0.049 C 
ENDBRANCH   2  15
BRANCH   2  21
HETATM   21  C   UNK N   1      27.618  25.595  -5.317  0.00  0.00     0.022 A 
HETATM   22  S   UNK N   1      27.417  25.450  -6.962  0.00  0.00    -0.101 SA
HETATM   23  C   UNK N   1      26.382  24.159  -7.046  0.00  0.00     0.051 A 
HETATM   24  C   UNK N   1      26.138  23.779  -5.725  0.00  0.00     0.015 A 
HETATM   25  C   UNK N   1      26.812  24.574  -4.758  0.00  0.00    -0.044 A 
HETATM   26  C   UNK N   1      26.679  24.249  -3.315  0.00  0.00     0.049 C 
ENDBRANCH   2  21
TORSDOF 7
ENDMDL
MODEL 7
REMARK VINA RESULT:      -6.4      4.223      7.760
REMARK  7 active torsions:
REMARK  status: ('A' for Active; 'I' for Inactive)
REMARK    1  A    between atoms: O_3  and  C_13 
REMARK    2  A    between atoms: N_5  and  C_11 
REMARK    3  A    between atoms: C_6  and  C_13 
REMARK    4  A    between atoms: C_11  and  C_12 
REMARK    5  A    between atoms: C_12  and  C_14 
REMARK    6  A    between atoms: C_15  and  C_16 
REMARK    7  A    between atoms: C_15  and  C_17 
ROOT
HETATM    1  C   UNK N   1      28.066  17.893   6.953  0.00  0.00    -0.011 C 
HETATM    2  C   UNK N   1      28.108  17.568   5.648  0.00  0.00    -0.005 C 
ENDROOT
BRANCH   1   3
HETATM    3  C   UNK N   1      28.744  17.295   8.134  0.00  0.00     0.058 C 
BRANCH   3   4
HETATM    4  C   UNK N   1      29.953  18.156   8.491  0.00  0.00     0.276 C 
BRANCH   4   5
HETATM    5  N   UNK N   1      31.168  17.583   7.923  0.00  0.00     0.089 N 
HETATM    6  C   UNK N   1      32.308  18.093   8.676  0.00  0.00     0.287 C 
HETATM    7  C   UNK N   1      33.602  17.585   8.036  0.00  0.00     0.112 C 
HETATM    8  C   UNK N   1      33.610  16.051   8.053  0.00  0.00     0.019 C 
HETATM    9  C   UNK N   1      32.340  15.501   7.411  0.00  0.00     0.031 C 
HETATM   10  C   UNK N   1      31.122  16.128   8.083  0.00  0.00     0.272 C 
BRANCH   7  11
HETATM   11  C   UNK N   1      34.795  18.164   8.738  0.00  0.00     0.145 C 
HETATM   12  O   UNK N   1      35.280  19.211   8.338  0.00  0.00    -0.650 OA
BRANCH  11  13
HETATM   13  O   UNK N   1      35.346  17.538   9.795  0.00  0.00    -0.776 OA
HETATM   14  H   UNK N   1      35.906  17.853  10.478  0.00  0.00     0.167 HD
ENDBRANCH  11  13
ENDBRANCH   7  11
ENDBRANCH   4   5
ENDBRANCH   3   4
ENDBRANCH   1   3
BRANCH   2  15
HETATM   15  C   UNK N   1      27.230  18.421   4.778  0.00  0.00     0.022 A 
HETATM   16  S   UNK N   1      27.598  19.997   4.372  0.00  0.00    -0.101 SA
HETATM   17  C   UNK N   1      26.330  20.369   3.376  0.00  0.00     0.051 A 
HETATM   18  C   UNK N   1      25.549  19.212   3.301  0.00  0.00     0.015 A 
HETATM   19  C   UNK N   1      26.044  18.125   4.076  0.00  0.00    -0.044 A 
HETATM   20  C   UNK N   1      25.377  16.799   4.012  0.00  0.00     0.049 C 
ENDBRANCH   2  15
BRANCH   2  21
HETATM   21  C   UNK N   1      28.900  16.398   5.111  0.00  0.00     0.022 A 
HETATM   22  S   UNK N   1      28.355  14.827   5.136  0.00  0.00    -0.101 SA
HETATM   23  C   UNK N   1      29.648  14.028   4.477  0.00  0.00     0.051 A 
HETATM   24  C   UNK N   1      30.605  15.008   4.205  0.00  0.00     0.015 A 
HETATM   25  C   UNK N   1      30.203  16.325   4.561  0.00  0.00    -0.044 A 
HETATM   26  C   UNK N   1      31.106  17.471   4.282  0.00  0.00     0.049 C 
ENDBRANCH   2  21
TORSDOF 7
ENDMDL
MODEL 8
REMARK VINA RESULT:      -6.3      4.322      5.240
REMARK  7 active torsions:
REMARK  status: ('A' for Active; 'I' for Inactive)
REMARK    1  A    between atoms: O_3  and  C_13 
REMARK    2  A    between atoms: N_5  and  C_11 
REMARK    3  A    between atoms: C_6  and  C_13 
REMARK    4  A    between atoms: C_11  and  C_12 
REMARK    5  A    between atoms: C_12  and  C_14 
REMARK    6  A    between atoms: C_15  and  C_16 
REMARK    7  A    between atoms: C_15  and  C_17 
ROOT
HETATM    1  C   UNK N   1      27.667  16.362   6.931  0.00  0.00    -0.011 C 
HETATM    2  C   UNK N   1      28.386  17.464   6.650  0.00  0.00    -0.005 C 
ENDROOT
BRANCH   1   3
HETATM    3  C   UNK N   1      26.260  16.002   6.611  0.00  0.00     0.058 C 
BRANCH   3   4
HETATM    4  C   UNK N   1      26.218  14.538   6.182  0.00  0.00     0.276 C 
BRANCH   4   5
HETATM    5  N   UNK N   1      25.043  13.880   6.742  0.00  0.00     0.089 N 
HETATM    6  C   UNK N   1      25.272  13.671   8.167  0.00  0.00     0.287 C 
HETATM    7  C   UNK N   1      24.094  12.891   8.756  0.00  0.00     0.112 C 
HETATM    8  C   UNK N   1      22.801  13.688   8.549  0.00  0.00     0.019 C 
HETATM    9  C   UNK N   1      22.629  14.057   7.079  0.00  0.00     0.031 C 
HETATM   10  C   UNK N   1      23.887  14.765   6.585  0.00  0.00     0.272 C 
BRANCH   7  11
HETATM   11  C   UNK N   1      24.344  12.585  10.205  0.00  0.00     0.145 C 
HETATM   12  O   UNK N   1      23.531  11.921  10.830  0.00  0.00    -0.650 OA
BRANCH  11  13
HETATM   13  O   UNK N   1      25.445  13.045  10.829  0.00  0.00    -0.776 OA
HETATM   14  H   UNK N   1      25.927  13.843  10.725  0.00  0.00     0.167 HD
ENDBRANCH  11  13
ENDBRANCH   7  11
ENDBRANCH   4   5
ENDBRANCH   3   4
ENDBRANCH   1   3
BRANCH   2  15
HETATM   15  C   UNK N   1      29.784  17.437   7.200  0.00  0.00     0.022 A 
HETATM   16  S   UNK N   1      31.106  16.937   6.314  0.00  0.00    -0.101 SA
HETATM   17  C   UNK N   1      32.328  17.190   7.402  0.00  0.00     0.051 A 
HETATM   18  C   UNK N   1      31.720  17.722   8.543  0.00  0.00     0.015 A 
HETATM   19  C   UNK N   1      30.307  17.864   8.437  0.00  0.00    -0.044 A 
HETATM   20  C   UNK N   1      29.539  18.514   9.531  0.00  0.00     0.049 C 
ENDBRANCH   2  15
BRANCH   2  21
HETATM   21  C   UNK N   1      27.819  18.660   5.921  0.00  0.00     0.022 A 
HETATM   22  S   UNK N   1      27.519  20.126   6.647  0.00  0.00    -0.101 SA
HETATM   23  C   UNK N   1      26.876  20.984   5.385  0.00  0.00     0.051 A 
HETATM   24  C   UNK N   1      26.866  20.111   4.295  0.00  0.00     0.015 A 
HETATM   25  C   UNK N   1      27.379  18.817   4.585  0.00  0.00    -0.044 A 
HETATM   26  C   UNK N   1      27.471  17.802   3.503  0.00  0.00     0.049 C 
ENDBRANCH   2  21
TORSDOF 7
ENDMDL
MODEL 9
REMARK VINA RESULT:      -6.3      4.392      7.750
REMARK  7 active torsions:
REMARK  status: ('A' for Active; 'I' for Inactive)
REMARK    1  A    between atoms: O_3  and  C_13 
REMARK    2  A    between atoms: N_5  and  C_11 
REMARK    3  A    between atoms: C_6  and  C_13 
REMARK    4  A    between atoms: C_11  and  C_12 
REMARK    5  A    between atoms: C_12  and  C_14 
REMARK    6  A    between atoms: C_15  and  C_16 
REMARK    7  A    between atoms: C_15  and  C_17 
ROOT
HETATM    1  C   UNK N   1      29.655  17.786   5.096  0.00  0.00    -0.011 C 
HETATM    2  C   UNK N   1      28.310  17.755   5.047  0.00  0.00    -0.005 C 
ENDROOT
BRANCH   1   3
HETATM    3  C   UNK N   1      30.672  16.762   4.737  0.00  0.00     0.058 C 
BRANCH   3   4
HETATM    4  C   UNK N   1      31.978  17.473   4.391  0.00  0.00     0.276 C 
BRANCH   4   5
HETATM    5  N   UNK N   1      33.080  16.913   5.165  0.00  0.00     0.089 N 
HETATM    6  C   UNK N   1      33.181  17.654   6.417  0.00  0.00     0.287 C 
HETATM    7  C   UNK N   1      34.395  17.151   7.202  0.00  0.00     0.112 C 
HETATM    8  C   UNK N   1      34.227  15.655   7.495  0.00  0.00     0.019 C 
HETATM    9  C   UNK N   1      33.956  14.884   6.207  0.00  0.00     0.031 C 
HETATM   10  C   UNK N   1      32.774  15.516   5.478  0.00  0.00     0.272 C 
BRANCH   7  11
HETATM   11  C   UNK N   1      34.575  17.956   8.457  0.00  0.00     0.145 C 
HETATM   12  O   UNK N   1      35.024  19.090   8.386  0.00  0.00    -0.650 OA
BRANCH  11  13
HETATM   13  O   UNK N   1      34.262  17.439   9.660  0.00  0.00    -0.776 OA
HETATM   14  H   UNK N   1      33.903  16.607   9.902  0.00  0.00     0.167 HD
ENDBRANCH  11  13
ENDBRANCH   7  11
ENDBRANCH   4   5
ENDBRANCH   3   4
ENDBRANCH   1   3
BRANCH   2  15
HETATM   15  C   UNK N   1      27.653  19.011   5.545  0.00  0.00     0.022 A 
HETATM   16  S   UNK N   1      27.759  19.534   7.125  0.00  0.00    -0.101 SA
HETATM   17  C   UNK N   1      26.917  20.957   7.042  0.00  0.00     0.051 A 
HETATM   18  C   UNK N   1      26.526  21.093   5.706  0.00  0.00     0.015 A 
HETATM   19  C   UNK N   1      26.934  20.016   4.868  0.00  0.00    -0.044 A 
HETATM   20  C   UNK N   1      26.681  20.073   3.405  0.00  0.00     0.049 C 
ENDBRANCH   2  15
BRANCH   2  21
HETATM   21  C   UNK N   1      27.525  16.540   4.612  0.00  0.00     0.022 A 
HETATM   22  S   UNK N   1      27.436  16.016   3.035  0.00  0.00    -0.101 SA
HETATM   23  C   UNK N   1      26.421  14.716   3.185  0.00  0.00     0.051 A 
HETATM   24  C   UNK N   1      26.092  14.643   4.540  0.00  0.00     0.015 A 
HETATM   25  C   UNK N   1      26.693  15.655   5.338  0.00  0.00    -0.044 A 
HETATM   26  C   UNK N   1      26.466  15.667   6.807  0.00  0.00     0.049 C 
ENDBRANCH   2  21
TORSDOF 7
ENDMDL
