MODEL 1
REMARK VINA RESULT:      -7.0      0.000      0.000
REMARK  5 active torsions:
REMARK  status: ('A' for Active; 'I' for Inactive)
REMARK    1  A    between atoms: C_13  and  O_1 
REMARK    2  A    between atoms: O_2  and  C_23 
REMARK    3  A    between atoms: C_7  and  C_13 
REMARK    4  A    between atoms: C_9  and  C_14 
REMARK    5  A    between atoms: C_13  and  C_15 
ROOT
HETATM    1  N   UNK N   1      30.668  18.247   9.558  0.00  0.00    -0.365 N 
ATOM      2  HN  UNK N   1      31.353  18.499  10.269  1.00  0.00     0.165 HD
HETATM    3  C   UNK N   1      28.784  17.525   7.629  0.00  0.00    -0.014 A 
HETATM    4  C   UNK N   1      30.166  17.418   7.358  0.00  0.00     0.002 A 
HETATM    5  C   UNK N   1      28.390  18.025   8.880  0.00  0.00     0.027 A 
HETATM    6  C   UNK N   1      31.101  17.779   8.354  0.00  0.00     0.043 A 
HETATM    7  C   UNK N   1      30.636  16.944   6.122  0.00  0.00     0.051 A 
HETATM    8  C   UNK N   1      29.346  18.385   9.830  0.00  0.00     0.089 A 
HETATM    9  C   UNK N   1      32.469  17.645   8.115  0.00  0.00     0.033 A 
HETATM   10  C   UNK N   1      32.015  16.824   5.878  0.00  0.00     0.069 A 
HETATM   11  C   UNK N   1      32.924  17.168   6.882  0.00  0.00     0.039 A 
ENDROOT
BRANCH   3  12
HETATM   12  C   UNK N   1      27.754  17.047   6.612  0.00  0.00     0.185 C 
BRANCH  12  13
HETATM   13  O   UNK N   1      26.793  16.300   7.299  0.00  0.00    -0.389 OA
HETATM   14  H   UNK N   1      26.247  16.183   8.092  0.00  0.00     0.210 HD
ENDBRANCH  12  13
BRANCH  12  15
HETATM   15  C   UNK N   1      27.072  18.148   5.743  0.00  0.00     0.256 C 
HETATM   16  N   UNK N   1      27.882  18.499   4.540  0.00  0.00     0.096 N 
HETATM   17  C   UNK N   1      27.230  19.630   3.843  0.00  0.00     0.282 C 
HETATM   18  C   UNK N   1      27.944  17.371   3.582  0.00  0.00     0.273 C 
HETATM   19  C   UNK N   1      25.834  19.227   3.306  0.00  0.00     0.040 C 
HETATM   20  C   UNK N   1      25.487  17.813   3.801  0.00  0.00    -0.001 C 
HETATM   21  C   UNK N   1      25.635  17.747   5.322  0.00  0.00     0.044 C 
HETATM   22  C   UNK N   1      26.531  16.868   3.207  0.00  0.00     0.035 C 
BRANCH  19  23
HETATM   23  C   UNK N   1      24.808  20.240   3.694  0.00  0.00    -0.030 C 
HETATM   24  C   UNK N   1      23.878  20.603   2.815  0.00  0.00     0.007 C 
ENDBRANCH  19  23
ENDBRANCH  12  15
ENDBRANCH   3  12
BRANCH  10  25
HETATM   25  O   UNK N   1      32.487  16.387   4.685  0.00  0.00    -0.356 OA
HETATM   26  C   UNK N   1      32.636  17.206   3.589  0.00  0.00     0.210 C 
ENDBRANCH  10  25
TORSDOF 5
ENDMDL
MODEL 2
REMARK VINA RESULT:      -7.0     11.406     13.734
REMARK  5 active torsions:
REMARK  status: ('A' for Active; 'I' for Inactive)
REMARK    1  A    between atoms: C_13  and  O_1 
REMARK    2  A    between atoms: O_2  and  C_23 
REMARK    3  A    between atoms: C_7  and  C_13 
REMARK    4  A    between atoms: C_9  and  C_14 
REMARK    5  A    between atoms: C_13  and  C_15 
ROOT
HETATM    1  N   UNK N   1      30.669  22.181  -4.514  0.00  0.00    -0.365 N 
ATOM      2  HN  UNK N   1      31.474  21.565  -4.622  1.00  0.00     0.165 HD
HETATM    3  C   UNK N   1      28.451  23.844  -4.191  0.00  0.00    -0.014 A 
HETATM    4  C   UNK N   1      28.560  23.006  -5.321  0.00  0.00     0.002 A 
HETATM    5  C   UNK N   1      29.497  23.835  -3.253  0.00  0.00     0.027 A 
HETATM    6  C   UNK N   1      29.687  22.163  -5.457  0.00  0.00     0.043 A 
HETATM    7  C   UNK N   1      27.563  22.974  -6.310  0.00  0.00     0.051 A 
HETATM    8  C   UNK N   1      30.600  23.000  -3.435  0.00  0.00     0.089 A 
HETATM    9  C   UNK N   1      29.792  21.302  -6.550  0.00  0.00     0.033 A 
HETATM   10  C   UNK N   1      27.678  22.117  -7.417  0.00  0.00     0.069 A 
HETATM   11  C   UNK N   1      28.791  21.278  -7.524  0.00  0.00     0.039 A 
ENDROOT
BRANCH   3  12
HETATM   12  C   UNK N   1      27.200  24.686  -3.965  0.00  0.00     0.185 C 
BRANCH  12  13
HETATM   13  O   UNK N   1      26.687  24.358  -2.708  0.00  0.00    -0.389 OA
HETATM   14  H   UNK N   1      26.633  23.725  -1.975  0.00  0.00     0.210 HD
ENDBRANCH  12  13
BRANCH  12  15
HETATM   15  C   UNK N   1      27.369  26.231  -4.102  0.00  0.00     0.256 C 
HETATM   16  N   UNK N   1      27.454  26.665  -5.526  0.00  0.00     0.096 N 
HETATM   17  C   UNK N   1      27.735  28.118  -5.563  0.00  0.00     0.282 C 
HETATM   18  C   UNK N   1      26.173  26.449  -6.237  0.00  0.00     0.273 C 
HETATM   19  C   UNK N   1      26.570  28.930  -4.946  0.00  0.00     0.040 C 
HETATM   20  C   UNK N   1      25.540  27.961  -4.340  0.00  0.00    -0.001 C 
HETATM   21  C   UNK N   1      26.238  27.003  -3.374  0.00  0.00     0.044 C 
HETATM   22  C   UNK N   1      24.994  27.119  -5.493  0.00  0.00     0.035 C 
BRANCH  19  23
HETATM   23  C   UNK N   1      27.084  29.918  -3.953  0.00  0.00    -0.030 C 
HETATM   24  C   UNK N   1      26.386  31.023  -3.703  0.00  0.00     0.007 C 
ENDBRANCH  19  23
ENDBRANCH  12  15
ENDBRANCH   3  12
BRANCH  10  25
HETATM   25  O   UNK N   1      26.735  22.087  -8.390  0.00  0.00    -0.356 OA
HETATM   26  C   UNK N   1      25.544  21.410  -8.264  0.00  0.00     0.210 C 
ENDBRANCH  10  25
TORSDOF 5
ENDMDL
MODEL 3
REMARK VINA RESULT:      -6.8     10.743     13.987
REMARK  5 active torsions:
REMARK  status: ('A' for Active; 'I' for Inactive)
REMARK    1  A    between atoms: C_13  and  O_1 
REMARK    2  A    between atoms: O_2  and  C_23 
REMARK    3  A    between atoms: C_7  and  C_13 
REMARK    4  A    between atoms: C_9  and  C_14 
REMARK    5  A    between atoms: C_13  and  C_15 
ROOT
HETATM    1  N   UNK N   1      25.208  24.833  -6.563  0.00  0.00    -0.365 N 
ATOM      2  HN  UNK N   1      24.525  25.002  -7.300  1.00  0.00     0.165 HD
HETATM    3  C   UNK N   1      27.054  24.347  -4.527  0.00  0.00    -0.014 A 
HETATM    4  C   UNK N   1      26.420  25.604  -4.636  0.00  0.00     0.002 A 
HETATM    5  C   UNK N   1      26.748  23.364  -5.482  0.00  0.00     0.027 A 
HETATM    6  C   UNK N   1      25.480  25.822  -5.668  0.00  0.00     0.043 A 
HETATM    7  C   UNK N   1      26.689  26.642  -3.728  0.00  0.00     0.051 A 
HETATM    8  C   UNK N   1      25.827  23.627  -6.496  0.00  0.00     0.089 A 
HETATM    9  C   UNK N   1      24.818  27.047  -5.768  0.00  0.00     0.033 A 
HETATM   10  C   UNK N   1      26.032  27.879  -3.839  0.00  0.00     0.069 A 
HETATM   11  C   UNK N   1      25.092  28.070  -4.856  0.00  0.00     0.039 A 
ENDROOT
BRANCH   3  12
HETATM   12  C   UNK N   1      27.993  24.049  -3.364  0.00  0.00     0.185 C 
BRANCH  12  13
HETATM   13  O   UNK N   1      27.219  23.573  -2.302  0.00  0.00    -0.389 OA
HETATM   14  H   UNK N   1      26.341  23.447  -1.909  0.00  0.00     0.210 HD
ENDBRANCH  12  13
BRANCH  12  15
HETATM   15  C   UNK N   1      29.175  23.074  -3.658  0.00  0.00     0.256 C 
HETATM   16  N   UNK N   1      29.733  23.262  -5.029  0.00  0.00     0.096 N 
HETATM   17  C   UNK N   1      30.759  22.223  -5.269  0.00  0.00     0.282 C 
HETATM   18  C   UNK N   1      30.401  24.577  -5.167  0.00  0.00     0.273 C 
HETATM   19  C   UNK N   1      31.959  22.386  -4.303  0.00  0.00     0.040 C 
HETATM   20  C   UNK N   1      31.641  23.490  -3.280  0.00  0.00    -0.001 C 
HETATM   21  C   UNK N   1      30.303  23.195  -2.600  0.00  0.00     0.044 C 
HETATM   22  C   UNK N   1      31.469  24.787  -4.069  0.00  0.00     0.035 C 
BRANCH  19  23
HETATM   23  C   UNK N   1      32.295  21.083  -3.657  0.00  0.00    -0.030 C 
HETATM   24  C   UNK N   1      33.403  20.977  -2.928  0.00  0.00     0.007 C 
ENDBRANCH  19  23
ENDBRANCH  12  15
ENDBRANCH   3  12
BRANCH  10  25
HETATM   25  O   UNK N   1      26.292  28.898  -2.985  0.00  0.00    -0.356 OA
HETATM   26  C   UNK N   1      26.624  30.166  -3.404  0.00  0.00     0.210 C 
ENDBRANCH  10  25
TORSDOF 5
ENDMDL
MODEL 4
REMARK VINA RESULT:      -6.7      6.039      9.149
REMARK  5 active torsions:
REMARK  status: ('A' for Active; 'I' for Inactive)
REMARK    1  A    between atoms: C_13  and  O_1 
REMARK    2  A    between atoms: O_2  and  C_23 
REMARK    3  A    between atoms: C_7  and  C_13 
REMARK    4  A    between atoms: C_9  and  C_14 
REMARK    5  A    between atoms: C_13  and  C_15 
ROOT
HETATM    1  N   UNK N   1      38.368  12.632  10.560  0.00  0.00    -0.365 N 
ATOM      2  HN  UNK N   1      39.082  11.915  10.685  1.00  0.00     0.165 HD
HETATM    3  C   UNK N   1      36.439  14.620  10.222  0.00  0.00    -0.014 A 
HETATM    4  C   UNK N   1      36.437  13.807  11.376  0.00  0.00     0.002 A 
HETATM    5  C   UNK N   1      37.420  14.384   9.245  0.00  0.00     0.027 A 
HETATM    6  C   UNK N   1      37.430  12.814  11.530  0.00  0.00     0.043 A 
HETATM    7  C   UNK N   1      35.476  13.973  12.388  0.00  0.00     0.051 A 
HETATM    8  C   UNK N   1      38.372  13.382   9.429  0.00  0.00     0.089 A 
HETATM    9  C   UNK N   1      37.463  12.026  12.681  0.00  0.00     0.033 A 
HETATM   10  C   UNK N   1      35.503  13.168  13.539  0.00  0.00     0.069 A 
HETATM   11  C   UNK N   1      36.505  12.204  13.682  0.00  0.00     0.039 A 
ENDROOT
BRANCH   3  12
HETATM   12  C   UNK N   1      35.444  15.766  10.077  0.00  0.00     0.185 C 
BRANCH  12  13
HETATM   13  O   UNK N   1      36.030  16.911  10.622  0.00  0.00    -0.389 OA
HETATM   14  H   UNK N   1      36.789  17.514  10.662  0.00  0.00     0.210 HD
ENDBRANCH  12  13
BRANCH  12  15
HETATM   15  C   UNK N   1      34.921  16.053   8.636  0.00  0.00     0.256 C 
HETATM   16  N   UNK N   1      33.987  14.995   8.153  0.00  0.00     0.096 N 
HETATM   17  C   UNK N   1      33.638  15.277   6.743  0.00  0.00     0.282 C 
HETATM   18  C   UNK N   1      32.724  14.994   8.925  0.00  0.00     0.273 C 
HETATM   19  C   UNK N   1      32.862  16.611   6.614  0.00  0.00     0.040 C 
HETATM   20  C   UNK N   1      32.828  17.314   7.983  0.00  0.00    -0.001 C 
HETATM   21  C   UNK N   1      34.249  17.447   8.530  0.00  0.00     0.044 C 
HETATM   22  C   UNK N   1      32.064  16.392   8.933  0.00  0.00     0.035 C 
BRANCH  19  23
HETATM   23  C   UNK N   1      33.456  17.465   5.544  0.00  0.00    -0.030 C 
HETATM   24  C   UNK N   1      32.902  17.484   4.335  0.00  0.00     0.007 C 
ENDBRANCH  19  23
ENDBRANCH  12  15
ENDBRANCH   3  12
BRANCH  10  25
HETATM   25  O   UNK N   1      34.573  13.300  14.517  0.00  0.00    -0.356 OA
HETATM   26  C   UNK N   1      34.716  12.751  15.771  0.00  0.00     0.210 C 
ENDBRANCH  10  25
TORSDOF 5
ENDMDL
MODEL 5
REMARK VINA RESULT:      -6.5      4.707      7.894
REMARK  5 active torsions:
REMARK  status: ('A' for Active; 'I' for Inactive)
REMARK    1  A    between atoms: C_13  and  O_1 
REMARK    2  A    between atoms: O_2  and  C_23 
REMARK    3  A    between atoms: C_7  and  C_13 
REMARK    4  A    between atoms: C_9  and  C_14 
REMARK    5  A    between atoms: C_13  and  C_15 
ROOT
HETATM    1  N   UNK N   1      26.726  18.080   4.561  0.00  0.00    -0.365 N 
ATOM      2  HN  UNK N   1      27.675  18.421   4.414  1.00  0.00     0.165 HD
HETATM    3  C   UNK N   1      24.133  17.120   4.938  0.00  0.00    -0.014 A 
HETATM    4  C   UNK N   1      24.354  18.343   4.269  0.00  0.00     0.002 A 
HETATM    5  C   UNK N   1      25.247  16.418   5.426  0.00  0.00     0.027 A 
HETATM    6  C   UNK N   1      25.677  18.804   4.079  0.00  0.00     0.043 A 
HETATM    7  C   UNK N   1      23.289  19.110   3.769  0.00  0.00     0.051 A 
HETATM    8  C   UNK N   1      26.535  16.917   5.232  0.00  0.00     0.089 A 
HETATM    9  C   UNK N   1      25.915  19.992   3.389  0.00  0.00     0.033 A 
HETATM   10  C   UNK N   1      23.530  20.314   3.086  0.00  0.00     0.069 A 
HETATM   11  C   UNK N   1      24.846  20.743   2.893  0.00  0.00     0.039 A 
ENDROOT
BRANCH   3  12
HETATM   12  C   UNK N   1      22.725  16.549   5.065  0.00  0.00     0.185 C 
BRANCH  12  13
HETATM   13  O   UNK N   1      22.617  15.480   4.172  0.00  0.00    -0.389 OA
HETATM   14  H   UNK N   1      22.175  15.082   3.405  0.00  0.00     0.210 HD
ENDBRANCH  12  13
BRANCH  12  15
HETATM   15  C   UNK N   1      22.279  16.113   6.495  0.00  0.00     0.256 C 
HETATM   16  N   UNK N   1      20.968  16.711   6.884  0.00  0.00     0.096 N 
HETATM   17  C   UNK N   1      20.681  16.350   8.290  0.00  0.00     0.282 C 
HETATM   18  C   UNK N   1      19.862  16.174   6.059  0.00  0.00     0.273 C 
HETATM   19  C   UNK N   1      20.508  14.819   8.451  0.00  0.00     0.040 C 
HETATM   20  C   UNK N   1      20.844  14.126   7.120  0.00  0.00    -0.001 C 
HETATM   21  C   UNK N   1      22.227  14.570   6.641  0.00  0.00     0.044 C 
HETATM   22  C   UNK N   1      19.830  14.628   6.092  0.00  0.00     0.035 C 
BRANCH  19  23
HETATM   23  C   UNK N   1      21.333  14.313   9.587  0.00  0.00    -0.030 C 
HETATM   24  C   UNK N   1      21.105  13.096  10.074  0.00  0.00     0.007 C 
ENDBRANCH  19  23
ENDBRANCH  12  15
ENDBRANCH   3  12
BRANCH  10  25
HETATM   25  O   UNK N   1      22.514  21.076   2.614  0.00  0.00    -0.356 OA
HETATM   26  C   UNK N   1      21.196  20.680   2.649  0.00  0.00     0.210 C 
ENDBRANCH  10  25
TORSDOF 5
ENDMDL
MODEL 6
REMARK VINA RESULT:      -6.1     11.673     14.089
REMARK  5 active torsions:
REMARK  status: ('A' for Active; 'I' for Inactive)
REMARK    1  A    between atoms: C_13  and  O_1 
REMARK    2  A    between atoms: O_2  and  C_23 
REMARK    3  A    between atoms: C_7  and  C_13 
REMARK    4  A    between atoms: C_9  and  C_14 
REMARK    5  A    between atoms: C_13  and  C_15 
ROOT
HETATM    1  N   UNK N   1      30.956  21.504  -4.892  0.00  0.00    -0.365 N 
ATOM      2  HN  UNK N   1      31.707  20.815  -4.913  1.00  0.00     0.165 HD
HETATM    3  C   UNK N   1      28.884  23.373  -4.806  0.00  0.00    -0.014 A 
HETATM    4  C   UNK N   1      28.935  22.405  -5.833  0.00  0.00     0.002 A 
HETATM    5  C   UNK N   1      29.913  23.382  -3.850  0.00  0.00     0.027 A 
HETATM    6  C   UNK N   1      29.988  21.462  -5.849  0.00  0.00     0.043 A 
HETATM    7  C   UNK N   1      27.952  22.345  -6.834  0.00  0.00     0.051 A 
HETATM    8  C   UNK N   1      30.943  22.443  -3.913  0.00  0.00     0.089 A 
HETATM    9  C   UNK N   1      30.033  20.476  -6.836  0.00  0.00     0.033 A 
HETATM   10  C   UNK N   1      28.007  21.360  -7.835  0.00  0.00     0.069 A 
HETATM   11  C   UNK N   1      29.046  20.425  -7.823  0.00  0.00     0.039 A 
ENDROOT
BRANCH   3  12
HETATM   12  C   UNK N   1      27.707  24.335  -4.704  0.00  0.00     0.185 C 
BRANCH  12  13
HETATM   13  O   UNK N   1      27.439  24.539  -3.348  0.00  0.00    -0.389 OA
HETATM   14  H   UNK N   1      27.773  24.727  -2.457  0.00  0.00     0.210 HD
ENDBRANCH  12  13
BRANCH  12  15
HETATM   15  C   UNK N   1      27.861  25.701  -5.442  0.00  0.00     0.256 C 
HETATM   16  N   UNK N   1      26.776  25.929  -6.440  0.00  0.00     0.096 N 
HETATM   17  C   UNK N   1      27.064  27.180  -7.177  0.00  0.00     0.282 C 
HETATM   18  C   UNK N   1      25.461  26.102  -5.781  0.00  0.00     0.273 C 
HETATM   19  C   UNK N   1      27.029  28.407  -6.233  0.00  0.00     0.040 C 
HETATM   20  C   UNK N   1      26.858  27.927  -4.781  0.00  0.00    -0.001 C 
HETATM   21  C   UNK N   1      27.933  26.891  -4.449  0.00  0.00     0.044 C 
HETATM   22  C   UNK N   1      25.508  27.214  -4.708  0.00  0.00     0.035 C 
BRANCH  19  23
HETATM   23  C   UNK N   1      28.246  29.250  -6.420  0.00  0.00    -0.030 C 
HETATM   24  C   UNK N   1      28.927  29.178  -7.561  0.00  0.00     0.007 C 
ENDBRANCH  19  23
ENDBRANCH  12  15
ENDBRANCH   3  12
BRANCH  10  25
HETATM   25  O   UNK N   1      27.078  21.299  -8.820  0.00  0.00    -0.356 OA
HETATM   26  C   UNK N   1      25.735  21.119  -8.578  0.00  0.00     0.210 C 
ENDBRANCH  10  25
TORSDOF 5
ENDMDL
MODEL 7
REMARK VINA RESULT:      -6.1      4.308      7.625
REMARK  5 active torsions:
REMARK  status: ('A' for Active; 'I' for Inactive)
REMARK    1  A    between atoms: C_13  and  O_1 
REMARK    2  A    between atoms: O_2  and  C_23 
REMARK    3  A    between atoms: C_7  and  C_13 
REMARK    4  A    between atoms: C_9  and  C_14 
REMARK    5  A    between atoms: C_13  and  C_15 
ROOT
HETATM    1  N   UNK N   1      22.269  20.460   2.499  0.00  0.00    -0.365 N 
ATOM      2  HN  UNK N   1      22.290  21.111   1.716  1.00  0.00     0.165 HD
HETATM    3  C   UNK N   1      22.198  18.702   4.666  0.00  0.00    -0.014 A 
HETATM    4  C   UNK N   1      23.429  19.193   4.181  0.00  0.00     0.002 A 
HETATM    5  C   UNK N   1      21.020  19.102   4.014  0.00  0.00     0.027 A 
HETATM    6  C   UNK N   1      23.439  20.091   3.089  0.00  0.00     0.043 A 
HETATM    7  C   UNK N   1      24.649  18.823   4.770  0.00  0.00     0.051 A 
HETATM    8  C   UNK N   1      21.076  19.978   2.929  0.00  0.00     0.089 A 
HETATM    9  C   UNK N   1      24.645  20.614   2.621  0.00  0.00     0.033 A 
HETATM   10  C   UNK N   1      25.864  19.339   4.287  0.00  0.00     0.069 A 
HETATM   11  C   UNK N   1      25.852  20.241   3.219  0.00  0.00     0.039 A 
ENDROOT
BRANCH   3  12
HETATM   12  C   UNK N   1      22.149  17.815   5.905  0.00  0.00     0.185 C 
BRANCH  12  13
HETATM   13  O   UNK N   1      21.340  18.449   6.851  0.00  0.00    -0.389 OA
HETATM   14  H   UNK N   1      20.504  18.474   7.343  0.00  0.00     0.210 HD
ENDBRANCH  12  13
BRANCH  12  15
HETATM   15  C   UNK N   1      21.683  16.342   5.686  0.00  0.00     0.256 C 
HETATM   16  N   UNK N   1      22.623  15.576   4.818  0.00  0.00     0.096 N 
HETATM   17  C   UNK N   1      22.047  14.237   4.562  0.00  0.00     0.282 C 
HETATM   18  C   UNK N   1      23.930  15.371   5.483  0.00  0.00     0.273 C 
HETATM   19  C   UNK N   1      21.926  13.419   5.871  0.00  0.00     0.040 C 
HETATM   20  C   UNK N   1      22.299  14.314   7.066  0.00  0.00    -0.001 C 
HETATM   21  C   UNK N   1      21.468  15.597   7.030  0.00  0.00     0.044 C 
HETATM   22  C   UNK N   1      23.761  14.719   6.875  0.00  0.00     0.035 C 
BRANCH  19  23
HETATM   23  C   UNK N   1      20.561  12.829   6.000  0.00  0.00    -0.030 C 
HETATM   24  C   UNK N   1      20.374  11.541   5.727  0.00  0.00     0.007 C 
ENDBRANCH  19  23
ENDBRANCH  12  15
ENDBRANCH   3  12
BRANCH  10  25
HETATM   25  O   UNK N   1      27.052  18.978   4.830  0.00  0.00    -0.356 OA
HETATM   26  C   UNK N   1      27.758  19.781   5.697  0.00  0.00     0.210 C 
ENDBRANCH  10  25
TORSDOF 5
ENDMDL
MODEL 8
REMARK VINA RESULT:      -6.0     12.059     13.124
REMARK  5 active torsions:
REMARK  status: ('A' for Active; 'I' for Inactive)
REMARK    1  A    between atoms: C_13  and  O_1 
REMARK    2  A    between atoms: O_2  and  C_23 
REMARK    3  A    between atoms: C_7  and  C_13 
REMARK    4  A    between atoms: C_9  and  C_14 
REMARK    5  A    between atoms: C_13  and  C_15 
ROOT
HETATM    1  N   UNK N   1      32.932  23.349  -5.593  0.00  0.00    -0.365 N 
ATOM      2  HN  UNK N   1      33.901  23.299  -5.904  1.00  0.00     0.165 HD
HETATM    3  C   UNK N   1      30.288  23.474  -4.707  0.00  0.00    -0.014 A 
HETATM    4  C   UNK N   1      30.713  22.425  -5.551  0.00  0.00     0.002 A 
HETATM    5  C   UNK N   1      31.223  24.458  -4.349  0.00  0.00     0.027 A 
HETATM    6  C   UNK N   1      32.059  22.376  -5.978  0.00  0.00     0.043 A 
HETATM    7  C   UNK N   1      29.830  21.414  -5.967  0.00  0.00     0.051 A 
HETATM    8  C   UNK N   1      32.539  24.381  -4.806  0.00  0.00     0.089 A 
HETATM    9  C   UNK N   1      32.503  21.327  -6.783  0.00  0.00     0.033 A 
HETATM   10  C   UNK N   1      30.276  20.366  -6.789  0.00  0.00     0.069 A 
HETATM   11  C   UNK N   1      31.616  20.325  -7.186  0.00  0.00     0.039 A 
ENDROOT
BRANCH   3  12
HETATM   12  C   UNK N   1      28.869  23.495  -4.148  0.00  0.00     0.185 C 
BRANCH  12  13
HETATM   13  O   UNK N   1      28.961  23.497  -2.754  0.00  0.00    -0.389 OA
HETATM   14  H   UNK N   1      29.351  23.875  -1.950  0.00  0.00     0.210 HD
ENDBRANCH  12  13
BRANCH  12  15
HETATM   15  C   UNK N   1      27.948  24.655  -4.638  0.00  0.00     0.256 C 
HETATM   16  N   UNK N   1      27.880  24.731  -6.126  0.00  0.00     0.096 N 
HETATM   17  C   UNK N   1      27.091  25.925  -6.504  0.00  0.00     0.282 C 
HETATM   18  C   UNK N   1      27.191  23.552  -6.699  0.00  0.00     0.273 C 
HETATM   19  C   UNK N   1      25.624  25.802  -6.023  0.00  0.00     0.040 C 
HETATM   20  C   UNK N   1      25.476  24.537  -5.160  0.00  0.00    -0.001 C 
HETATM   21  C   UNK N   1      26.520  24.550  -4.042  0.00  0.00     0.044 C 
HETATM   22  C   UNK N   1      25.797  23.346  -6.062  0.00  0.00     0.035 C 
BRANCH  19  23
HETATM   23  C   UNK N   1      25.199  27.040  -5.307  0.00  0.00    -0.030 C 
HETATM   24  C   UNK N   1      26.052  28.053  -5.181  0.00  0.00     0.007 C 
ENDBRANCH  19  23
ENDBRANCH  12  15
ENDBRANCH   3  12
BRANCH  10  25
HETATM   25  O   UNK N   1      29.434  19.393  -7.216  0.00  0.00    -0.356 OA
HETATM   26  C   UNK N   1      29.744  18.524  -8.237  0.00  0.00     0.210 C 
ENDBRANCH  10  25
TORSDOF 5
ENDMDL
MODEL 9
REMARK VINA RESULT:      -6.0      2.877      7.344
REMARK  5 active torsions:
REMARK  status: ('A' for Active; 'I' for Inactive)
REMARK    1  A    between atoms: C_13  and  O_1 
REMARK    2  A    between atoms: O_2  and  C_23 
REMARK    3  A    between atoms: C_7  and  C_13 
REMARK    4  A    between atoms: C_9  and  C_14 
REMARK    5  A    between atoms: C_13  and  C_15 
ROOT
HETATM    1  N   UNK N   1      27.850  18.180   8.280  0.00  0.00    -0.365 N 
ATOM      2  HN  UNK N   1      26.866  18.426   8.379  1.00  0.00     0.165 HD
HETATM    3  C   UNK N   1      30.554  17.542   8.011  0.00  0.00    -0.014 A 
HETATM    4  C   UNK N   1      29.689  17.482   6.898  0.00  0.00     0.002 A 
HETATM    5  C   UNK N   1      30.012  17.907   9.254  0.00  0.00     0.027 A 
HETATM    6  C   UNK N   1      28.326  17.820   7.055  0.00  0.00     0.043 A 
HETATM    7  C   UNK N   1      30.155  17.107   5.626  0.00  0.00     0.051 A 
HETATM    8  C   UNK N   1      28.657  18.218   9.370  0.00  0.00     0.089 A 
HETATM    9  C   UNK N   1      27.465  17.800   5.957  0.00  0.00     0.033 A 
HETATM   10  C   UNK N   1      29.283  17.074   4.525  0.00  0.00     0.069 A 
HETATM   11  C   UNK N   1      27.943  17.430   4.697  0.00  0.00     0.039 A 
ENDROOT
BRANCH   3  12
HETATM   12  C   UNK N   1      32.048  17.284   7.850  0.00  0.00     0.185 C 
BRANCH  12  13
HETATM   13  O   UNK N   1      32.724  18.454   8.204  0.00  0.00    -0.389 OA
HETATM   14  H   UNK N   1      33.565  18.927   8.303  0.00  0.00     0.210 HD
ENDBRANCH  12  13
BRANCH  12  15
HETATM   15  C   UNK N   1      32.628  16.061   8.625  0.00  0.00     0.256 C 
HETATM   16  N   UNK N   1      32.612  14.814   7.806  0.00  0.00     0.096 N 
HETATM   17  C   UNK N   1      33.060  13.685   8.651  0.00  0.00     0.282 C 
HETATM   18  C   UNK N   1      33.549  14.904   6.663  0.00  0.00     0.273 C 
HETATM   19  C   UNK N   1      34.531  13.871   9.101  0.00  0.00     0.040 C 
HETATM   20  C   UNK N   1      35.027  15.258   8.656  0.00  0.00    -0.001 C 
HETATM   21  C   UNK N   1      34.061  16.336   9.151  0.00  0.00     0.044 C 
HETATM   22  C   UNK N   1      34.975  15.276   7.128  0.00  0.00     0.035 C 
BRANCH  19  23
HETATM   23  C   UNK N   1      34.662  13.659  10.572  0.00  0.00    -0.030 C 
HETATM   24  C   UNK N   1      35.869  13.674  11.133  0.00  0.00     0.007 C 
ENDBRANCH  19  23
ENDBRANCH  12  15
ENDBRANCH   3  12
BRANCH  10  25
HETATM   25  O   UNK N   1      29.711  16.696   3.295  0.00  0.00    -0.356 OA
HETATM   26  C   UNK N   1      29.370  15.496   2.715  0.00  0.00     0.210 C 
ENDBRANCH  10  25
TORSDOF 5
ENDMDL
