REMARK  5 active torsions:
REMARK  status: ('A' for Active; 'I' for Inactive)
REMARK    1  A    between atoms: C_13  and  O_1 
REMARK    2  A    between atoms: O_2  and  C_23 
REMARK    3  A    between atoms: C_7  and  C_13 
REMARK    4  A    between atoms: C_9  and  C_14 
REMARK    5  A    between atoms: C_13  and  C_15 
ROOT
HETATM    1  N   UNK N   1       6.143   4.185  -0.248  0.00  0.00    -0.365 N 
ATOM      2  HN  UNK N   1       6.072   5.198  -0.162  1.00  0.00     0.165 HD
HETATM    3  C   UNK N   1       6.323   1.407  -0.450  0.00  0.00    -0.014 A 
HETATM    4  C   UNK N   1       7.484   2.190  -0.273  0.00  0.00     0.002 A 
HETATM    5  C   UNK N   1       5.086   2.065  -0.545  0.00  0.00     0.027 A 
HETATM    6  C   UNK N   1       7.367   3.594  -0.162  0.00  0.00     0.043 A 
HETATM    7  C   UNK N   1       8.758   1.604  -0.187  0.00  0.00     0.051 A 
HETATM    8  C   UNK N   1       5.017   3.455  -0.447  0.00  0.00     0.089 A 
HETATM    9  C   UNK N   1       8.501   4.379   0.049  0.00  0.00     0.033 A 
HETATM   10  C   UNK N   1       9.900   2.398   0.011  0.00  0.00     0.069 A 
HETATM   11  C   UNK N   1       9.762   3.783   0.137  0.00  0.00     0.039 A 
ENDROOT
BRANCH   3  12
HETATM   12  C   UNK N   1       6.408  -0.115  -0.469  0.00  0.00     0.185 C 
BRANCH  12  13
HETATM   13  O   UNK N   1       7.044  -0.521   0.707  0.00  0.00    -0.389 OA
HETATM   14  H   UNK N   1       7.020  -1.045   1.523  0.00  0.00     0.210 HD
ENDBRANCH  12  13
BRANCH  12  15
HETATM   15  C   UNK N   1       5.063  -0.883  -0.656  0.00  0.00     0.256 C 
HETATM   16  N   UNK N   1       5.250  -2.363  -0.629  0.00  0.00     0.096 N 
HETATM   17  C   UNK N   1       3.955  -3.010  -0.935  0.00  0.00     0.282 C 
HETATM   18  C   UNK N   1       5.668  -2.832   0.712  0.00  0.00     0.273 C 
HETATM   19  C   UNK N   1       2.902  -2.701   0.158  0.00  0.00     0.040 C 
HETATM   20  C   UNK N   1       3.485  -1.682   1.152  0.00  0.00    -0.001 C 
HETATM   21  C   UNK N   1       4.003  -0.459   0.394  0.00  0.00     0.044 C 
HETATM   22  C   UNK N   1       4.693  -2.348   1.810  0.00  0.00     0.035 C 
BRANCH  19  23
HETATM   23  C   UNK N   1       1.624  -2.237  -0.458  0.00  0.00    -0.030 C 
HETATM   24  C   UNK N   1       0.504  -2.922  -0.243  0.00  0.00     0.007 C 
ENDBRANCH  19  23
ENDBRANCH  12  15
ENDBRANCH   3  12
BRANCH  10  25
HETATM   25  O   UNK N   1      11.139   1.852   0.077  0.00  0.00    -0.356 OA
HETATM   26  C   UNK N   1      11.379   0.507  -0.089  0.00  0.00     0.210 C 
ENDBRANCH  10  25
TORSDOF 5
