REMARK  3 active torsions:
REMARK  status: ('A' for Active; 'I' for Inactive)
REMARK    1  A    between atoms: S_1  and  N_7 
REMARK    2  A    between atoms: S_1  and  C_8 
REMARK    3  A    between atoms: C_8  and  C_9 
ROOT
HETATM    1  O   UNK N   1       3.825  -2.288   0.420  0.00  0.00    -0.237 OA
HETATM    2  N   UNK N   1       4.724  -1.366   0.177  0.00  0.00    -0.263 N 
ATOM      3  HN  UNK N   1       5.733  -1.461   0.293  1.00  0.00     0.194 HD
HETATM    4  C   UNK N   1       4.067  -0.265  -0.256  0.00  0.00     0.061 A 
HETATM    5  C   UNK N   1       2.723  -0.542  -0.273  0.00  0.00     0.025 A 
HETATM    6  C   UNK N   1       2.625  -1.831   0.158  0.00  0.00     0.111 A 
HETATM    7  C   UNK N   1       1.608   0.202  -0.644  0.00  0.00     0.016 A 
HETATM    8  C   UNK N   1       1.403  -2.491   0.249  0.00  0.00     0.040 A 
HETATM    9  C   UNK N   1       0.351  -0.429  -0.560  0.00  0.00     0.001 A 
HETATM   10  C   UNK N   1       0.249  -1.771  -0.119  0.00  0.00     0.003 A 
ENDROOT
BRANCH   4  11
HETATM   11  C   UNK N   1       4.728   1.001  -0.710  0.00  0.00     0.222 C 
BRANCH  11  12
HETATM   12  S   UNK N   1       5.810   1.725   0.561  0.00  0.00     0.229 S 
HETATM   13  O   UNK N   1       5.043   2.814  -0.203  0.00  0.00    -0.206 OA
HETATM   14  O   UNK N   1       6.622   1.034  -0.546  0.00  0.00    -0.206 OA
BRANCH  12  15
HETATM   15  N   UNK N   1       7.086   2.895   0.211  0.00  0.00    -0.328 N 
HETATM   16  H   UNK N   1       8.039   2.594   0.009  0.00  0.00     0.168 HD
HETATM   17  H   UNK N   1       6.864   3.890   0.211  0.00  0.00     0.168 HD
ENDBRANCH  12  15
ENDBRANCH  11  12
ENDBRANCH   4  11
TORSDOF 3
