MODEL 1
REMARK VINA RESULT:      -5.5      0.000      0.000
REMARK  3 active torsions:
REMARK  status: ('A' for Active; 'I' for Inactive)
REMARK    1  A    between atoms: S_1  and  N_7 
REMARK    2  A    between atoms: S_1  and  C_8 
REMARK    3  A    between atoms: C_8  and  C_9 
ROOT
HETATM    1  O   UNK N   1      31.262  16.535   8.288  0.00  0.00    -0.237 OA
HETATM    2  N   UNK N   1      32.269  16.654   9.119  0.00  0.00    -0.263 N 
ATOM      3  HN  UNK N   1      32.250  16.469  10.122  1.00  0.00     0.194 HD
HETATM    4  C   UNK N   1      33.338  17.069   8.400  0.00  0.00     0.061 A 
HETATM    5  C   UNK N   1      32.954  17.201   7.090  0.00  0.00     0.025 A 
HETATM    6  C   UNK N   1      31.638  16.848   7.073  0.00  0.00     0.111 A 
HETATM    7  C   UNK N   1      33.637  17.568   5.935  0.00  0.00     0.016 A 
HETATM    8  C   UNK N   1      30.892  16.826   5.898  0.00  0.00     0.040 A 
HETATM    9  C   UNK N   1      32.915  17.564   4.726  0.00  0.00     0.001 A 
HETATM   10  C   UNK N   1      31.549  17.191   4.706  0.00  0.00     0.003 A 
ENDROOT
BRANCH   4  11
HETATM   11  C   UNK N   1      34.716  17.265   8.956  0.00  0.00     0.222 C 
BRANCH  11  12
HETATM   12  S   UNK N   1      34.994  16.335  10.495  0.00  0.00     0.229 S 
HETATM   13  O   UNK N   1      35.905  17.568  10.417  0.00  0.00    -0.206 OA
HETATM   14  O   UNK N   1      35.410  15.521   9.259  0.00  0.00    -0.206 OA
BRANCH  12  15
HETATM   15  N   UNK N   1      36.558  15.664  10.966  0.00  0.00    -0.328 N 
HETATM   16  H   UNK N   1      36.651  14.691  11.254  0.00  0.00     0.168 HD
HETATM   17  H   UNK N   1      37.383  16.263  10.948  0.00  0.00     0.168 HD
ENDBRANCH  12  15
ENDBRANCH  11  12
ENDBRANCH   4  11
TORSDOF 3
ENDMDL
MODEL 2
REMARK VINA RESULT:      -5.5      2.328      3.415
REMARK  3 active torsions:
REMARK  status: ('A' for Active; 'I' for Inactive)
REMARK    1  A    between atoms: S_1  and  N_7 
REMARK    2  A    between atoms: S_1  and  C_8 
REMARK    3  A    between atoms: C_8  and  C_9 
ROOT
HETATM    1  O   UNK N   1      35.311  17.895   9.779  0.00  0.00    -0.237 OA
HETATM    2  N   UNK N   1      35.567  16.987  10.688  0.00  0.00    -0.263 N 
ATOM      3  HN  UNK N   1      36.231  17.074  11.458  1.00  0.00     0.194 HD
HETATM    4  C   UNK N   1      34.789  15.913  10.418  0.00  0.00     0.061 A 
HETATM    5  C   UNK N   1      34.038  16.193   9.304  0.00  0.00     0.025 A 
HETATM    6  C   UNK N   1      34.402  17.455   8.943  0.00  0.00     0.111 A 
HETATM    7  C   UNK N   1      33.073  15.473   8.608  0.00  0.00     0.016 A 
HETATM    8  C   UNK N   1      33.827  18.111   7.858  0.00  0.00     0.040 A 
HETATM    9  C   UNK N   1      32.471  16.100   7.499  0.00  0.00     0.001 A 
HETATM   10  C   UNK N   1      32.844  17.415   7.128  0.00  0.00     0.003 A 
ENDROOT
BRANCH   4  11
HETATM   11  C   UNK N   1      34.721  14.674  11.258  0.00  0.00     0.222 C 
BRANCH  11  12
HETATM   12  S   UNK N   1      35.931  14.678  12.617  0.00  0.00     0.229 S 
HETATM   13  O   UNK N   1      36.580  14.242  11.295  0.00  0.00    -0.206 OA
HETATM   14  O   UNK N   1      34.841  13.616  12.833  0.00  0.00    -0.206 OA
BRANCH  12  15
HETATM   15  N   UNK N   1      36.852  13.255  13.113  0.00  0.00    -0.328 N 
HETATM   16  H   UNK N   1      36.734  12.358  12.643  0.00  0.00     0.168 HD
HETATM   17  H   UNK N   1      37.514  13.333  13.885  0.00  0.00     0.168 HD
ENDBRANCH  12  15
ENDBRANCH  11  12
ENDBRANCH   4  11
TORSDOF 3
ENDMDL
MODEL 3
REMARK VINA RESULT:      -5.4     12.061     13.250
REMARK  3 active torsions:
REMARK  status: ('A' for Active; 'I' for Inactive)
REMARK    1  A    between atoms: S_1  and  N_7 
REMARK    2  A    between atoms: S_1  and  C_8 
REMARK    3  A    between atoms: C_8  and  C_9 
ROOT
HETATM    1  O   UNK N   1      20.967  12.281  11.519  0.00  0.00    -0.237 OA
HETATM    2  N   UNK N   1      20.230  12.875  10.613  0.00  0.00    -0.263 N 
ATOM      3  HN  UNK N   1      19.216  12.988  10.637  1.00  0.00     0.194 HD
HETATM    4  C   UNK N   1      21.061  13.312   9.638  0.00  0.00     0.061 A 
HETATM    5  C   UNK N   1      22.345  12.966   9.978  0.00  0.00     0.025 A 
HETATM    6  C   UNK N   1      22.230  12.322  11.173  0.00  0.00     0.111 A 
HETATM    7  C   UNK N   1      23.576  13.177   9.365  0.00  0.00     0.016 A 
HETATM    8  C   UNK N   1      23.338  11.839  11.864  0.00  0.00     0.040 A 
HETATM    9  C   UNK N   1      24.721  12.698  10.031  0.00  0.00     0.001 A 
HETATM   10  C   UNK N   1      24.603  12.035  11.277  0.00  0.00     0.003 A 
ENDROOT
BRANCH   4  11
HETATM   11  C   UNK N   1      20.633  14.107   8.443  0.00  0.00     0.222 C 
BRANCH  11  12
HETATM   12  S   UNK N   1      20.491  15.887   8.795  0.00  0.00     0.229 S 
HETATM   13  O   UNK N   1      19.247  15.124   9.273  0.00  0.00    -0.206 OA
HETATM   14  O   UNK N   1      20.506  15.609   7.283  0.00  0.00    -0.206 OA
BRANCH  12  15
HETATM   15  N   UNK N   1      19.182  16.905   8.188  0.00  0.00    -0.328 N 
HETATM   16  H   UNK N   1      18.219  16.570   8.163  0.00  0.00     0.168 HD
HETATM   17  H   UNK N   1      19.394  17.846   7.857  0.00  0.00     0.168 HD
ENDBRANCH  12  15
ENDBRANCH  11  12
ENDBRANCH   4  11
TORSDOF 3
ENDMDL
MODEL 4
REMARK VINA RESULT:      -5.4      8.558     10.681
REMARK  3 active torsions:
REMARK  status: ('A' for Active; 'I' for Inactive)
REMARK    1  A    between atoms: S_1  and  N_7 
REMARK    2  A    between atoms: S_1  and  C_8 
REMARK    3  A    between atoms: C_8  and  C_9 
ROOT
HETATM    1  O   UNK N   1      35.845   9.982  16.803  0.00  0.00    -0.237 OA
HETATM    2  N   UNK N   1      35.673  10.351  15.557  0.00  0.00    -0.263 N 
ATOM      3  HN  UNK N   1      35.765   9.757  14.733  1.00  0.00     0.194 HD
HETATM    4  C   UNK N   1      35.354  11.666  15.565  0.00  0.00     0.061 A 
HETATM    5  C   UNK N   1      35.332  12.098  16.868  0.00  0.00     0.025 A 
HETATM    6  C   UNK N   1      35.645  10.997  17.608  0.00  0.00     0.111 A 
HETATM    7  C   UNK N   1      35.049  13.327  17.453  0.00  0.00     0.016 A 
HETATM    8  C   UNK N   1      35.694  11.028  18.998  0.00  0.00     0.040 A 
HETATM    9  C   UNK N   1      35.094  13.401  18.859  0.00  0.00     0.001 A 
HETATM   10  C   UNK N   1      35.411  12.255  19.629  0.00  0.00     0.003 A 
ENDROOT
BRANCH   4  11
HETATM   11  C   UNK N   1      35.008  12.469  14.348  0.00  0.00     0.222 C 
BRANCH  11  12
HETATM   12  S   UNK N   1      36.276  13.707  13.938  0.00  0.00     0.229 S 
HETATM   13  O   UNK N   1      35.027  13.880  13.062  0.00  0.00    -0.206 OA
HETATM   14  O   UNK N   1      36.744  12.284  13.596  0.00  0.00    -0.206 OA
BRANCH  12  15
HETATM   15  N   UNK N   1      36.979  13.893  12.329  0.00  0.00    -0.328 N 
HETATM   16  H   UNK N   1      36.496  13.554  11.497  0.00  0.00     0.168 HD
HETATM   17  H   UNK N   1      37.886  14.349  12.230  0.00  0.00     0.168 HD
ENDBRANCH  12  15
ENDBRANCH  11  12
ENDBRANCH   4  11
TORSDOF 3
ENDMDL
MODEL 5
REMARK VINA RESULT:      -5.3      9.738     11.738
REMARK  3 active torsions:
REMARK  status: ('A' for Active; 'I' for Inactive)
REMARK    1  A    between atoms: S_1  and  N_7 
REMARK    2  A    between atoms: S_1  and  C_8 
REMARK    3  A    between atoms: C_8  and  C_9 
ROOT
HETATM    1  O   UNK N   1      35.550  13.171  19.711  0.00  0.00    -0.237 OA
HETATM    2  N   UNK N   1      35.281  13.856  18.626  0.00  0.00    -0.263 N 
ATOM      3  HN  UNK N   1      35.238  14.872  18.549  1.00  0.00     0.194 HD
HETATM    4  C   UNK N   1      35.071  12.967  17.628  0.00  0.00     0.061 A 
HETATM    5  C   UNK N   1      35.221  11.701  18.137  0.00  0.00     0.025 A 
HETATM    6  C   UNK N   1      35.527  11.886  19.452  0.00  0.00     0.111 A 
HETATM    7  C   UNK N   1      35.141  10.436  17.566  0.00  0.00     0.016 A 
HETATM    8  C   UNK N   1      35.786  10.821  20.309  0.00  0.00     0.040 A 
HETATM    9  C   UNK N   1      35.391   9.330  18.403  0.00  0.00     0.001 A 
HETATM   10  C   UNK N   1      35.716   9.522  19.768  0.00  0.00     0.003 A 
ENDROOT
BRANCH   4  11
HETATM   11  C   UNK N   1      34.800  13.333  16.200  0.00  0.00     0.222 C 
BRANCH  11  12
HETATM   12  S   UNK N   1      36.220  13.010  15.110  0.00  0.00     0.229 S 
HETATM   13  O   UNK N   1      36.477  14.226  16.012  0.00  0.00    -0.206 OA
HETATM   14  O   UNK N   1      34.977  13.431  14.310  0.00  0.00    -0.206 OA
BRANCH  12  15
HETATM   15  N   UNK N   1      36.863  14.189  13.963  0.00  0.00    -0.328 N 
HETATM   16  H   UNK N   1      36.574  14.189  12.985  0.00  0.00     0.168 HD
HETATM   17  H   UNK N   1      37.536  14.884  14.286  0.00  0.00     0.168 HD
ENDBRANCH  12  15
ENDBRANCH  11  12
ENDBRANCH   4  11
TORSDOF 3
ENDMDL
MODEL 6
REMARK VINA RESULT:      -5.2     11.322     13.061
REMARK  3 active torsions:
REMARK  status: ('A' for Active; 'I' for Inactive)
REMARK    1  A    between atoms: S_1  and  N_7 
REMARK    2  A    between atoms: S_1  and  C_8 
REMARK    3  A    between atoms: C_8  and  C_9 
ROOT
HETATM    1  O   UNK N   1      23.290  21.295   2.712  0.00  0.00    -0.237 OA
HETATM    2  N   UNK N   1      22.036  20.929   2.808  0.00  0.00    -0.263 N 
ATOM      3  HN  UNK N   1      21.223  21.478   2.527  1.00  0.00     0.194 HD
HETATM    4  C   UNK N   1      22.017  19.688   3.348  0.00  0.00     0.061 A 
HETATM    5  C   UNK N   1      23.312  19.298   3.582  0.00  0.00     0.025 A 
HETATM    6  C   UNK N   1      24.075  20.345   3.160  0.00  0.00     0.111 A 
HETATM    7  C   UNK N   1      23.871  18.133   4.095  0.00  0.00     0.016 A 
HETATM    8  C   UNK N   1      25.466  20.316   3.208  0.00  0.00     0.040 A 
HETATM    9  C   UNK N   1      25.277  18.066   4.166  0.00  0.00     0.001 A 
HETATM   10  C   UNK N   1      26.071  19.151   3.721  0.00  0.00     0.003 A 
ENDROOT
BRANCH   4  11
HETATM   11  C   UNK N   1      20.780  18.870   3.566  0.00  0.00     0.222 C 
BRANCH  11  12
HETATM   12  S   UNK N   1      20.583  17.549   2.330  0.00  0.00     0.229 S 
HETATM   13  O   UNK N   1      20.418  18.937   1.693  0.00  0.00    -0.206 OA
HETATM   14  O   UNK N   1      19.460  17.515   3.378  0.00  0.00    -0.206 OA
BRANCH  12  15
HETATM   15  N   UNK N   1      19.129  17.332   1.351  0.00  0.00    -0.328 N 
HETATM   16  H   UNK N   1      18.279  16.933   1.748  0.00  0.00     0.168 HD
HETATM   17  H   UNK N   1      19.141  17.612   0.371  0.00  0.00     0.168 HD
ENDBRANCH  12  15
ENDBRANCH  11  12
ENDBRANCH   4  11
TORSDOF 3
ENDMDL
MODEL 7
REMARK VINA RESULT:      -5.1      5.876      7.897
REMARK  3 active torsions:
REMARK  status: ('A' for Active; 'I' for Inactive)
REMARK    1  A    between atoms: S_1  and  N_7 
REMARK    2  A    between atoms: S_1  and  C_8 
REMARK    3  A    between atoms: C_8  and  C_9 
ROOT
HETATM    1  O   UNK N   1      34.343  11.663  12.668  0.00  0.00    -0.237 OA
HETATM    2  N   UNK N   1      34.778  12.595  11.856  0.00  0.00    -0.263 N 
ATOM      3  HN  UNK N   1      34.623  12.640  10.849  1.00  0.00     0.194 HD
HETATM    4  C   UNK N   1      35.471  13.487  12.601  0.00  0.00     0.061 A 
HETATM    5  C   UNK N   1      35.447  13.071  13.909  0.00  0.00     0.025 A 
HETATM    6  C   UNK N   1      34.720  11.919  13.896  0.00  0.00     0.111 A 
HETATM    7  C   UNK N   1      35.969  13.606  15.082  0.00  0.00     0.016 A 
HETATM    8  C   UNK N   1      34.445  11.204  15.059  0.00  0.00     0.040 A 
HETATM    9  C   UNK N   1      35.717  12.908  16.280  0.00  0.00     0.001 A 
HETATM   10  C   UNK N   1      34.956  11.714  16.269  0.00  0.00     0.003 A 
ENDROOT
BRANCH   4  11
HETATM   11  C   UNK N   1      36.082  14.750  12.072  0.00  0.00     0.222 C 
BRANCH  11  12
HETATM   12  S   UNK N   1      35.362  15.269  10.484  0.00  0.00     0.229 S 
HETATM   13  O   UNK N   1      36.487  16.218  10.922  0.00  0.00    -0.206 OA
HETATM   14  O   UNK N   1      34.346  15.387  11.632  0.00  0.00    -0.206 OA
BRANCH  12  15
HETATM   15  N   UNK N   1      34.632  16.854  10.211  0.00  0.00    -0.328 N 
HETATM   16  H   UNK N   1      34.959  17.465   9.463  0.00  0.00     0.168 HD
HETATM   17  H   UNK N   1      33.869  17.162  10.813  0.00  0.00     0.168 HD
ENDBRANCH  12  15
ENDBRANCH  11  12
ENDBRANCH   4  11
TORSDOF 3
ENDMDL
MODEL 8
REMARK VINA RESULT:      -5.1     18.197     19.118
REMARK  3 active torsions:
REMARK  status: ('A' for Active; 'I' for Inactive)
REMARK    1  A    between atoms: S_1  and  N_7 
REMARK    2  A    between atoms: S_1  and  C_8 
REMARK    3  A    between atoms: C_8  and  C_9 
ROOT
HETATM    1  O   UNK N   1      27.839  28.199  -7.212  0.00  0.00    -0.237 OA
HETATM    2  N   UNK N   1      27.149  27.092  -7.333  0.00  0.00    -0.263 N 
ATOM      3  HN  UNK N   1      27.234  26.407  -8.084  1.00  0.00     0.194 HD
HETATM    4  C   UNK N   1      26.303  27.025  -6.279  0.00  0.00     0.061 A 
HETATM    5  C   UNK N   1      26.498  28.136  -5.497  0.00  0.00     0.025 A 
HETATM    6  C   UNK N   1      27.479  28.841  -6.127  0.00  0.00     0.111 A 
HETATM    7  C   UNK N   1      25.928  28.564  -4.303  0.00  0.00     0.016 A 
HETATM    8  C   UNK N   1      27.980  30.034  -5.614  0.00  0.00     0.040 A 
HETATM    9  C   UNK N   1      26.404  29.771  -3.754  0.00  0.00     0.001 A 
HETATM   10  C   UNK N   1      27.429  30.501  -4.405  0.00  0.00     0.003 A 
ENDROOT
BRANCH   4  11
HETATM   11  C   UNK N   1      25.379  25.879  -5.997  0.00  0.00     0.222 C 
BRANCH  11  12
HETATM   12  S   UNK N   1      26.170  24.260  -6.244  0.00  0.00     0.229 S 
HETATM   13  O   UNK N   1      25.353  24.674  -7.476  0.00  0.00    -0.206 OA
HETATM   14  O   UNK N   1      25.112  24.208  -5.130  0.00  0.00    -0.206 OA
BRANCH  12  15
HETATM   15  N   UNK N   1      25.278  22.779  -6.608  0.00  0.00    -0.328 N 
HETATM   16  H   UNK N   1      25.456  21.915  -6.096  0.00  0.00     0.168 HD
HETATM   17  H   UNK N   1      24.573  22.790  -7.343  0.00  0.00     0.168 HD
ENDBRANCH  12  15
ENDBRANCH  11  12
ENDBRANCH   4  11
TORSDOF 3
ENDMDL
MODEL 9
REMARK VINA RESULT:      -5.1     16.883     18.312
REMARK  3 active torsions:
REMARK  status: ('A' for Active; 'I' for Inactive)
REMARK    1  A    between atoms: S_1  and  N_7 
REMARK    2  A    between atoms: S_1  and  C_8 
REMARK    3  A    between atoms: C_8  and  C_9 
ROOT
HETATM    1  O   UNK N   1      27.790  24.777  -4.767  0.00  0.00    -0.237 OA
HETATM    2  N   UNK N   1      27.445  24.095  -5.832  0.00  0.00    -0.263 N 
ATOM      3  HN  UNK N   1      27.891  23.245  -6.175  1.00  0.00     0.194 HD
HETATM    4  C   UNK N   1      26.388  24.728  -6.393  0.00  0.00     0.061 A 
HETATM    5  C   UNK N   1      26.090  25.830  -5.631  0.00  0.00     0.025 A 
HETATM    6  C   UNK N   1      27.000  25.813  -4.617  0.00  0.00     0.111 A 
HETATM    7  C   UNK N   1      25.107  26.809  -5.727  0.00  0.00     0.016 A 
HETATM    8  C   UNK N   1      27.002  26.769  -3.606  0.00  0.00     0.040 A 
HETATM    9  C   UNK N   1      25.078  27.799  -4.726  0.00  0.00     0.001 A 
HETATM   10  C   UNK N   1      26.020  27.778  -3.668  0.00  0.00     0.003 A 
ENDROOT
BRANCH   4  11
HETATM   11  C   UNK N   1      25.640  24.239  -7.596  0.00  0.00     0.222 C 
BRANCH  11  12
HETATM   12  S   UNK N   1      25.532  22.425  -7.668  0.00  0.00     0.229 S 
HETATM   13  O   UNK N   1      24.656  23.078  -8.747  0.00  0.00    -0.206 OA
HETATM   14  O   UNK N   1      24.938  22.975  -6.362  0.00  0.00    -0.206 OA
BRANCH  12  15
HETATM   15  N   UNK N   1      24.020  21.526  -7.507  0.00  0.00    -0.328 N 
HETATM   16  H   UNK N   1      23.710  20.878  -8.231  0.00  0.00     0.168 HD
HETATM   17  H   UNK N   1      23.449  21.657  -6.673  0.00  0.00     0.168 HD
ENDBRANCH  12  15
ENDBRANCH  11  12
ENDBRANCH   4  11
TORSDOF 3
ENDMDL
