MODEL 1
REMARK VINA RESULT:      -7.8      0.000      0.000
REMARK  8 active torsions:
REMARK  status: ('A' for Active; 'I' for Inactive)
REMARK    1  A    between atoms: O_1  and  C_22 
REMARK    2  A    between atoms: C_26  and  O_2 
REMARK    3  A    between atoms: C_27  and  O_3 
REMARK    4  A    between atoms: C_5  and  C_10 
REMARK    5  A    between atoms: C_10  and  C_16 
REMARK    6  A    between atoms: C_17  and  C_19 
REMARK    7  A    between atoms: C_18  and  C_20 
REMARK    8  A    between atoms: C_20  and  C_22 
ROOT
HETATM    1  C   UNK N   1      36.133  10.693  14.268  0.00  0.00    -0.032 C 
HETATM    2  C   UNK N   1      35.612  10.188  12.906  0.00  0.00     0.002 C 
HETATM    3  C   UNK N   1      34.987  10.227  15.174  0.00  0.00     0.023 C 
HETATM    4  C   UNK N   1      34.127  10.566  12.940  0.00  0.00     0.007 C 
HETATM    5  C   UNK N   1      33.739  10.646  14.414  0.00  0.00     0.010 C 
HETATM    6  C   UNK N   1      36.262  12.237  14.326  0.00  0.00     0.010 C 
HETATM    7  C   UNK N   1      35.041  10.843  16.543  0.00  0.00    -0.075 C 
HETATM    8  C   UNK N   1      37.463  10.055  14.663  0.00  0.00     0.016 C 
HETATM    9  C   UNK N   1      36.447  12.731  15.772  0.00  0.00     0.005 C 
HETATM   10  C   UNK N   1      35.240  12.339  16.626  0.00  0.00     0.034 C 
HETATM   11  C   UNK N   1      34.884  10.045  17.608  0.00  0.00     0.003 C 
ENDROOT
BRANCH  11  12
HETATM   12  C   UNK N   1      34.829  10.486  19.013  0.00  0.00     0.003 C 
HETATM   13  C   UNK N   1      34.205   9.735  19.931  0.00  0.00    -0.075 C 
HETATM   14  C   UNK N   1      33.514   8.450  19.567  0.00  0.00     0.066 C 
HETATM   15  C   UNK N   1      34.082  10.201  21.348  0.00  0.00     0.066 C 
HETATM   16  C   UNK N   1      32.039   8.571  19.939  0.00  0.00     0.124 C 
HETATM   17  C   UNK N   1      31.898   8.925  21.422  0.00  0.00     0.064 C 
HETATM   18  C   UNK N   1      32.596  10.257  21.719  0.00  0.00     0.124 C 
BRANCH  16  19
HETATM   19  O   UNK N   1      31.388   7.368  19.676  0.00  0.00    -0.395 OA
HETATM   20  H   UNK N   1      30.802   7.192  18.923  0.00  0.00     0.210 HD
ENDBRANCH  16  19
BRANCH  18  21
HETATM   21  O   UNK N   1      32.462  10.558  23.073  0.00  0.00    -0.395 OA
HETATM   22  H   UNK N   1      31.592  10.755  23.454  0.00  0.00     0.210 HD
ENDBRANCH  18  21
ENDBRANCH  11  12
BRANCH   2  23
HETATM   23  C   UNK N   1      36.284  10.705  11.610  0.00  0.00     0.008 C 
HETATM   24  C   UNK N   1      36.559   9.583  10.625  0.00  0.00     0.014 C 
BRANCH  23  25
HETATM   25  C   UNK N   1      35.389  11.694  10.905  0.00  0.00    -0.026 C 
HETATM   26  C   UNK N   1      35.840  12.847  10.405  0.00  0.00    -0.023 C 
BRANCH  26  27
HETATM   27  C   UNK N   1      34.906  13.853   9.792  0.00  0.00     0.037 C 
HETATM   28  C   UNK N   1      33.640  13.123   9.364  0.00  0.00     0.017 C 
BRANCH  27  29
HETATM   29  C   UNK N   1      34.587  15.058  10.701  0.00  0.00     0.057 C 
HETATM   30  C   UNK N   1      35.534  15.118  11.888  0.00  0.00     0.046 C 
HETATM   31  C   UNK N   1      34.757  16.354   9.926  0.00  0.00     0.046 C 
BRANCH  29  32
HETATM   32  O   UNK N   1      33.274  14.978  11.170  0.00  0.00    -0.390 OA
HETATM   33  H   UNK N   1      32.391  14.667  11.425  0.00  0.00     0.210 HD
ENDBRANCH  29  32
ENDBRANCH  27  29
ENDBRANCH  26  27
ENDBRANCH  23  25
ENDBRANCH   2  23
TORSDOF 8
ENDMDL
MODEL 2
REMARK VINA RESULT:      -7.7      3.838     11.350
REMARK  8 active torsions:
REMARK  status: ('A' for Active; 'I' for Inactive)
REMARK    1  A    between atoms: O_1  and  C_22 
REMARK    2  A    between atoms: C_26  and  O_2 
REMARK    3  A    between atoms: C_27  and  O_3 
REMARK    4  A    between atoms: C_5  and  C_10 
REMARK    5  A    between atoms: C_10  and  C_16 
REMARK    6  A    between atoms: C_17  and  C_19 
REMARK    7  A    between atoms: C_18  and  C_20 
REMARK    8  A    between atoms: C_20  and  C_22 
ROOT
HETATM    1  C   UNK N   1      35.429  14.281   9.802  0.00  0.00    -0.032 C 
HETATM    2  C   UNK N   1      36.418  14.313  10.986  0.00  0.00     0.002 C 
HETATM    3  C   UNK N   1      35.358  15.778   9.481  0.00  0.00     0.023 C 
HETATM    4  C   UNK N   1      35.931  15.507  11.814  0.00  0.00     0.007 C 
HETATM    5  C   UNK N   1      35.194  16.428  10.846  0.00  0.00     0.010 C 
HETATM    6  C   UNK N   1      34.027  13.757  10.206  0.00  0.00     0.010 C 
HETATM    7  C   UNK N   1      34.224  16.122   8.558  0.00  0.00    -0.075 C 
HETATM    8  C   UNK N   1      35.953  13.472   8.618  0.00  0.00     0.016 C 
HETATM    9  C   UNK N   1      32.981  14.054   9.117  0.00  0.00     0.005 C 
HETATM   10  C   UNK N   1      32.860  15.562   8.892  0.00  0.00     0.034 C 
HETATM   11  C   UNK N   1      34.472  16.923   7.513  0.00  0.00     0.003 C 
ENDROOT
BRANCH  11  12
HETATM   12  C   UNK N   1      33.470  17.425   6.557  0.00  0.00     0.003 C 
HETATM   13  C   UNK N   1      33.025  16.633   5.571  0.00  0.00    -0.075 C 
HETATM   14  C   UNK N   1      33.547  15.235   5.379  0.00  0.00     0.066 C 
HETATM   15  C   UNK N   1      32.058  17.149   4.551  0.00  0.00     0.066 C 
HETATM   16  C   UNK N   1      34.169  15.137   3.989  0.00  0.00     0.124 C 
HETATM   17  C   UNK N   1      33.146  15.543   2.925  0.00  0.00     0.064 C 
HETATM   18  C   UNK N   1      32.679  16.984   3.159  0.00  0.00     0.124 C 
BRANCH  16  19
HETATM   19  O   UNK N   1      34.598  13.832   3.759  0.00  0.00    -0.395 OA
HETATM   20  H   UNK N   1      34.991  13.500   2.935  0.00  0.00     0.210 HD
ENDBRANCH  16  19
BRANCH  18  21
HETATM   21  O   UNK N   1      31.744  17.332   2.185  0.00  0.00    -0.395 OA
HETATM   22  H   UNK N   1      31.498  16.704   1.487  0.00  0.00     0.210 HD
ENDBRANCH  18  21
ENDBRANCH  11  12
BRANCH   2  23
HETATM   23  C   UNK N   1      36.568  13.051  11.870  0.00  0.00     0.008 C 
HETATM   24  C   UNK N   1      37.729  12.179  11.426  0.00  0.00     0.014 C 
BRANCH  23  25
HETATM   25  C   UNK N   1      36.836  13.435  13.304  0.00  0.00    -0.026 C 
HETATM   26  C   UNK N   1      36.289  12.791  14.338  0.00  0.00    -0.023 C 
BRANCH  26  27
HETATM   27  C   UNK N   1      36.501  13.257  15.752  0.00  0.00     0.037 C 
HETATM   28  C   UNK N   1      36.928  14.718  15.708  0.00  0.00     0.017 C 
BRANCH  27  29
HETATM   29  C   UNK N   1      35.284  13.048  16.677  0.00  0.00     0.057 C 
HETATM   30  C   UNK N   1      35.277  11.651  17.272  0.00  0.00     0.046 C 
HETATM   31  C   UNK N   1      35.336  14.029  17.836  0.00  0.00     0.046 C 
BRANCH  29  32
HETATM   32  O   UNK N   1      34.097  13.247  15.967  0.00  0.00    -0.390 OA
HETATM   33  H   UNK N   1      33.189  13.187  15.631  0.00  0.00     0.210 HD
ENDBRANCH  29  32
ENDBRANCH  27  29
ENDBRANCH  26  27
ENDBRANCH  23  25
ENDBRANCH   2  23
TORSDOF 8
ENDMDL
MODEL 3
REMARK VINA RESULT:      -7.5     10.967     15.982
REMARK  8 active torsions:
REMARK  status: ('A' for Active; 'I' for Inactive)
REMARK    1  A    between atoms: O_1  and  C_22 
REMARK    2  A    between atoms: C_26  and  O_2 
REMARK    3  A    between atoms: C_27  and  O_3 
REMARK    4  A    between atoms: C_5  and  C_10 
REMARK    5  A    between atoms: C_10  and  C_16 
REMARK    6  A    between atoms: C_17  and  C_19 
REMARK    7  A    between atoms: C_18  and  C_20 
REMARK    8  A    between atoms: C_20  and  C_22 
ROOT
HETATM    1  C   UNK N   1      27.467  18.972   6.281  0.00  0.00    -0.032 C 
HETATM    2  C   UNK N   1      28.206  18.080   7.301  0.00  0.00     0.002 C 
HETATM    3  C   UNK N   1      26.254  18.081   5.987  0.00  0.00     0.023 C 
HETATM    4  C   UNK N   1      28.099  16.682   6.682  0.00  0.00     0.007 C 
HETATM    5  C   UNK N   1      26.864  16.704   5.785  0.00  0.00     0.010 C 
HETATM    6  C   UNK N   1      28.283  19.204   4.984  0.00  0.00     0.010 C 
HETATM    7  C   UNK N   1      25.480  18.532   4.781  0.00  0.00    -0.075 C 
HETATM    8  C   UNK N   1      27.052  20.319   6.869  0.00  0.00     0.016 C 
HETATM    9  C   UNK N   1      27.405  19.793   3.866  0.00  0.00     0.005 C 
HETATM   10  C   UNK N   1      26.263  18.834   3.524  0.00  0.00     0.034 C 
HETATM   11  C   UNK N   1      24.146  18.615   4.874  0.00  0.00     0.003 C 
ENDROOT
BRANCH  11  12
HETATM   12  C   UNK N   1      23.227  18.961   3.775  0.00  0.00     0.003 C 
HETATM   13  C   UNK N   1      21.909  18.756   3.910  0.00  0.00    -0.075 C 
HETATM   14  C   UNK N   1      21.325  18.141   5.152  0.00  0.00     0.066 C 
HETATM   15  C   UNK N   1      20.971  19.038   2.778  0.00  0.00     0.066 C 
HETATM   16  C   UNK N   1      20.596  16.859   4.760  0.00  0.00     0.124 C 
HETATM   17  C   UNK N   1      19.542  17.158   3.691  0.00  0.00     0.064 C 
HETATM   18  C   UNK N   1      20.205  17.753   2.443  0.00  0.00     0.124 C 
BRANCH  16  19
HETATM   19  O   UNK N   1      19.985  16.306   5.884  0.00  0.00    -0.395 OA
HETATM   20  H   UNK N   1      20.242  16.464   6.806  0.00  0.00     0.210 HD
ENDBRANCH  16  19
BRANCH  18  21
HETATM   21  O   UNK N   1      19.231  18.024   1.485  0.00  0.00    -0.395 OA
HETATM   22  H   UNK N   1      19.243  17.577   0.623  0.00  0.00     0.210 HD
ENDBRANCH  18  21
ENDBRANCH  11  12
BRANCH   2  23
HETATM   23  C   UNK N   1      29.674  18.415   7.661  0.00  0.00     0.008 C 
HETATM   24  C   UNK N   1      29.857  18.644   9.150  0.00  0.00     0.014 C 
BRANCH  23  25
HETATM   25  C   UNK N   1      30.588  17.276   7.281  0.00  0.00    -0.026 C 
HETATM   26  C   UNK N   1      31.900  17.289   7.531  0.00  0.00    -0.023 C 
BRANCH  26  27
HETATM   27  C   UNK N   1      32.797  16.181   7.055  0.00  0.00     0.037 C 
HETATM   28  C   UNK N   1      31.920  15.063   6.508  0.00  0.00     0.017 C 
BRANCH  27  29
HETATM   29  C   UNK N   1      33.859  16.624   6.026  0.00  0.00     0.057 C 
HETATM   30  C   UNK N   1      34.894  15.537   5.799  0.00  0.00     0.046 C 
HETATM   31  C   UNK N   1      33.200  16.903   4.686  0.00  0.00     0.046 C 
BRANCH  29  32
HETATM   32  O   UNK N   1      34.503  17.783   6.465  0.00  0.00    -0.390 OA
HETATM   33  H   UNK N   1      35.090  18.551   6.547  0.00  0.00     0.210 HD
ENDBRANCH  29  32
ENDBRANCH  27  29
ENDBRANCH  26  27
ENDBRANCH  23  25
ENDBRANCH   2  23
TORSDOF 8
ENDMDL
MODEL 4
REMARK VINA RESULT:      -7.5      3.610     10.239
REMARK  8 active torsions:
REMARK  status: ('A' for Active; 'I' for Inactive)
REMARK    1  A    between atoms: O_1  and  C_22 
REMARK    2  A    between atoms: C_26  and  O_2 
REMARK    3  A    between atoms: C_27  and  O_3 
REMARK    4  A    between atoms: C_5  and  C_10 
REMARK    5  A    between atoms: C_10  and  C_16 
REMARK    6  A    between atoms: C_17  and  C_19 
REMARK    7  A    between atoms: C_18  and  C_20 
REMARK    8  A    between atoms: C_20  and  C_22 
ROOT
HETATM    1  C   UNK N   1      35.251  14.273   9.124  0.00  0.00    -0.032 C 
HETATM    2  C   UNK N   1      36.286  14.520  10.241  0.00  0.00     0.002 C 
HETATM    3  C   UNK N   1      34.509  15.614   9.156  0.00  0.00     0.023 C 
HETATM    4  C   UNK N   1      35.458  15.196  11.339  0.00  0.00     0.007 C 
HETATM    5  C   UNK N   1      34.274  15.856  10.638  0.00  0.00     0.010 C 
HETATM    6  C   UNK N   1      34.274  13.116   9.455  0.00  0.00     0.010 C 
HETATM    7  C   UNK N   1      33.221  15.585   8.383  0.00  0.00    -0.075 C 
HETATM    8  C   UNK N   1      35.901  14.018   7.765  0.00  0.00     0.016 C 
HETATM    9  C   UNK N   1      33.062  13.116   8.507  0.00  0.00     0.005 C 
HETATM   10  C   UNK N   1      32.284  14.426   8.637  0.00  0.00     0.034 C 
HETATM   11  C   UNK N   1      32.960  16.592   7.539  0.00  0.00     0.003 C 
ENDROOT
BRANCH  11  12
HETATM   12  C   UNK N   1      31.718  16.765   6.764  0.00  0.00     0.003 C 
HETATM   13  C   UNK N   1      30.722  17.520   7.249  0.00  0.00    -0.075 C 
HETATM   14  C   UNK N   1      30.812  18.182   8.597  0.00  0.00     0.066 C 
HETATM   15  C   UNK N   1      29.429  17.650   6.507  0.00  0.00     0.066 C 
HETATM   16  C   UNK N   1      29.669  17.667   9.466  0.00  0.00     0.124 C 
HETATM   17  C   UNK N   1      28.327  17.910   8.771  0.00  0.00     0.064 C 
HETATM   18  C   UNK N   1      28.289  17.186   7.421  0.00  0.00     0.124 C 
BRANCH  16  19
HETATM   19  O   UNK N   1      29.687  18.316  10.699  0.00  0.00    -0.395 OA
HETATM   20  H   UNK N   1      30.378  18.923  11.010  0.00  0.00     0.210 HD
ENDBRANCH  16  19
BRANCH  18  21
HETATM   21  O   UNK N   1      27.064  17.425   6.801  0.00  0.00    -0.395 OA
HETATM   22  H   UNK N   1      26.317  16.818   6.926  0.00  0.00     0.210 HD
ENDBRANCH  18  21
ENDBRANCH  11  12
BRANCH   2  23
HETATM   23  C   UNK N   1      37.077  13.316  10.807  0.00  0.00     0.008 C 
HETATM   24  C   UNK N   1      38.544  13.365  10.421  0.00  0.00     0.014 C 
BRANCH  23  25
HETATM   25  C   UNK N   1      37.025  13.306  12.315  0.00  0.00    -0.026 C 
HETATM   26  C   UNK N   1      36.446  12.324  13.011  0.00  0.00    -0.023 C 
BRANCH  26  27
HETATM   27  C   UNK N   1      36.328  12.391  14.508  0.00  0.00     0.037 C 
HETATM   28  C   UNK N   1      36.676  13.807  14.948  0.00  0.00     0.017 C 
BRANCH  27  29
HETATM   29  C   UNK N   1      34.954  11.948  15.055  0.00  0.00     0.057 C 
HETATM   30  C   UNK N   1      34.187  11.137  14.025  0.00  0.00     0.046 C 
HETATM   31  C   UNK N   1      35.141  11.061  16.275  0.00  0.00     0.046 C 
BRANCH  29  32
HETATM   32  O   UNK N   1      34.194  13.063  15.416  0.00  0.00    -0.390 OA
HETATM   33  H   UNK N   1      33.775  13.937  15.446  0.00  0.00     0.210 HD
ENDBRANCH  29  32
ENDBRANCH  27  29
ENDBRANCH  26  27
ENDBRANCH  23  25
ENDBRANCH   2  23
TORSDOF 8
ENDMDL
MODEL 5
REMARK VINA RESULT:      -7.5      6.139     12.939
REMARK  8 active torsions:
REMARK  status: ('A' for Active; 'I' for Inactive)
REMARK    1  A    between atoms: O_1  and  C_22 
REMARK    2  A    between atoms: C_26  and  O_2 
REMARK    3  A    between atoms: C_27  and  O_3 
REMARK    4  A    between atoms: C_5  and  C_10 
REMARK    5  A    between atoms: C_10  and  C_16 
REMARK    6  A    between atoms: C_17  and  C_19 
REMARK    7  A    between atoms: C_18  and  C_20 
REMARK    8  A    between atoms: C_20  and  C_22 
ROOT
HETATM    1  C   UNK N   1      32.890  16.898   7.597  0.00  0.00    -0.032 C 
HETATM    2  C   UNK N   1      33.247  15.858   8.680  0.00  0.00     0.002 C 
HETATM    3  C   UNK N   1      31.484  16.413   7.225  0.00  0.00     0.023 C 
HETATM    4  C   UNK N   1      32.755  14.540   8.073  0.00  0.00     0.007 C 
HETATM    5  C   UNK N   1      31.650  14.909   7.087  0.00  0.00     0.010 C 
HETATM    6  C   UNK N   1      33.823  16.822   6.361  0.00  0.00     0.010 C 
HETATM    7  C   UNK N   1      30.969  17.038   5.960  0.00  0.00    -0.075 C 
HETATM    8  C   UNK N   1      32.872  18.327   8.136  0.00  0.00     0.016 C 
HETATM    9  C   UNK N   1      33.246  17.613   5.174  0.00  0.00     0.005 C 
HETATM   10  C   UNK N   1      31.889  17.040   4.761  0.00  0.00     0.034 C 
HETATM   11  C   UNK N   1      29.723  17.529   5.952  0.00  0.00     0.003 C 
ENDROOT
BRANCH  11  12
HETATM   12  C   UNK N   1      29.031  18.102   4.783  0.00  0.00     0.003 C 
HETATM   13  C   UNK N   1      28.290  19.211   4.916  0.00  0.00    -0.075 C 
HETATM   14  C   UNK N   1      28.105  19.887   6.248  0.00  0.00     0.066 C 
HETATM   15  C   UNK N   1      27.527  19.766   3.754  0.00  0.00     0.066 C 
HETATM   16  C   UNK N   1      26.616  19.908   6.577  0.00  0.00     0.124 C 
HETATM   17  C   UNK N   1      25.837  20.589   5.449  0.00  0.00     0.064 C 
HETATM   18  C   UNK N   1      26.043  19.836   4.130  0.00  0.00     0.124 C 
BRANCH  16  19
HETATM   19  O   UNK N   1      26.410  20.591   7.774  0.00  0.00    -0.395 OA
HETATM   20  H   UNK N   1      26.395  20.193   8.659  0.00  0.00     0.210 HD
ENDBRANCH  16  19
BRANCH  18  21
HETATM   21  O   UNK N   1      25.332  20.474   3.116  0.00  0.00    -0.395 OA
HETATM   22  H   UNK N   1      24.954  19.968   2.379  0.00  0.00     0.210 HD
ENDBRANCH  18  21
ENDBRANCH  11  12
BRANCH   2  23
HETATM   23  C   UNK N   1      34.719  15.739   9.145  0.00  0.00     0.008 C 
HETATM   24  C   UNK N   1      35.085  16.805  10.161  0.00  0.00     0.014 C 
BRANCH  23  25
HETATM   25  C   UNK N   1      34.960  14.405   9.808  0.00  0.00    -0.026 C 
HETATM   26  C   UNK N   1      34.946  14.245  11.134  0.00  0.00    -0.023 C 
BRANCH  26  27
HETATM   27  C   UNK N   1      35.284  12.923  11.766  0.00  0.00     0.037 C 
HETATM   28  C   UNK N   1      35.438  11.893  10.655  0.00  0.00     0.017 C 
BRANCH  27  29
HETATM   29  C   UNK N   1      36.524  12.959  12.684  0.00  0.00     0.057 C 
HETATM   30  C   UNK N   1      36.337  13.944  13.824  0.00  0.00     0.046 C 
HETATM   31  C   UNK N   1      36.751  11.591  13.305  0.00  0.00     0.046 C 
BRANCH  29  32
HETATM   32  O   UNK N   1      37.658  13.319  11.952  0.00  0.00    -0.390 OA
HETATM   33  H   UNK N   1      38.458  13.760  11.627  0.00  0.00     0.210 HD
ENDBRANCH  29  32
ENDBRANCH  27  29
ENDBRANCH  26  27
ENDBRANCH  23  25
ENDBRANCH   2  23
TORSDOF 8
ENDMDL
MODEL 6
REMARK VINA RESULT:      -7.3     10.146     15.295
REMARK  8 active torsions:
REMARK  status: ('A' for Active; 'I' for Inactive)
REMARK    1  A    between atoms: O_1  and  C_22 
REMARK    2  A    between atoms: C_26  and  O_2 
REMARK    3  A    between atoms: C_27  and  O_3 
REMARK    4  A    between atoms: C_5  and  C_10 
REMARK    5  A    between atoms: C_10  and  C_16 
REMARK    6  A    between atoms: C_17  and  C_19 
REMARK    7  A    between atoms: C_18  and  C_20 
REMARK    8  A    between atoms: C_20  and  C_22 
ROOT
HETATM    1  C   UNK N   1      27.467  19.191   5.353  0.00  0.00    -0.032 C 
HETATM    2  C   UNK N   1      26.379  18.824   4.321  0.00  0.00     0.002 C 
HETATM    3  C   UNK N   1      28.057  17.800   5.613  0.00  0.00     0.023 C 
HETATM    4  C   UNK N   1      25.758  17.552   4.908  0.00  0.00     0.007 C 
HETATM    5  C   UNK N   1      26.830  16.920   5.791  0.00  0.00     0.010 C 
HETATM    6  C   UNK N   1      26.880  19.773   6.664  0.00  0.00     0.010 C 
HETATM    7  C   UNK N   1      28.950  17.763   6.820  0.00  0.00    -0.075 C 
HETATM    8  C   UNK N   1      28.511  20.153   4.790  0.00  0.00     0.016 C 
HETATM    9  C   UNK N   1      27.933  19.806   7.785  0.00  0.00     0.005 C 
HETATM   10  C   UNK N   1      28.428  18.391   8.092  0.00  0.00     0.034 C 
HETATM   11  C   UNK N   1      30.141  17.158   6.715  0.00  0.00     0.003 C 
ENDROOT
BRANCH  11  12
HETATM   12  C   UNK N   1      31.105  16.961   7.812  0.00  0.00     0.003 C 
HETATM   13  C   UNK N   1      32.417  16.879   7.547  0.00  0.00    -0.075 C 
HETATM   14  C   UNK N   1      32.949  16.947   6.142  0.00  0.00     0.066 C 
HETATM   15  C   UNK N   1      33.403  16.611   8.641  0.00  0.00     0.066 C 
HETATM   16  C   UNK N   1      33.701  15.653   5.847  0.00  0.00     0.124 C 
HETATM   17  C   UNK N   1      34.800  15.432   6.890  0.00  0.00     0.064 C 
HETATM   18  C   UNK N   1      34.189  15.342   8.293  0.00  0.00     0.124 C 
BRANCH  16  19
HETATM   19  O   UNK N   1      34.265  15.718   4.574  0.00  0.00    -0.395 OA
HETATM   20  H   UNK N   1      33.830  16.064   3.777  0.00  0.00     0.210 HD
ENDBRANCH  16  19
BRANCH  18  21
HETATM   21  O   UNK N   1      35.204  15.148   9.228  0.00  0.00    -0.395 OA
HETATM   22  H   UNK N   1      36.100  15.485   9.066  0.00  0.00     0.210 HD
ENDBRANCH  18  21
ENDBRANCH  11  12
BRANCH   2  23
HETATM   23  C   UNK N   1      25.287  19.869   3.985  0.00  0.00     0.008 C 
HETATM   24  C   UNK N   1      25.453  20.436   2.587  0.00  0.00     0.014 C 
BRANCH  23  25
HETATM   25  C   UNK N   1      23.916  19.241   4.039  0.00  0.00    -0.026 C 
HETATM   26  C   UNK N   1      22.925  19.597   3.217  0.00  0.00    -0.023 C 
BRANCH  26  27
HETATM   27  C   UNK N   1      21.545  19.019   3.360  0.00  0.00     0.037 C 
HETATM   28  C   UNK N   1      21.334  18.650   4.822  0.00  0.00     0.017 C 
BRANCH  27  29
HETATM   29  C   UNK N   1      20.418  19.935   2.837  0.00  0.00     0.057 C 
HETATM   30  C   UNK N   1      20.779  20.539   1.491  0.00  0.00     0.046 C 
HETATM   31  C   UNK N   1      19.143  19.132   2.640  0.00  0.00     0.046 C 
BRANCH  29  32
HETATM   32  O   UNK N   1      20.170  20.965   3.747  0.00  0.00    -0.390 OA
HETATM   33  H   UNK N   1      19.873  21.786   4.170  0.00  0.00     0.210 HD
ENDBRANCH  29  32
ENDBRANCH  27  29
ENDBRANCH  26  27
ENDBRANCH  23  25
ENDBRANCH   2  23
TORSDOF 8
ENDMDL
MODEL 7
REMARK VINA RESULT:      -7.3      6.946     13.560
REMARK  8 active torsions:
REMARK  status: ('A' for Active; 'I' for Inactive)
REMARK    1  A    between atoms: O_1  and  C_22 
REMARK    2  A    between atoms: C_26  and  O_2 
REMARK    3  A    between atoms: C_27  and  O_3 
REMARK    4  A    between atoms: C_5  and  C_10 
REMARK    5  A    between atoms: C_10  and  C_16 
REMARK    6  A    between atoms: C_17  and  C_19 
REMARK    7  A    between atoms: C_18  and  C_20 
REMARK    8  A    between atoms: C_20  and  C_22 
ROOT
HETATM    1  C   UNK N   1      32.127  16.831   5.723  0.00  0.00    -0.032 C 
HETATM    2  C   UNK N   1      32.570  17.583   6.996  0.00  0.00     0.002 C 
HETATM    3  C   UNK N   1      30.616  17.085   5.783  0.00  0.00     0.023 C 
HETATM    4  C   UNK N   1      31.512  17.175   8.027  0.00  0.00     0.007 C 
HETATM    5  C   UNK N   1      30.264  16.797   7.234  0.00  0.00     0.010 C 
HETATM    6  C   UNK N   1      32.414  15.309   5.795  0.00  0.00     0.010 C 
HETATM    7  C   UNK N   1      29.842  16.213   4.836  0.00  0.00    -0.075 C 
HETATM    8  C   UNK N   1      32.749  17.407   4.452  0.00  0.00     0.016 C 
HETATM    9  C   UNK N   1      31.667  14.544   4.688  0.00  0.00     0.005 C 
HETATM   10  C   UNK N   1      30.156  14.734   4.836  0.00  0.00     0.034 C 
HETATM   11  C   UNK N   1      28.903  16.781   4.068  0.00  0.00     0.003 C 
ENDROOT
BRANCH  11  12
HETATM   12  C   UNK N   1      28.000  16.071   3.146  0.00  0.00     0.003 C 
HETATM   13  C   UNK N   1      26.712  16.432   3.053  0.00  0.00    -0.075 C 
HETATM   14  C   UNK N   1      26.135  17.534   3.899  0.00  0.00     0.066 C 
HETATM   15  C   UNK N   1      25.766  15.677   2.173  0.00  0.00     0.066 C 
HETATM   16  C   UNK N   1      25.002  16.955   4.742  0.00  0.00     0.124 C 
HETATM   17  C   UNK N   1      23.961  16.289   3.839  0.00  0.00     0.064 C 
HETATM   18  C   UNK N   1      24.606  15.158   3.030  0.00  0.00     0.124 C 
BRANCH  16  19
HETATM   19  O   UNK N   1      24.403  17.971   5.484  0.00  0.00    -0.395 OA
HETATM   20  H   UNK N   1      23.741  17.849   6.182  0.00  0.00     0.210 HD
ENDBRANCH  16  19
BRANCH  18  21
HETATM   21  O   UNK N   1      23.645  14.569   2.210  0.00  0.00    -0.395 OA
HETATM   22  H   UNK N   1      23.644  14.728   1.252  0.00  0.00     0.210 HD
ENDBRANCH  18  21
ENDBRANCH  11  12
BRANCH   2  23
HETATM   23  C   UNK N   1      33.998  17.347   7.545  0.00  0.00     0.008 C 
HETATM   24  C   UNK N   1      34.578  18.597   8.180  0.00  0.00     0.014 C 
BRANCH  23  25
HETATM   25  C   UNK N   1      33.987  16.281   8.613  0.00  0.00    -0.026 C 
HETATM   26  C   UNK N   1      34.743  16.352   9.712  0.00  0.00    -0.023 C 
BRANCH  26  27
HETATM   27  C   UNK N   1      34.779  15.229  10.710  0.00  0.00     0.037 C 
HETATM   28  C   UNK N   1      34.241  13.976  10.033  0.00  0.00     0.017 C 
BRANCH  27  29
HETATM   29  C   UNK N   1      36.169  14.983  11.336  0.00  0.00     0.057 C 
HETATM   30  C   UNK N   1      36.083  14.894  12.850  0.00  0.00     0.046 C 
HETATM   31  C   UNK N   1      36.738  13.665  10.840  0.00  0.00     0.046 C 
BRANCH  29  32
HETATM   32  O   UNK N   1      37.044  16.015  10.990  0.00  0.00    -0.390 OA
HETATM   33  H   UNK N   1      37.720  16.710  11.005  0.00  0.00     0.210 HD
ENDBRANCH  29  32
ENDBRANCH  27  29
ENDBRANCH  26  27
ENDBRANCH  23  25
ENDBRANCH   2  23
TORSDOF 8
ENDMDL
MODEL 8
REMARK VINA RESULT:      -7.3      9.980     15.213
REMARK  8 active torsions:
REMARK  status: ('A' for Active; 'I' for Inactive)
REMARK    1  A    between atoms: O_1  and  C_22 
REMARK    2  A    between atoms: C_26  and  O_2 
REMARK    3  A    between atoms: C_27  and  O_3 
REMARK    4  A    between atoms: C_5  and  C_10 
REMARK    5  A    between atoms: C_10  and  C_16 
REMARK    6  A    between atoms: C_17  and  C_19 
REMARK    7  A    between atoms: C_18  and  C_20 
REMARK    8  A    between atoms: C_20  and  C_22 
ROOT
HETATM    1  C   UNK N   1      26.612  16.385   4.112  0.00  0.00    -0.032 C 
HETATM    2  C   UNK N   1      25.407  15.583   4.646  0.00  0.00     0.002 C 
HETATM    3  C   UNK N   1      27.634  16.082   5.214  0.00  0.00     0.023 C 
HETATM    4  C   UNK N   1      25.410  15.906   6.144  0.00  0.00     0.007 C 
HETATM    5  C   UNK N   1      26.845  16.285   6.498  0.00  0.00     0.010 C 
HETATM    6  C   UNK N   1      26.337  17.909   4.046  0.00  0.00     0.010 C 
HETATM    7  C   UNK N   1      28.840  16.977   5.151  0.00  0.00    -0.075 C 
HETATM    8  C   UNK N   1      27.088  15.893   2.747  0.00  0.00     0.016 C 
HETATM    9  C   UNK N   1      27.639  18.706   3.846  0.00  0.00     0.005 C 
HETATM   10  C   UNK N   1      28.597  18.462   5.013  0.00  0.00     0.034 C 
HETATM   11  C   UNK N   1      30.054  16.419   5.248  0.00  0.00     0.003 C 
ENDROOT
BRANCH  11  12
HETATM   12  C   UNK N   1      31.334  17.148   5.285  0.00  0.00     0.003 C 
HETATM   13  C   UNK N   1      32.256  16.841   6.209  0.00  0.00    -0.075 C 
HETATM   14  C   UNK N   1      32.014  15.785   7.252  0.00  0.00     0.066 C 
HETATM   15  C   UNK N   1      33.533  17.617   6.303  0.00  0.00     0.066 C 
HETATM   16  C   UNK N   1      32.119  16.432   8.630  0.00  0.00     0.124 C 
HETATM   17  C   UNK N   1      33.476  17.123   8.785  0.00  0.00     0.064 C 
HETATM   18  C   UNK N   1      33.647  18.206   7.714  0.00  0.00     0.124 C 
BRANCH  16  19
HETATM   19  O   UNK N   1      31.968  15.460   9.617  0.00  0.00    -0.395 OA
HETATM   20  H   UNK N   1      31.948  15.622  10.574  0.00  0.00     0.210 HD
ENDBRANCH  16  19
BRANCH  18  21
HETATM   21  O   UNK N   1      34.889  18.818   7.867  0.00  0.00    -0.395 OA
HETATM   22  H   UNK N   1      34.969  19.674   8.317  0.00  0.00     0.210 HD
ENDBRANCH  18  21
ENDBRANCH  11  12
BRANCH   2  23
HETATM   23  C   UNK N   1      24.009  15.835   4.029  0.00  0.00     0.008 C 
HETATM   24  C   UNK N   1      22.945  14.946   4.647  0.00  0.00     0.014 C 
BRANCH  23  25
HETATM   25  C   UNK N   1      23.574  17.260   4.262  0.00  0.00    -0.026 C 
HETATM   26  C   UNK N   1      22.603  17.844   3.554  0.00  0.00    -0.023 C 
BRANCH  26  27
HETATM   27  C   UNK N   1      22.258  19.295   3.748  0.00  0.00     0.037 C 
HETATM   28  C   UNK N   1      23.421  20.131   3.231  0.00  0.00     0.017 C 
BRANCH  27  29
HETATM   29  C   UNK N   1      20.922  19.719   3.102  0.00  0.00     0.057 C 
HETATM   30  C   UNK N   1      21.137  20.270   1.703  0.00  0.00     0.046 C 
HETATM   31  C   UNK N   1      20.002  18.516   2.974  0.00  0.00     0.046 C 
BRANCH  29  32
HETATM   32  O   UNK N   1      20.294  20.691   3.883  0.00  0.00    -0.390 OA
HETATM   33  H   UNK N   1      19.734  21.153   4.527  0.00  0.00     0.210 HD
ENDBRANCH  29  32
ENDBRANCH  27  29
ENDBRANCH  26  27
ENDBRANCH  23  25
ENDBRANCH   2  23
TORSDOF 8
ENDMDL
MODEL 9
REMARK VINA RESULT:      -7.3      7.350     11.261
REMARK  8 active torsions:
REMARK  status: ('A' for Active; 'I' for Inactive)
REMARK    1  A    between atoms: O_1  and  C_22 
REMARK    2  A    between atoms: C_26  and  O_2 
REMARK    3  A    between atoms: C_27  and  O_3 
REMARK    4  A    between atoms: C_5  and  C_10 
REMARK    5  A    between atoms: C_10  and  C_16 
REMARK    6  A    between atoms: C_17  and  C_19 
REMARK    7  A    between atoms: C_18  and  C_20 
REMARK    8  A    between atoms: C_20  and  C_22 
ROOT
HETATM    1  C   UNK N   1      31.440  15.162   5.436  0.00  0.00    -0.032 C 
HETATM    2  C   UNK N   1      30.123  15.966   5.425  0.00  0.00     0.002 C 
HETATM    3  C   UNK N   1      31.616  14.973   6.947  0.00  0.00     0.023 C 
HETATM    4  C   UNK N   1      30.323  16.978   6.557  0.00  0.00     0.007 C 
HETATM    5  C   UNK N   1      31.336  16.355   7.514  0.00  0.00     0.010 C 
HETATM    6  C   UNK N   1      32.636  15.960   4.857  0.00  0.00     0.010 C 
HETATM    7  C   UNK N   1      32.988  14.484   7.317  0.00  0.00    -0.075 C 
HETATM    8  C   UNK N   1      31.320  13.824   4.708  0.00  0.00     0.016 C 
HETATM    9  C   UNK N   1      33.977  15.283   5.191  0.00  0.00     0.005 C 
HETATM   10  C   UNK N   1      34.170  15.202   6.707  0.00  0.00     0.034 C 
HETATM   11  C   UNK N   1      33.091  13.466   8.181  0.00  0.00     0.003 C 
ENDROOT
BRANCH  11  12
HETATM   12  C   UNK N   1      34.349  12.913   8.713  0.00  0.00     0.003 C 
HETATM   13  C   UNK N   1      34.944  13.487   9.769  0.00  0.00    -0.075 C 
HETATM   14  C   UNK N   1      34.382  14.721  10.422  0.00  0.00     0.066 C 
HETATM   15  C   UNK N   1      36.257  12.980  10.278  0.00  0.00     0.066 C 
HETATM   16  C   UNK N   1      35.426  15.830  10.339  0.00  0.00     0.124 C 
HETATM   17  C   UNK N   1      36.740  15.365  10.973  0.00  0.00     0.064 C 
HETATM   18  C   UNK N   1      37.273  14.127  10.244  0.00  0.00     0.124 C 
BRANCH  16  19
HETATM   19  O   UNK N   1      34.958  16.964  11.000  0.00  0.00    -0.395 OA
HETATM   20  H   UNK N   1      34.070  17.077  11.375  0.00  0.00     0.210 HD
ENDBRANCH  16  19
BRANCH  18  21
HETATM   21  O   UNK N   1      38.464  13.716  10.839  0.00  0.00    -0.395 OA
HETATM   22  H   UNK N   1      38.769  14.117  11.669  0.00  0.00     0.210 HD
ENDBRANCH  18  21
ENDBRANCH  11  12
BRANCH   2  23
HETATM   23  C   UNK N   1      29.693  16.676   4.118  0.00  0.00     0.008 C 
HETATM   24  C   UNK N   1      28.501  15.998   3.467  0.00  0.00     0.014 C 
BRANCH  23  25
HETATM   25  C   UNK N   1      29.283  18.101   4.397  0.00  0.00    -0.026 C 
HETATM   26  C   UNK N   1      28.006  18.486   4.461  0.00  0.00    -0.023 C 
BRANCH  26  27
HETATM   27  C   UNK N   1      27.633  19.930   4.648  0.00  0.00     0.037 C 
HETATM   28  C   UNK N   1      26.721  20.336   3.497  0.00  0.00     0.017 C 
BRANCH  27  29
HETATM   29  C   UNK N   1      26.995  20.248   6.017  0.00  0.00     0.057 C 
HETATM   30  C   UNK N   1      27.792  19.630   7.152  0.00  0.00     0.046 C 
HETATM   31  C   UNK N   1      26.976  21.749   6.247  0.00  0.00     0.046 C 
BRANCH  29  32
HETATM   32  O   UNK N   1      25.685  19.764   6.065  0.00  0.00    -0.390 OA
HETATM   33  H   UNK N   1      24.752  19.616   6.284  0.00  0.00     0.210 HD
ENDBRANCH  29  32
ENDBRANCH  27  29
ENDBRANCH  26  27
ENDBRANCH  23  25
ENDBRANCH   2  23
TORSDOF 8
ENDMDL
