MODEL 1
REMARK VINA RESULT:      -5.1      0.000      0.000
REMARK  5 active torsions:
REMARK  status: ('A' for Active; 'I' for Inactive)
REMARK    1  A    between atoms: S_1  and  C_10 
REMARK    2  A    between atoms: S_1  and  C_12 
REMARK    3  A    between atoms: N_6  and  C_11 
REMARK    4  A    between atoms: N_9  and  C_14 
REMARK    5  A    between atoms: C_10  and  C_11 
ROOT
HETATM    1  N   UNK N   1      26.239  25.913  -4.269  0.00  0.00    -0.316 N 
HETATM    2  N   UNK N   1      25.232  24.758  -5.898  0.00  0.00    -0.352 N 
ATOM      3  HN  UNK N   1      24.643  24.534  -6.699  1.00  0.00     0.166 HD
HETATM    4  C   UNK N   1      25.378  25.962  -5.303  0.00  0.00     0.081 A 
HETATM    5  C   UNK N   1      26.644  24.632  -4.202  0.00  0.00     0.192 A 
HETATM    6  C   UNK N   1      26.029  23.911  -5.206  0.00  0.00     0.144 A 
HETATM    7  C   UNK N   1      24.654  27.187  -5.746  0.00  0.00     0.089 C 
ENDROOT
BRANCH   1   8
HETATM    8  C   UNK N   1      26.625  27.005  -3.389  0.00  0.00     0.147 C 
BRANCH   8   9
HETATM    9  C   UNK N   1      27.935  27.683  -3.845  0.00  0.00     0.160 C 
BRANCH   9  10
HETATM   10  S   UNK N   1      28.174  29.431  -3.265  0.00  0.00     0.145 S 
HETATM   11  O   UNK N   1      29.416  28.971  -2.488  0.00  0.00    -0.228 OA
HETATM   12  O   UNK N   1      27.113  28.824  -2.331  0.00  0.00    -0.228 OA
BRANCH  10  13
HETATM   13  C   UNK N   1      27.937  30.533  -1.839  0.00  0.00     0.136 C 
HETATM   14  C   UNK N   1      28.459  29.910  -0.564  0.00  0.00     0.021 C 
ENDBRANCH  10  13
ENDBRANCH   9  10
ENDBRANCH   8   9
ENDBRANCH   1   8
BRANCH   5  15
HETATM   15  N   UNK N   1      27.549  24.101  -3.241  0.00  0.00    -0.096 N 
HETATM   16  O   UNK N   1      28.840  24.091  -3.492  0.00  0.00    -0.530 OA
HETATM   17  O   UNK N   1      27.148  23.652  -2.210  0.00  0.00    -0.530 OA
ENDBRANCH   5  15
TORSDOF 5
ENDMDL
MODEL 2
REMARK VINA RESULT:      -5.0     12.620     14.114
REMARK  5 active torsions:
REMARK  status: ('A' for Active; 'I' for Inactive)
REMARK    1  A    between atoms: S_1  and  C_10 
REMARK    2  A    between atoms: S_1  and  C_12 
REMARK    3  A    between atoms: N_6  and  C_11 
REMARK    4  A    between atoms: N_9  and  C_14 
REMARK    5  A    between atoms: C_10  and  C_11 
ROOT
HETATM    1  N   UNK N   1      21.535  17.878   3.497  0.00  0.00    -0.316 N 
HETATM    2  N   UNK N   1      20.430  17.043   1.741  0.00  0.00    -0.352 N 
ATOM      3  HN  UNK N   1      20.039  16.377   1.075  1.00  0.00     0.166 HD
HETATM    4  C   UNK N   1      21.186  16.764   2.825  0.00  0.00     0.081 A 
HETATM    5  C   UNK N   1      20.986  18.896   2.810  0.00  0.00     0.192 A 
HETATM    6  C   UNK N   1      20.299  18.389   1.725  0.00  0.00     0.144 A 
HETATM    7  C   UNK N   1      21.590  15.381   3.208  0.00  0.00     0.089 C 
ENDROOT
BRANCH   1   8
HETATM    8  C   UNK N   1      22.357  17.965   4.694  0.00  0.00     0.147 C 
BRANCH   8   9
HETATM    9  C   UNK N   1      21.515  18.250   5.957  0.00  0.00     0.160 C 
BRANCH   9  10
HETATM   10  S   UNK N   1      21.129  16.771   7.011  0.00  0.00     0.145 S 
HETATM   11  O   UNK N   1      19.884  16.519   6.150  0.00  0.00    -0.228 OA
HETATM   12  O   UNK N   1      20.598  17.987   7.789  0.00  0.00    -0.228 OA
BRANCH  10  13
HETATM   13  C   UNK N   1      20.065  16.191   8.365  0.00  0.00     0.136 C 
HETATM   14  C   UNK N   1      19.254  17.322   8.956  0.00  0.00     0.021 C 
ENDBRANCH  10  13
ENDBRANCH   9  10
ENDBRANCH   8   9
ENDBRANCH   1   8
BRANCH   5  15
HETATM   15  N   UNK N   1      21.108  20.274   3.140  0.00  0.00    -0.096 N 
HETATM   16  O   UNK N   1      22.147  20.960   2.717  0.00  0.00    -0.530 OA
HETATM   17  O   UNK N   1      20.279  20.816   3.807  0.00  0.00    -0.530 OA
ENDBRANCH   5  15
TORSDOF 5
ENDMDL
MODEL 3
REMARK VINA RESULT:      -5.0      2.967      4.932
REMARK  5 active torsions:
REMARK  status: ('A' for Active; 'I' for Inactive)
REMARK    1  A    between atoms: S_1  and  C_10 
REMARK    2  A    between atoms: S_1  and  C_12 
REMARK    3  A    between atoms: N_6  and  C_11 
REMARK    4  A    between atoms: N_9  and  C_14 
REMARK    5  A    between atoms: C_10  and  C_11 
ROOT
HETATM    1  N   UNK N   1      26.274  25.165  -4.535  0.00  0.00    -0.316 N 
HETATM    2  N   UNK N   1      25.237  25.612  -6.466  0.00  0.00    -0.352 N 
ATOM      3  HN  UNK N   1      24.811  25.486  -7.383  1.00  0.00     0.166 HD
HETATM    4  C   UNK N   1      25.810  24.662  -5.695  0.00  0.00     0.081 A 
HETATM    5  C   UNK N   1      25.992  26.479  -4.578  0.00  0.00     0.192 A 
HETATM    6  C   UNK N   1      25.349  26.764  -5.766  0.00  0.00     0.144 A 
HETATM    7  C   UNK N   1      25.918  23.232  -6.102  0.00  0.00     0.089 C 
ENDROOT
BRANCH   1   8
HETATM    8  C   UNK N   1      26.963  24.446  -3.474  0.00  0.00     0.147 C 
BRANCH   8   9
HETATM    9  C   UNK N   1      28.496  24.485  -3.648  0.00  0.00     0.160 C 
BRANCH   9  10
HETATM   10  S   UNK N   1      29.440  23.188  -2.711  0.00  0.00     0.145 S 
HETATM   11  O   UNK N   1      30.628  24.156  -2.628  0.00  0.00    -0.228 OA
HETATM   12  O   UNK N   1      29.583  22.816  -4.197  0.00  0.00    -0.228 OA
BRANCH  10  13
HETATM   13  C   UNK N   1      30.737  21.926  -2.885  0.00  0.00     0.136 C 
HETATM   14  C   UNK N   1      30.553  21.113  -4.147  0.00  0.00     0.021 C 
ENDBRANCH  10  13
ENDBRANCH   9  10
ENDBRANCH   8   9
ENDBRANCH   1   8
BRANCH   5  15
HETATM   15  N   UNK N   1      26.318  27.426  -3.568  0.00  0.00    -0.096 N 
HETATM   16  O   UNK N   1      27.540  27.906  -3.489  0.00  0.00    -0.530 OA
HETATM   17  O   UNK N   1      25.495  27.786  -2.781  0.00  0.00    -0.530 OA
ENDBRANCH   5  15
TORSDOF 5
ENDMDL
MODEL 4
REMARK VINA RESULT:      -4.8     13.998     15.410
REMARK  5 active torsions:
REMARK  status: ('A' for Active; 'I' for Inactive)
REMARK    1  A    between atoms: S_1  and  C_10 
REMARK    2  A    between atoms: S_1  and  C_12 
REMARK    3  A    between atoms: N_6  and  C_11 
REMARK    4  A    between atoms: N_9  and  C_14 
REMARK    5  A    between atoms: C_10  and  C_11 
ROOT
HETATM    1  N   UNK N   1      30.016  17.410   7.247  0.00  0.00    -0.316 N 
HETATM    2  N   UNK N   1      28.646  18.323   5.733  0.00  0.00    -0.352 N 
ATOM      3  HN  UNK N   1      28.260  18.623   4.839  1.00  0.00     0.166 HD
HETATM    4  C   UNK N   1      29.804  17.659   5.941  0.00  0.00     0.081 A 
HETATM    5  C   UNK N   1      28.959  17.941   7.888  0.00  0.00     0.192 A 
HETATM    6  C   UNK N   1      28.106  18.505   6.960  0.00  0.00     0.144 A 
HETATM    7  C   UNK N   1      30.732  17.269   4.842  0.00  0.00     0.089 C 
ENDROOT
BRANCH   1   8
HETATM    8  C   UNK N   1      31.161  16.738   7.843  0.00  0.00     0.147 C 
BRANCH   8   9
HETATM    9  C   UNK N   1      32.354  17.696   8.046  0.00  0.00     0.160 C 
BRANCH   9  10
HETATM   10  S   UNK N   1      34.032  16.956   7.751  0.00  0.00     0.145 S 
HETATM   11  O   UNK N   1      34.178  17.855   6.515  0.00  0.00    -0.228 OA
HETATM   12  O   UNK N   1      33.025  15.955   7.158  0.00  0.00    -0.228 OA
BRANCH  10  13
HETATM   13  C   UNK N   1      34.926  15.746   6.729  0.00  0.00     0.136 C 
HETATM   14  C   UNK N   1      34.328  15.641   5.345  0.00  0.00     0.021 C 
ENDBRANCH  10  13
ENDBRANCH   9  10
ENDBRANCH   8   9
ENDBRANCH   1   8
BRANCH   5  15
HETATM   15  N   UNK N   1      28.761  17.938   9.296  0.00  0.00    -0.096 N 
HETATM   16  O   UNK N   1      29.468  18.741  10.060  0.00  0.00    -0.530 OA
HETATM   17  O   UNK N   1      27.964  17.203   9.797  0.00  0.00    -0.530 OA
ENDBRANCH   5  15
TORSDOF 5
ENDMDL
MODEL 5
REMARK VINA RESULT:      -4.8     12.168     13.798
REMARK  5 active torsions:
REMARK  status: ('A' for Active; 'I' for Inactive)
REMARK    1  A    between atoms: S_1  and  C_10 
REMARK    2  A    between atoms: S_1  and  C_12 
REMARK    3  A    between atoms: N_6  and  C_11 
REMARK    4  A    between atoms: N_9  and  C_14 
REMARK    5  A    between atoms: C_10  and  C_11 
ROOT
HETATM    1  N   UNK N   1      22.951  18.738   3.963  0.00  0.00    -0.316 N 
HETATM    2  N   UNK N   1      24.601  20.045   3.206  0.00  0.00    -0.352 N 
ATOM      3  HN  UNK N   1      25.535  20.408   3.017  1.00  0.00     0.166 HD
HETATM    4  C   UNK N   1      24.282  18.936   3.907  0.00  0.00     0.081 A 
HETATM    5  C   UNK N   1      22.410  19.763   3.280  0.00  0.00     0.192 A 
HETATM    6  C   UNK N   1      23.421  20.574   2.806  0.00  0.00     0.144 A 
HETATM    7  C   UNK N   1      25.298  18.053   4.549  0.00  0.00     0.089 C 
ENDROOT
BRANCH   1   8
HETATM    8  C   UNK N   1      22.247  17.664   4.645  0.00  0.00     0.147 C 
BRANCH   8   9
HETATM    9  C   UNK N   1      21.850  18.053   6.086  0.00  0.00     0.160 C 
BRANCH   9  10
HETATM   10  S   UNK N   1      21.063  16.703   7.090  0.00  0.00     0.145 S 
HETATM   11  O   UNK N   1      19.964  16.592   6.024  0.00  0.00    -0.228 OA
HETATM   12  O   UNK N   1      20.597  18.022   7.728  0.00  0.00    -0.228 OA
BRANCH  10  13
HETATM   13  C   UNK N   1      19.702  16.356   8.243  0.00  0.00     0.136 C 
HETATM   14  C   UNK N   1      19.243  17.611   8.952  0.00  0.00     0.021 C 
ENDBRANCH  10  13
ENDBRANCH   9  10
ENDBRANCH   8   9
ENDBRANCH   1   8
BRANCH   5  15
HETATM   15  N   UNK N   1      21.018  19.984   3.090  0.00  0.00    -0.096 N 
HETATM   16  O   UNK N   1      20.420  19.514   2.017  0.00  0.00    -0.530 OA
HETATM   17  O   UNK N   1      20.384  20.602   3.891  0.00  0.00    -0.530 OA
ENDBRANCH   5  15
TORSDOF 5
ENDMDL
MODEL 6
REMARK VINA RESULT:      -4.7     19.797     21.132
REMARK  5 active torsions:
REMARK  status: ('A' for Active; 'I' for Inactive)
REMARK    1  A    between atoms: S_1  and  C_10 
REMARK    2  A    between atoms: S_1  and  C_12 
REMARK    3  A    between atoms: N_6  and  C_11 
REMARK    4  A    between atoms: N_9  and  C_14 
REMARK    5  A    between atoms: C_10  and  C_11 
ROOT
HETATM    1  N   UNK N   1      34.862  14.611   9.998  0.00  0.00    -0.316 N 
HETATM    2  N   UNK N   1      35.268  13.809   7.950  0.00  0.00    -0.352 N 
ATOM      3  HN  UNK N   1      35.449  13.157   7.188  1.00  0.00     0.166 HD
HETATM    4  C   UNK N   1      35.084  13.511   9.254  0.00  0.00     0.081 A 
HETATM    5  C   UNK N   1      34.915  15.642   9.135  0.00  0.00     0.192 A 
HETATM    6  C   UNK N   1      35.163  15.156   7.867  0.00  0.00     0.144 A 
HETATM    7  C   UNK N   1      35.138  12.121   9.792  0.00  0.00     0.089 C 
ENDROOT
BRANCH   1   8
HETATM    8  C   UNK N   1      34.643  14.676  11.435  0.00  0.00     0.147 C 
BRANCH   8   9
HETATM    9  C   UNK N   1      35.970  14.760  12.220  0.00  0.00     0.160 C 
BRANCH   9  10
HETATM   10  S   UNK N   1      35.974  13.914  13.873  0.00  0.00     0.145 S 
HETATM   11  O   UNK N   1      36.860  12.813  13.274  0.00  0.00    -0.228 OA
HETATM   12  O   UNK N   1      34.654  13.503  13.199  0.00  0.00    -0.228 OA
BRANCH  10  13
HETATM   13  C   UNK N   1      35.236  12.536  14.802  0.00  0.00     0.136 C 
HETATM   14  C   UNK N   1      34.797  12.971  16.182  0.00  0.00     0.021 C 
ENDBRANCH  10  13
ENDBRANCH   9  10
ENDBRANCH   8   9
ENDBRANCH   1   8
BRANCH   5  15
HETATM   15  N   UNK N   1      34.757  17.013   9.477  0.00  0.00    -0.096 N 
HETATM   16  O   UNK N   1      35.674  17.618  10.200  0.00  0.00    -0.530 OA
HETATM   17  O   UNK N   1      33.793  17.622   9.122  0.00  0.00    -0.530 OA
ENDBRANCH   5  15
TORSDOF 5
ENDMDL
MODEL 7
REMARK VINA RESULT:      -4.7     16.389     18.034
REMARK  5 active torsions:
REMARK  status: ('A' for Active; 'I' for Inactive)
REMARK    1  A    between atoms: S_1  and  C_10 
REMARK    2  A    between atoms: S_1  and  C_12 
REMARK    3  A    between atoms: N_6  and  C_11 
REMARK    4  A    between atoms: N_9  and  C_14 
REMARK    5  A    between atoms: C_10  and  C_11 
ROOT
HETATM    1  N   UNK N   1      20.886  15.086   6.097  0.00  0.00    -0.316 N 
HETATM    2  N   UNK N   1      21.774  16.770   4.922  0.00  0.00    -0.352 N 
ATOM      3  HN  UNK N   1      22.451  17.435   4.550  1.00  0.00     0.166 HD
HETATM    4  C   UNK N   1      22.001  15.791   5.825  0.00  0.00     0.081 A 
HETATM    5  C   UNK N   1      19.919  15.643   5.346  0.00  0.00     0.192 A 
HETATM    6  C   UNK N   1      20.459  16.683   4.614  0.00  0.00     0.144 A 
HETATM    7  C   UNK N   1      23.332  15.544   6.447  0.00  0.00     0.089 C 
ENDROOT
BRANCH   1   8
HETATM    8  C   UNK N   1      20.748  13.978   7.029  0.00  0.00     0.147 C 
BRANCH   8   9
HETATM    9  C   UNK N   1      20.504  14.463   8.475  0.00  0.00     0.160 C 
BRANCH   9  10
HETATM   10  S   UNK N   1      21.508  13.610   9.784  0.00  0.00     0.145 S 
HETATM   11  O   UNK N   1      21.739  12.448   8.807  0.00  0.00    -0.228 OA
HETATM   12  O   UNK N   1      20.038  13.305  10.121  0.00  0.00    -0.228 OA
BRANCH  10  13
HETATM   13  C   UNK N   1      21.446  12.288  11.030  0.00  0.00     0.136 C 
HETATM   14  C   UNK N   1      22.813  12.012  11.614  0.00  0.00     0.021 C 
ENDBRANCH  10  13
ENDBRANCH   9  10
ENDBRANCH   8   9
ENDBRANCH   1   8
BRANCH   5  15
HETATM   15  N   UNK N   1      18.557  15.238   5.321  0.00  0.00    -0.096 N 
HETATM   16  O   UNK N   1      17.647  15.957   5.942  0.00  0.00    -0.530 OA
HETATM   17  O   UNK N   1      18.227  14.242   4.749  0.00  0.00    -0.530 OA
ENDBRANCH   5  15
TORSDOF 5
ENDMDL
MODEL 8
REMARK VINA RESULT:      -4.7     19.781     21.101
REMARK  5 active torsions:
REMARK  status: ('A' for Active; 'I' for Inactive)
REMARK    1  A    between atoms: S_1  and  C_10 
REMARK    2  A    between atoms: S_1  and  C_12 
REMARK    3  A    between atoms: N_6  and  C_11 
REMARK    4  A    between atoms: N_9  and  C_14 
REMARK    5  A    between atoms: C_10  and  C_11 
ROOT
HETATM    1  N   UNK N   1      36.779  14.151  11.415  0.00  0.00    -0.316 N 
HETATM    2  N   UNK N   1      37.957  12.275  11.105  0.00  0.00    -0.352 N 
ATOM      3  HN  UNK N   1      38.549  11.569  10.669  1.00  0.00     0.166 HD
HETATM    4  C   UNK N   1      37.554  13.447  10.568  0.00  0.00     0.081 A 
HETATM    5  C   UNK N   1      36.681  13.392  12.522  0.00  0.00     0.192 A 
HETATM    6  C   UNK N   1      37.408  12.233  12.340  0.00  0.00     0.144 A 
HETATM    7  C   UNK N   1      37.925  13.889   9.193  0.00  0.00     0.089 C 
ENDROOT
BRANCH   1   8
HETATM    8  C   UNK N   1      36.153  15.441  11.173  0.00  0.00     0.147 C 
BRANCH   8   9
HETATM    9  C   UNK N   1      34.658  15.302  10.813  0.00  0.00     0.160 C 
BRANCH   9  10
HETATM   10  S   UNK N   1      34.069  16.376   9.417  0.00  0.00     0.145 S 
HETATM   11  O   UNK N   1      35.061  15.663   8.489  0.00  0.00    -0.228 OA
HETATM   12  O   UNK N   1      35.090  17.225  10.194  0.00  0.00    -0.228 OA
BRANCH  10  13
HETATM   13  C   UNK N   1      34.502  17.838   8.428  0.00  0.00     0.136 C 
HETATM   14  C   UNK N   1      33.724  17.881   7.132  0.00  0.00     0.021 C 
ENDBRANCH  10  13
ENDBRANCH   9  10
ENDBRANCH   8   9
ENDBRANCH   1   8
BRANCH   5  15
HETATM   15  N   UNK N   1      35.936  13.725  13.687  0.00  0.00    -0.096 N 
HETATM   16  O   UNK N   1      34.675  13.363  13.783  0.00  0.00    -0.530 OA
HETATM   17  O   UNK N   1      36.439  14.341  14.577  0.00  0.00    -0.530 OA
ENDBRANCH   5  15
TORSDOF 5
ENDMDL
MODEL 9
REMARK VINA RESULT:      -4.6     11.539     13.772
REMARK  5 active torsions:
REMARK  status: ('A' for Active; 'I' for Inactive)
REMARK    1  A    between atoms: S_1  and  C_10 
REMARK    2  A    between atoms: S_1  and  C_12 
REMARK    3  A    between atoms: N_6  and  C_11 
REMARK    4  A    between atoms: N_9  and  C_14 
REMARK    5  A    between atoms: C_10  and  C_11 
ROOT
HETATM    1  N   UNK N   1      21.674  17.881   3.340  0.00  0.00    -0.316 N 
HETATM    2  N   UNK N   1      23.782  17.958   4.082  0.00  0.00    -0.352 N 
ATOM      3  HN  UNK N   1      24.692  17.663   4.432  1.00  0.00     0.166 HD
HETATM    4  C   UNK N   1      22.726  17.170   3.786  0.00  0.00     0.081 A 
HETATM    5  C   UNK N   1      22.075  19.165   3.364  0.00  0.00     0.192 A 
HETATM    6  C   UNK N   1      23.377  19.222   3.818  0.00  0.00     0.144 A 
HETATM    7  C   UNK N   1      22.739  15.688   3.950  0.00  0.00     0.089 C 
ENDROOT
BRANCH   1   8
HETATM    8  C   UNK N   1      20.368  17.374   2.947  0.00  0.00     0.147 C 
BRANCH   8   9
HETATM    9  C   UNK N   1      20.271  17.138   1.424  0.00  0.00     0.160 C 
BRANCH   9  10
HETATM   10  S   UNK N   1      19.781  15.422   0.910  0.00  0.00     0.145 S 
HETATM   11  O   UNK N   1      19.701  15.034   2.393  0.00  0.00    -0.228 OA
HETATM   12  O   UNK N   1      21.314  15.470   0.795  0.00  0.00    -0.228 OA
BRANCH  10  13
HETATM   13  C   UNK N   1      20.415  13.730   0.708  0.00  0.00     0.136 C 
HETATM   14  C   UNK N   1      21.927  13.698   0.738  0.00  0.00     0.021 C 
ENDBRANCH  10  13
ENDBRANCH   9  10
ENDBRANCH   8   9
ENDBRANCH   1   8
BRANCH   5  15
HETATM   15  N   UNK N   1      21.280  20.285   2.995  0.00  0.00    -0.096 N 
HETATM   16  O   UNK N   1      20.318  20.697   3.791  0.00  0.00    -0.530 OA
HETATM   17  O   UNK N   1      21.469  20.853   1.961  0.00  0.00    -0.530 OA
ENDBRANCH   5  15
TORSDOF 5
ENDMDL
