REMARK  11 active torsions:
REMARK  status: ('A' for Active; 'I' for Inactive)
REMARK    1  A    between atoms: O_2  and  C_28 
REMARK    2  A    between atoms: O_2  and  C_32 
REMARK    3  A    between atoms: O_3  and  C_31 
REMARK    4  A    between atoms: N_5  and  C_13 
REMARK    5  A    between atoms: C_12  and  N_6 
REMARK       I    between atoms: N_6  and  C_23 
REMARK    6  A    between atoms: C_12  and  C_14 
REMARK    7  A    between atoms: C_12  and  C_15 
REMARK    8  A    between atoms: C_15  and  C_16 
REMARK    9  A    between atoms: C_23  and  C_24 
REMARK   10  A    between atoms: C_24  and  C_25 
REMARK   11  A    between atoms: C_30  and  C_31 
ROOT
HETATM    1  O   UNK N   1       4.388  -1.259  -1.489  0.00  0.00    -0.273 OA
HETATM    2  N   UNK N   1       4.756  -1.371   0.719  0.00  0.00    -0.352 N 
HETATM    3  C   UNK N   1       4.082  -0.904  -0.361  0.00  0.00     0.222 C 
HETATM    4  H   UNK N   1       4.460  -1.087   1.614  0.00  0.00     0.163 HD
ENDROOT
BRANCH   2   5
HETATM    5  C   UNK N   1       5.893  -2.269   0.620  0.00  0.00     0.120 C 
BRANCH   5   6
HETATM    6  C   UNK N   1       7.181  -1.544   0.183  0.00  0.00    -0.009 A 
HETATM    7  C   UNK N   1       8.380  -2.110  -0.402  0.00  0.00     0.038 A 
HETATM    8  C   UNK N   1       9.497  -1.263  -0.575  0.00  0.00     0.030 A 
HETATM    9  C   UNK N   1       9.469   0.083  -0.236  0.00  0.00     0.002 A 
HETATM   10  C   UNK N   1       8.324   0.627   0.316  0.00  0.00     0.001 A 
HETATM   11  C   UNK N   1       7.215  -0.180   0.536  0.00  0.00     0.011 A 
BRANCH   7  12
HETATM   12  N   UNK N   1       8.554  -3.477  -0.805  0.00  0.00    -0.380 N 
HETATM   13  C   UNK N   1       7.568  -4.193  -1.580  0.00  0.00     0.123 C 
HETATM   14  C   UNK N   1       7.444  -5.628  -1.055  0.00  0.00     0.020 C 
HETATM   15  C   UNK N   1       8.815  -6.299  -0.968  0.00  0.00     0.003 C 
HETATM   16  C   UNK N   1       9.782  -5.449  -0.147  0.00  0.00     0.020 C 
HETATM   17  C   UNK N   1       9.878  -4.062  -0.770  0.00  0.00     0.123 C 
ENDBRANCH   7  12
ENDBRANCH   5   6
BRANCH   5  18
HETATM   18  C   UNK N   1       5.505  -3.646   0.098  0.00  0.00     0.034 C 
BRANCH  18  19
HETATM   19  C   UNK N   1       4.264  -4.240   0.747  0.00  0.00    -0.021 C 
HETATM   20  C   UNK N   1       4.395  -5.747   0.768  0.00  0.00     0.009 C 
HETATM   21  C   UNK N   1       3.038  -3.885  -0.074  0.00  0.00     0.009 C 
ENDBRANCH  18  19
ENDBRANCH   5  18
ENDBRANCH   2   5
BRANCH   3  22
HETATM   22  C   UNK N   1       2.956   0.062  -0.171  0.00  0.00     0.141 C 
BRANCH  22  23
HETATM   23  C   UNK N   1       3.425   1.465   0.086  0.00  0.00    -0.047 A 
HETATM   24  C   UNK N   1       2.565   2.520  -0.211  0.00  0.00     0.045 A 
HETATM   25  C   UNK N   1       2.976   3.855  -0.048  0.00  0.00     0.086 A 
HETATM   26  C   UNK N   1       4.284   4.128   0.420  0.00  0.00     0.071 A 
HETATM   27  C   UNK N   1       5.135   3.058   0.730  0.00  0.00     0.022 A 
HETATM   28  C   UNK N   1       4.711   1.742   0.564  0.00  0.00     0.009 A 
BRANCH  25  29
HETATM   29  O   UNK N   1       2.131   4.877  -0.348  0.00  0.00    -0.350 OA
BRANCH  29  30
HETATM   30  C   UNK N   1       0.834   4.703  -0.788  0.00  0.00     0.171 C 
HETATM   31  C   UNK N   1      -0.066   4.288   0.362  0.00  0.00     0.034 C 
ENDBRANCH  29  30
ENDBRANCH  25  29
BRANCH  26  32
HETATM   32  C   UNK N   1       4.800   5.508   0.590  0.00  0.00     0.178 C 
HETATM   33  O   UNK N   1       4.103   6.476   0.320  0.00  0.00    -0.646 OA
BRANCH  32  34
HETATM   34  O   UNK N   1       6.057   5.708   1.030  0.00  0.00    -0.773 OA
HETATM   35  H   UNK N   1       6.615   5.020   1.337  0.00  0.00     0.167 HD
ENDBRANCH  32  34
ENDBRANCH  26  32
ENDBRANCH  22  23
ENDBRANCH   3  22
TORSDOF 11
