MODEL 1
REMARK VINA RESULT:      -7.4      0.000      0.000
REMARK  11 active torsions:
REMARK  status: ('A' for Active; 'I' for Inactive)
REMARK    1  A    between atoms: O_2  and  C_28 
REMARK    2  A    between atoms: O_2  and  C_32 
REMARK    3  A    between atoms: O_3  and  C_31 
REMARK    4  A    between atoms: N_5  and  C_13 
REMARK    5  A    between atoms: C_12  and  N_6 
REMARK       I    between atoms: N_6  and  C_23 
REMARK    6  A    between atoms: C_12  and  C_14 
REMARK    7  A    between atoms: C_12  and  C_15 
REMARK    8  A    between atoms: C_15  and  C_16 
REMARK    9  A    between atoms: C_23  and  C_24 
REMARK   10  A    between atoms: C_24  and  C_25 
REMARK   11  A    between atoms: C_30  and  C_31 
ROOT
HETATM    1  O   UNK N   1      26.015  16.162   4.206  0.00  0.00    -0.273 OA
HETATM    2  N   UNK N   1      26.354  17.501   5.972  0.00  0.00    -0.352 N 
HETATM    3  C   UNK N   1      25.584  16.664   5.233  0.00  0.00     0.222 C 
HETATM    4  H   UNK N   1      25.983  17.860   6.810  0.00  0.00     0.163 HD
ENDROOT
BRANCH   2   5
HETATM    5  C   UNK N   1      27.698  17.893   5.586  0.00  0.00     0.120 C 
BRANCH   5   6
HETATM    6  C   UNK N   1      28.688  17.844   6.767  0.00  0.00    -0.009 A 
HETATM    7  C   UNK N   1      30.061  17.380   6.773  0.00  0.00     0.038 A 
HETATM    8  C   UNK N   1      30.723  17.284   8.017  0.00  0.00     0.030 A 
HETATM    9  C   UNK N   1      30.116  17.648   9.212  0.00  0.00     0.002 A 
HETATM   10  C   UNK N   1      28.809  18.097   9.208  0.00  0.00     0.001 A 
HETATM   11  C   UNK N   1      28.110  18.172   8.009  0.00  0.00     0.011 A 
BRANCH   7  12
HETATM   12  N   UNK N   1      30.817  16.976   5.622  0.00  0.00    -0.380 N 
HETATM   13  C   UNK N   1      32.228  17.250   5.479  0.00  0.00     0.123 C 
HETATM   14  C   UNK N   1      32.529  17.659   4.033  0.00  0.00     0.020 C 
HETATM   15  C   UNK N   1      31.963  16.637   3.046  0.00  0.00     0.003 C 
HETATM   16  C   UNK N   1      30.475  16.408   3.300  0.00  0.00     0.020 C 
HETATM   17  C   UNK N   1      30.279  15.959   4.743  0.00  0.00     0.123 C 
ENDBRANCH   7  12
ENDBRANCH   5   6
BRANCH   5  18
HETATM   18  C   UNK N   1      27.706  19.009   4.550  0.00  0.00     0.034 C 
BRANCH  18  19
HETATM   19  C   UNK N   1      26.576  20.017   4.701  0.00  0.00    -0.021 C 
HETATM   20  C   UNK N   1      26.194  20.533   3.331  0.00  0.00     0.009 C 
HETATM   21  C   UNK N   1      27.048  21.195   5.533  0.00  0.00     0.009 C 
ENDBRANCH  18  19
ENDBRANCH   5  18
ENDBRANCH   2   5
BRANCH   3  22
HETATM   22  C   UNK N   1      24.189  16.356   5.676  0.00  0.00     0.141 C 
BRANCH  22  23
HETATM   23  C   UNK N   1      23.145  17.050   4.850  0.00  0.00    -0.047 A 
HETATM   24  C   UNK N   1      22.057  16.311   4.392  0.00  0.00     0.045 A 
HETATM   25  C   UNK N   1      21.083  16.896   3.563  0.00  0.00     0.086 A 
HETATM   26  C   UNK N   1      21.215  18.254   3.186  0.00  0.00     0.071 A 
HETATM   27  C   UNK N   1      22.307  18.992   3.665  0.00  0.00     0.022 A 
HETATM   28  C   UNK N   1      23.261  18.397   4.486  0.00  0.00     0.009 A 
BRANCH  25  29
HETATM   29  O   UNK N   1      20.029  16.163   3.116  0.00  0.00    -0.350 OA
BRANCH  29  30
HETATM   30  C   UNK N   1      20.150  15.037   2.326  0.00  0.00     0.171 C 
HETATM   31  C   UNK N   1      20.379  15.427   0.877  0.00  0.00     0.034 C 
ENDBRANCH  29  30
ENDBRANCH  25  29
BRANCH  26  32
HETATM   32  C   UNK N   1      20.246  18.933   2.292  0.00  0.00     0.178 C 
HETATM   33  O   UNK N   1      20.613  19.801   1.513  0.00  0.00    -0.646 OA
BRANCH  32  34
HETATM   34  O   UNK N   1      18.940  18.609   2.344  0.00  0.00    -0.773 OA
HETATM   35  H   UNK N   1      18.431  18.628   3.131  0.00  0.00     0.167 HD
ENDBRANCH  32  34
ENDBRANCH  26  32
ENDBRANCH  22  23
ENDBRANCH   3  22
TORSDOF 11
ENDMDL
MODEL 2
REMARK VINA RESULT:      -7.3      1.029      1.876
REMARK  11 active torsions:
REMARK  status: ('A' for Active; 'I' for Inactive)
REMARK    1  A    between atoms: O_2  and  C_28 
REMARK    2  A    between atoms: O_2  and  C_32 
REMARK    3  A    between atoms: O_3  and  C_31 
REMARK    4  A    between atoms: N_5  and  C_13 
REMARK    5  A    between atoms: C_12  and  N_6 
REMARK       I    between atoms: N_6  and  C_23 
REMARK    6  A    between atoms: C_12  and  C_14 
REMARK    7  A    between atoms: C_12  and  C_15 
REMARK    8  A    between atoms: C_15  and  C_16 
REMARK    9  A    between atoms: C_23  and  C_24 
REMARK   10  A    between atoms: C_24  and  C_25 
REMARK   11  A    between atoms: C_30  and  C_31 
ROOT
HETATM    1  O   UNK N   1      26.099  16.607   3.950  0.00  0.00    -0.273 OA
HETATM    2  N   UNK N   1      26.372  17.441   6.012  0.00  0.00    -0.352 N 
HETATM    3  C   UNK N   1      25.660  16.763   5.079  0.00  0.00     0.222 C 
HETATM    4  H   UNK N   1      26.000  17.519   6.920  0.00  0.00     0.163 HD
ENDROOT
BRANCH   2   5
HETATM    5  C   UNK N   1      27.657  18.060   5.738  0.00  0.00     0.120 C 
BRANCH   5   6
HETATM    6  C   UNK N   1      28.657  17.882   6.897  0.00  0.00    -0.009 A 
HETATM    7  C   UNK N   1      29.998  17.333   6.856  0.00  0.00     0.038 A 
HETATM    8  C   UNK N   1      30.668  17.127   8.082  0.00  0.00     0.030 A 
HETATM    9  C   UNK N   1      30.100  17.460   9.305  0.00  0.00     0.002 A 
HETATM   10  C   UNK N   1      28.824  17.990   9.346  0.00  0.00     0.001 A 
HETATM   11  C   UNK N   1      28.117  18.176   8.165  0.00  0.00     0.011 A 
BRANCH   7  12
HETATM   12  N   UNK N   1      30.712  16.948   5.672  0.00  0.00    -0.380 N 
HETATM   13  C   UNK N   1      32.120  17.211   5.491  0.00  0.00     0.123 C 
HETATM   14  C   UNK N   1      32.380  17.650   4.045  0.00  0.00     0.020 C 
HETATM   15  C   UNK N   1      31.771  16.657   3.054  0.00  0.00     0.003 C 
HETATM   16  C   UNK N   1      30.289  16.438   3.350  0.00  0.00     0.020 C 
HETATM   17  C   UNK N   1      30.134  15.958   4.788  0.00  0.00     0.123 C 
ENDBRANCH   7  12
ENDBRANCH   5   6
BRANCH   5  18
HETATM   18  C   UNK N   1      27.524  19.360   4.956  0.00  0.00     0.034 C 
BRANCH  18  19
HETATM   19  C   UNK N   1      26.327  20.212   5.349  0.00  0.00    -0.021 C 
HETATM   20  C   UNK N   1      25.521  20.528   4.109  0.00  0.00     0.009 C 
HETATM   21  C   UNK N   1      26.807  21.523   5.946  0.00  0.00     0.009 C 
ENDBRANCH  18  19
ENDBRANCH   5  18
ENDBRANCH   2   5
BRANCH   3  22
HETATM   22  C   UNK N   1      24.318  16.204   5.433  0.00  0.00     0.141 C 
BRANCH  22  23
HETATM   23  C   UNK N   1      23.286  16.442   4.368  0.00  0.00    -0.047 A 
HETATM   24  C   UNK N   1      22.679  17.694   4.296  0.00  0.00     0.045 A 
HETATM   25  C   UNK N   1      21.663  17.951   3.359  0.00  0.00     0.086 A 
HETATM   26  C   UNK N   1      21.248  16.920   2.481  0.00  0.00     0.071 A 
HETATM   27  C   UNK N   1      21.877  15.669   2.553  0.00  0.00     0.022 A 
HETATM   28  C   UNK N   1      22.883  15.432   3.486  0.00  0.00     0.009 A 
BRANCH  25  29
HETATM   29  O   UNK N   1      21.072  19.174   3.302  0.00  0.00    -0.350 OA
BRANCH  29  30
HETATM   30  C   UNK N   1      21.651  20.285   2.721  0.00  0.00     0.171 C 
HETATM   31  C   UNK N   1      20.917  20.661   1.446  0.00  0.00     0.034 C 
ENDBRANCH  29  30
ENDBRANCH  25  29
BRANCH  26  32
HETATM   32  C   UNK N   1      20.164  17.105   1.487  0.00  0.00     0.178 C 
HETATM   33  O   UNK N   1      20.310  16.749   0.326  0.00  0.00    -0.646 OA
BRANCH  32  34
HETATM   34  O   UNK N   1      19.006  17.688   1.852  0.00  0.00    -0.773 OA
HETATM   35  H   UNK N   1      18.881  18.617   1.886  0.00  0.00     0.167 HD
ENDBRANCH  32  34
ENDBRANCH  26  32
ENDBRANCH  22  23
ENDBRANCH   3  22
TORSDOF 11
ENDMDL
MODEL 3
REMARK VINA RESULT:      -7.1      1.886      3.994
REMARK  11 active torsions:
REMARK  status: ('A' for Active; 'I' for Inactive)
REMARK    1  A    between atoms: O_2  and  C_28 
REMARK    2  A    between atoms: O_2  and  C_32 
REMARK    3  A    between atoms: O_3  and  C_31 
REMARK    4  A    between atoms: N_5  and  C_13 
REMARK    5  A    between atoms: C_12  and  N_6 
REMARK       I    between atoms: N_6  and  C_23 
REMARK    6  A    between atoms: C_12  and  C_14 
REMARK    7  A    between atoms: C_12  and  C_15 
REMARK    8  A    between atoms: C_15  and  C_16 
REMARK    9  A    between atoms: C_23  and  C_24 
REMARK   10  A    between atoms: C_24  and  C_25 
REMARK   11  A    between atoms: C_30  and  C_31 
ROOT
HETATM    1  O   UNK N   1      24.380  15.312   6.671  0.00  0.00    -0.273 OA
HETATM    2  N   UNK N   1      24.482  16.221   4.625  0.00  0.00    -0.352 N 
HETATM    3  C   UNK N   1      23.795  15.699   5.671  0.00  0.00     0.222 C 
HETATM    4  H   UNK N   1      23.973  16.552   3.850  0.00  0.00     0.163 HD
ENDROOT
BRANCH   2   5
HETATM    5  C   UNK N   1      25.930  16.315   4.592  0.00  0.00     0.120 C 
BRANCH   5   6
HETATM    6  C   UNK N   1      26.423  17.763   4.400  0.00  0.00    -0.009 A 
HETATM    7  C   UNK N   1      27.650  18.368   4.877  0.00  0.00     0.038 A 
HETATM    8  C   UNK N   1      27.811  19.762   4.710  0.00  0.00     0.030 A 
HETATM    9  C   UNK N   1      26.856  20.550   4.082  0.00  0.00     0.002 A 
HETATM   10  C   UNK N   1      25.688  19.974   3.619  0.00  0.00     0.001 A 
HETATM   11  C   UNK N   1      25.475  18.612   3.796  0.00  0.00     0.011 A 
BRANCH   7  12
HETATM   12  N   UNK N   1      28.724  17.682   5.538  0.00  0.00    -0.380 N 
HETATM   13  C   UNK N   1      28.696  17.363   6.946  0.00  0.00     0.123 C 
HETATM   14  C   UNK N   1      30.082  17.601   7.556  0.00  0.00     0.020 C 
HETATM   15  C   UNK N   1      31.165  16.885   6.748  0.00  0.00     0.003 C 
HETATM   16  C   UNK N   1      31.090  17.278   5.275  0.00  0.00     0.020 C 
HETATM   17  C   UNK N   1      29.697  16.961   4.745  0.00  0.00     0.123 C 
ENDBRANCH   7  12
ENDBRANCH   5   6
BRANCH   5  18
HETATM   18  C   UNK N   1      26.576  15.125   3.894  0.00  0.00     0.034 C 
BRANCH  18  19
HETATM   19  C   UNK N   1      27.075  15.414   2.486  0.00  0.00    -0.021 C 
HETATM   20  C   UNK N   1      25.923  15.265   1.517  0.00  0.00     0.009 C 
HETATM   21  C   UNK N   1      28.145  14.407   2.106  0.00  0.00     0.009 C 
ENDBRANCH  18  19
ENDBRANCH   5  18
ENDBRANCH   2   5
BRANCH   3  22
HETATM   22  C   UNK N   1      22.305  15.590   5.599  0.00  0.00     0.141 C 
BRANCH  22  23
HETATM   23  C   UNK N   1      21.756  15.952   4.250  0.00  0.00    -0.047 A 
HETATM   24  C   UNK N   1      21.231  17.230   4.065  0.00  0.00     0.045 A 
HETATM   25  C   UNK N   1      20.648  17.601   2.840  0.00  0.00     0.086 A 
HETATM   26  C   UNK N   1      20.590  16.660   1.784  0.00  0.00     0.071 A 
HETATM   27  C   UNK N   1      21.135  15.383   1.977  0.00  0.00     0.022 A 
HETATM   28  C   UNK N   1      21.710  15.033   3.196  0.00  0.00     0.009 A 
BRANCH  25  29
HETATM   29  O   UNK N   1      20.132  18.848   2.673  0.00  0.00    -0.350 OA
BRANCH  29  30
HETATM   30  C   UNK N   1      20.601  19.971   3.325  0.00  0.00     0.171 C 
HETATM   31  C   UNK N   1      21.775  20.571   2.573  0.00  0.00     0.034 C 
ENDBRANCH  29  30
ENDBRANCH  25  29
BRANCH  26  32
HETATM   32  C   UNK N   1      19.966  16.967   0.474  0.00  0.00     0.178 C 
HETATM   33  O   UNK N   1      19.137  16.214  -0.018  0.00  0.00    -0.646 OA
BRANCH  32  34
HETATM   34  O   UNK N   1      20.322  18.078  -0.199  0.00  0.00    -0.773 OA
HETATM   35  H   UNK N   1      19.707  18.707  -0.524  0.00  0.00     0.167 HD
ENDBRANCH  32  34
ENDBRANCH  26  32
ENDBRANCH  22  23
ENDBRANCH   3  22
TORSDOF 11
ENDMDL
MODEL 4
REMARK VINA RESULT:      -7.1      1.077      2.992
REMARK  11 active torsions:
REMARK  status: ('A' for Active; 'I' for Inactive)
REMARK    1  A    between atoms: O_2  and  C_28 
REMARK    2  A    between atoms: O_2  and  C_32 
REMARK    3  A    between atoms: O_3  and  C_31 
REMARK    4  A    between atoms: N_5  and  C_13 
REMARK    5  A    between atoms: C_12  and  N_6 
REMARK       I    between atoms: N_6  and  C_23 
REMARK    6  A    between atoms: C_12  and  C_14 
REMARK    7  A    between atoms: C_12  and  C_15 
REMARK    8  A    between atoms: C_15  and  C_16 
REMARK    9  A    between atoms: C_23  and  C_24 
REMARK   10  A    between atoms: C_24  and  C_25 
REMARK   11  A    between atoms: C_30  and  C_31 
ROOT
HETATM    1  O   UNK N   1      26.054  16.723   2.901  0.00  0.00    -0.273 OA
HETATM    2  N   UNK N   1      26.692  17.308   4.968  0.00  0.00    -0.352 N 
HETATM    3  C   UNK N   1      25.807  16.764   4.097  0.00  0.00     0.222 C 
HETATM    4  H   UNK N   1      26.472  17.294   5.928  0.00  0.00     0.163 HD
ENDROOT
BRANCH   2   5
HETATM    5  C   UNK N   1      27.947  17.911   4.555  0.00  0.00     0.120 C 
BRANCH   5   6
HETATM    6  C   UNK N   1      29.134  16.934   4.664  0.00  0.00    -0.009 A 
HETATM    7  C   UNK N   1      29.929  16.607   5.831  0.00  0.00     0.038 A 
HETATM    8  C   UNK N   1      31.071  15.797   5.650  0.00  0.00     0.030 A 
HETATM    9  C   UNK N   1      31.431  15.286   4.410  0.00  0.00     0.002 A 
HETATM   10  C   UNK N   1      30.671  15.591   3.296  0.00  0.00     0.001 A 
HETATM   11  C   UNK N   1      29.560  16.414   3.425  0.00  0.00     0.011 A 
BRANCH   7  12
HETATM   12  N   UNK N   1      29.678  17.056   7.172  0.00  0.00    -0.380 N 
HETATM   13  C   UNK N   1      28.358  17.063   7.757  0.00  0.00     0.123 C 
HETATM   14  C   UNK N   1      28.168  18.340   8.584  0.00  0.00     0.020 C 
HETATM   15  C   UNK N   1      29.319  18.528   9.572  0.00  0.00     0.003 C 
HETATM   16  C   UNK N   1      30.664  18.483   8.851  0.00  0.00     0.020 C 
HETATM   17  C   UNK N   1      30.783  17.162   8.101  0.00  0.00     0.123 C 
ENDBRANCH   7  12
ENDBRANCH   5   6
BRANCH   5  18
HETATM   18  C   UNK N   1      28.048  19.378   4.952  0.00  0.00     0.034 C 
BRANCH  18  19
HETATM   19  C   UNK N   1      26.712  20.099   5.047  0.00  0.00    -0.021 C 
HETATM   20  C   UNK N   1      26.281  20.519   3.659  0.00  0.00     0.009 C 
HETATM   21  C   UNK N   1      26.865  21.350   5.892  0.00  0.00     0.009 C 
ENDBRANCH  18  19
ENDBRANCH   5  18
ENDBRANCH   2   5
BRANCH   3  22
HETATM   22  C   UNK N   1      24.512  16.213   4.603  0.00  0.00     0.141 C 
BRANCH  22  23
HETATM   23  C   UNK N   1      23.318  16.980   4.112  0.00  0.00    -0.047 A 
HETATM   24  C   UNK N   1      22.338  16.299   3.392  0.00  0.00     0.045 A 
HETATM   25  C   UNK N   1      21.231  16.980   2.856  0.00  0.00     0.086 A 
HETATM   26  C   UNK N   1      21.114  18.378   3.048  0.00  0.00     0.071 A 
HETATM   27  C   UNK N   1      22.099  19.050   3.787  0.00  0.00     0.022 A 
HETATM   28  C   UNK N   1      23.188  18.359   4.312  0.00  0.00     0.009 A 
BRANCH  25  29
HETATM   29  O   UNK N   1      20.285  16.307   2.149  0.00  0.00    -0.350 OA
BRANCH  29  30
HETATM   30  C   UNK N   1      19.974  14.976   2.347  0.00  0.00     0.171 C 
HETATM   31  C   UNK N   1      20.185  14.186   1.068  0.00  0.00     0.034 C 
ENDBRANCH  29  30
ENDBRANCH  25  29
BRANCH  26  32
HETATM   32  C   UNK N   1      19.992  19.171   2.490  0.00  0.00     0.178 C 
HETATM   33  O   UNK N   1      20.171  20.309   2.080  0.00  0.00    -0.646 OA
BRANCH  32  34
HETATM   34  O   UNK N   1      18.753  18.645   2.446  0.00  0.00    -0.773 OA
HETATM   35  H   UNK N   1      18.533  17.876   1.958  0.00  0.00     0.167 HD
ENDBRANCH  32  34
ENDBRANCH  26  32
ENDBRANCH  22  23
ENDBRANCH   3  22
TORSDOF 11
ENDMDL
MODEL 5
REMARK VINA RESULT:      -7.0     11.248     14.127
REMARK  11 active torsions:
REMARK  status: ('A' for Active; 'I' for Inactive)
REMARK    1  A    between atoms: O_2  and  C_28 
REMARK    2  A    between atoms: O_2  and  C_32 
REMARK    3  A    between atoms: O_3  and  C_31 
REMARK    4  A    between atoms: N_5  and  C_13 
REMARK    5  A    between atoms: C_12  and  N_6 
REMARK       I    between atoms: N_6  and  C_23 
REMARK    6  A    between atoms: C_12  and  C_14 
REMARK    7  A    between atoms: C_12  and  C_15 
REMARK    8  A    between atoms: C_15  and  C_16 
REMARK    9  A    between atoms: C_23  and  C_24 
REMARK   10  A    between atoms: C_24  and  C_25 
REMARK   11  A    between atoms: C_30  and  C_31 
ROOT
HETATM    1  O   UNK N   1      25.271  23.363  -5.914  0.00  0.00    -0.273 OA
HETATM    2  N   UNK N   1      27.470  23.791  -5.960  0.00  0.00    -0.352 N 
HETATM    3  C   UNK N   1      26.246  23.871  -5.382  0.00  0.00     0.222 C 
HETATM    4  H   UNK N   1      28.238  24.184  -5.486  0.00  0.00     0.163 HD
ENDROOT
BRANCH   2   5
HETATM    5  C   UNK N   1      27.704  23.153  -7.244  0.00  0.00     0.120 C 
BRANCH   5   6
HETATM    6  C   UNK N   1      28.540  21.864  -7.119  0.00  0.00    -0.009 A 
HETATM    7  C   UNK N   1      29.669  21.603  -6.249  0.00  0.00     0.038 A 
HETATM    8  C   UNK N   1      30.377  20.393  -6.426  0.00  0.00     0.030 A 
HETATM    9  C   UNK N   1      30.007  19.447  -7.372  0.00  0.00     0.002 A 
HETATM   10  C   UNK N   1      28.925  19.691  -8.199  0.00  0.00     0.001 A 
HETATM   11  C   UNK N   1      28.224  20.885  -8.082  0.00  0.00     0.011 A 
BRANCH   7  12
HETATM   12  N   UNK N   1      30.164  22.481  -5.226  0.00  0.00    -0.380 N 
HETATM   13  C   UNK N   1      30.072  22.169  -3.819  0.00  0.00     0.123 C 
HETATM   14  C   UNK N   1      29.701  23.432  -3.035  0.00  0.00     0.020 C 
HETATM   15  C   UNK N   1      30.638  24.589  -3.384  0.00  0.00     0.003 C 
HETATM   16  C   UNK N   1      30.675  24.817  -4.894  0.00  0.00     0.020 C 
HETATM   17  C   UNK N   1      31.100  23.527  -5.583  0.00  0.00     0.123 C 
ENDBRANCH   7  12
ENDBRANCH   5   6
BRANCH   5  18
HETATM   18  C   UNK N   1      27.907  24.161  -8.367  0.00  0.00     0.034 C 
BRANCH  18  19
HETATM   19  C   UNK N   1      26.971  25.360  -8.316  0.00  0.00    -0.021 C 
HETATM   20  C   UNK N   1      26.178  25.418  -9.602  0.00  0.00     0.009 C 
HETATM   21  C   UNK N   1      27.782  26.637  -8.204  0.00  0.00     0.009 C 
ENDBRANCH  18  19
ENDBRANCH   5  18
ENDBRANCH   2   5
BRANCH   3  22
HETATM   22  C   UNK N   1      26.085  24.594  -4.083  0.00  0.00     0.141 C 
BRANCH  22  23
HETATM   23  C   UNK N   1      26.327  26.071  -4.202  0.00  0.00    -0.047 A 
HETATM   24  C   UNK N   1      27.495  26.601  -3.658  0.00  0.00     0.045 A 
HETATM   25  C   UNK N   1      27.741  27.986  -3.686  0.00  0.00     0.086 A 
HETATM   26  C   UNK N   1      26.786  28.851  -4.272  0.00  0.00     0.071 A 
HETATM   27  C   UNK N   1      25.621  28.304  -4.829  0.00  0.00     0.022 A 
HETATM   28  C   UNK N   1      25.394  26.931  -4.794  0.00  0.00     0.009 A 
BRANCH  25  29
HETATM   29  O   UNK N   1      28.881  28.493  -3.146  0.00  0.00    -0.350 OA
BRANCH  29  30
HETATM   30  C   UNK N   1      30.138  28.319  -3.690  0.00  0.00     0.171 C 
HETATM   31  C   UNK N   1      31.197  28.352  -2.603  0.00  0.00     0.034 C 
ENDBRANCH  29  30
ENDBRANCH  25  29
BRANCH  26  32
HETATM   32  C   UNK N   1      26.960  30.323  -4.314  0.00  0.00     0.178 C 
HETATM   33  O   UNK N   1      26.200  31.062  -3.705  0.00  0.00    -0.646 OA
BRANCH  32  34
HETATM   34  O   UNK N   1      27.955  30.863  -5.043  0.00  0.00    -0.773 OA
HETATM   35  H   UNK N   1      27.852  31.627  -5.576  0.00  0.00     0.167 HD
ENDBRANCH  32  34
ENDBRANCH  26  32
ENDBRANCH  22  23
ENDBRANCH   3  22
TORSDOF 11
ENDMDL
MODEL 6
REMARK VINA RESULT:      -6.9     11.171     14.342
REMARK  11 active torsions:
REMARK  status: ('A' for Active; 'I' for Inactive)
REMARK    1  A    between atoms: O_2  and  C_28 
REMARK    2  A    between atoms: O_2  and  C_32 
REMARK    3  A    between atoms: O_3  and  C_31 
REMARK    4  A    between atoms: N_5  and  C_13 
REMARK    5  A    between atoms: C_12  and  N_6 
REMARK       I    between atoms: N_6  and  C_23 
REMARK    6  A    between atoms: C_12  and  C_14 
REMARK    7  A    between atoms: C_12  and  C_15 
REMARK    8  A    between atoms: C_15  and  C_16 
REMARK    9  A    between atoms: C_23  and  C_24 
REMARK   10  A    between atoms: C_24  and  C_25 
REMARK   11  A    between atoms: C_30  and  C_31 
ROOT
HETATM    1  O   UNK N   1      30.602  25.033  -2.955  0.00  0.00    -0.273 OA
HETATM    2  N   UNK N   1      29.059  24.244  -4.375  0.00  0.00    -0.352 N 
HETATM    3  C   UNK N   1      29.913  24.098  -3.332  0.00  0.00     0.222 C 
HETATM    4  H   UNK N   1      28.497  23.477  -4.630  0.00  0.00     0.163 HD
ENDROOT
BRANCH   2   5
HETATM    5  C   UNK N   1      28.934  25.475  -5.135  0.00  0.00     0.120 C 
BRANCH   5   6
HETATM    6  C   UNK N   1      27.532  26.104  -5.014  0.00  0.00    -0.009 A 
HETATM    7  C   UNK N   1      26.327  25.768  -5.745  0.00  0.00     0.038 A 
HETATM    8  C   UNK N   1      25.194  26.593  -5.572  0.00  0.00     0.030 A 
HETATM    9  C   UNK N   1      25.192  27.681  -4.709  0.00  0.00     0.002 A 
HETATM   10  C   UNK N   1      26.338  27.999  -4.004  0.00  0.00     0.001 A 
HETATM   11  C   UNK N   1      27.485  27.234  -4.174  0.00  0.00     0.011 A 
BRANCH   7  12
HETATM   12  N   UNK N   1      26.179  24.675  -6.665  0.00  0.00    -0.380 N 
HETATM   13  C   UNK N   1      26.064  23.302  -6.233  0.00  0.00     0.123 C 
HETATM   14  C   UNK N   1      26.875  22.398  -7.169  0.00  0.00     0.020 C 
HETATM   15  C   UNK N   1      26.505  22.653  -8.630  0.00  0.00     0.003 C 
HETATM   16  C   UNK N   1      26.640  24.135  -8.973  0.00  0.00     0.020 C 
HETATM   17  C   UNK N   1      25.765  24.947  -8.026  0.00  0.00     0.123 C 
ENDBRANCH   7  12
ENDBRANCH   5   6
BRANCH   5  18
HETATM   18  C   UNK N   1      29.707  25.432  -6.447  0.00  0.00     0.034 C 
BRANCH  18  19
HETATM   19  C   UNK N   1      30.334  24.083  -6.766  0.00  0.00    -0.021 C 
HETATM   20  C   UNK N   1      31.816  24.148  -6.468  0.00  0.00     0.009 C 
HETATM   21  C   UNK N   1      30.163  23.777  -8.242  0.00  0.00     0.009 C 
ENDBRANCH  18  19
ENDBRANCH   5  18
ENDBRANCH   2   5
BRANCH   3  22
HETATM   22  C   UNK N   1      30.018  22.777  -2.639  0.00  0.00     0.141 C 
BRANCH  22  23
HETATM   23  C   UNK N   1      31.077  21.890  -3.227  0.00  0.00    -0.047 A 
HETATM   24  C   UNK N   1      30.782  21.181  -4.390  0.00  0.00     0.045 A 
HETATM   25  C   UNK N   1      31.715  20.289  -4.948  0.00  0.00     0.086 A 
HETATM   26  C   UNK N   1      32.968  20.107  -4.316  0.00  0.00     0.071 A 
HETATM   27  C   UNK N   1      33.259  20.837  -3.155  0.00  0.00     0.022 A 
HETATM   28  C   UNK N   1      32.324  21.717  -2.616  0.00  0.00     0.009 A 
BRANCH  25  29
HETATM   29  O   UNK N   1      31.414  19.596  -6.079  0.00  0.00    -0.350 OA
BRANCH  29  30
HETATM   30  C   UNK N   1      30.869  20.167  -7.212  0.00  0.00     0.171 C 
HETATM   31  C   UNK N   1      29.496  19.583  -7.492  0.00  0.00     0.034 C 
ENDBRANCH  29  30
ENDBRANCH  25  29
BRANCH  26  32
HETATM   32  C   UNK N   1      33.992  19.163  -4.827  0.00  0.00     0.178 C 
HETATM   33  O   UNK N   1      34.569  18.393  -4.071  0.00  0.00    -0.646 OA
BRANCH  32  34
HETATM   34  O   UNK N   1      34.311  19.159  -6.135  0.00  0.00    -0.773 OA
HETATM   35  H   UNK N   1      34.411  19.937  -6.648  0.00  0.00     0.167 HD
ENDBRANCH  32  34
ENDBRANCH  26  32
ENDBRANCH  22  23
ENDBRANCH   3  22
TORSDOF 11
ENDMDL
MODEL 7
REMARK VINA RESULT:      -6.9      1.729      3.631
REMARK  11 active torsions:
REMARK  status: ('A' for Active; 'I' for Inactive)
REMARK    1  A    between atoms: O_2  and  C_28 
REMARK    2  A    between atoms: O_2  and  C_32 
REMARK    3  A    between atoms: O_3  and  C_31 
REMARK    4  A    between atoms: N_5  and  C_13 
REMARK    5  A    between atoms: C_12  and  N_6 
REMARK       I    between atoms: N_6  and  C_23 
REMARK    6  A    between atoms: C_12  and  C_14 
REMARK    7  A    between atoms: C_12  and  C_15 
REMARK    8  A    between atoms: C_15  and  C_16 
REMARK    9  A    between atoms: C_23  and  C_24 
REMARK   10  A    between atoms: C_24  and  C_25 
REMARK   11  A    between atoms: C_30  and  C_31 
ROOT
HETATM    1  O   UNK N   1      25.011  15.317   6.927  0.00  0.00    -0.273 OA
HETATM    2  N   UNK N   1      24.691  16.205   4.894  0.00  0.00    -0.352 N 
HETATM    3  C   UNK N   1      24.234  15.658   6.049  0.00  0.00     0.222 C 
HETATM    4  H   UNK N   1      24.032  16.497   4.223  0.00  0.00     0.163 HD
ENDROOT
BRANCH   2   5
HETATM    5  C   UNK N   1      26.102  16.379   4.600  0.00  0.00     0.120 C 
BRANCH   5   6
HETATM    6  C   UNK N   1      26.450  17.832   4.219  0.00  0.00    -0.009 A 
HETATM    7  C   UNK N   1      27.599  18.618   4.619  0.00  0.00     0.038 A 
HETATM    8  C   UNK N   1      27.621  19.986   4.267  0.00  0.00     0.030 A 
HETATM    9  C   UNK N   1      26.605  20.582   3.532  0.00  0.00     0.002 A 
HETATM   10  C   UNK N   1      25.511  19.831   3.143  0.00  0.00     0.001 A 
HETATM   11  C   UNK N   1      25.433  18.491   3.499  0.00  0.00     0.011 A 
BRANCH   7  12
HETATM   12  N   UNK N   1      28.723  18.141   5.374  0.00  0.00    -0.380 N 
HETATM   13  C   UNK N   1      29.970  17.755   4.757  0.00  0.00     0.123 C 
HETATM   14  C   UNK N   1      30.513  16.494   5.440  0.00  0.00     0.020 C 
HETATM   15  C   UNK N   1      30.568  16.674   6.957  0.00  0.00     0.003 C 
HETATM   16  C   UNK N   1      29.206  17.102   7.500  0.00  0.00     0.020 C 
HETATM   17  C   UNK N   1      28.772  18.384   6.801  0.00  0.00     0.123 C 
ENDBRANCH   7  12
ENDBRANCH   5   6
BRANCH   5  18
HETATM   18  C   UNK N   1      26.703  15.174   3.889  0.00  0.00     0.034 C 
BRANCH  18  19
HETATM   19  C   UNK N   1      26.890  15.355   2.390  0.00  0.00    -0.021 C 
HETATM   20  C   UNK N   1      25.742  14.684   1.668  0.00  0.00     0.009 C 
HETATM   21  C   UNK N   1      28.179  14.684   1.952  0.00  0.00     0.009 C 
ENDBRANCH  18  19
ENDBRANCH   5  18
ENDBRANCH   2   5
BRANCH   3  22
HETATM   22  C   UNK N   1      22.765  15.465   6.247  0.00  0.00     0.141 C 
BRANCH  22  23
HETATM   23  C   UNK N   1      21.933  16.387   5.402  0.00  0.00    -0.047 A 
HETATM   24  C   UNK N   1      21.220  15.849   4.333  0.00  0.00     0.045 A 
HETATM   25  C   UNK N   1      20.475  16.675   3.473  0.00  0.00     0.086 A 
HETATM   26  C   UNK N   1      20.456  18.073   3.695  0.00  0.00     0.071 A 
HETATM   27  C   UNK N   1      21.165  18.601   4.783  0.00  0.00     0.022 A 
HETATM   28  C   UNK N   1      21.896  17.768   5.626  0.00  0.00     0.009 A 
BRANCH  25  29
HETATM   29  O   UNK N   1      19.788  16.141   2.428  0.00  0.00    -0.350 OA
BRANCH  29  30
HETATM   30  C   UNK N   1      20.382  15.487   1.367  0.00  0.00     0.171 C 
HETATM   31  C   UNK N   1      19.524  14.320   0.914  0.00  0.00     0.034 C 
ENDBRANCH  29  30
ENDBRANCH  25  29
BRANCH  26  32
HETATM   32  C   UNK N   1      19.718  19.012   2.815  0.00  0.00     0.178 C 
HETATM   33  O   UNK N   1      20.229  20.062   2.451  0.00  0.00    -0.646 OA
BRANCH  32  34
HETATM   34  O   UNK N   1      18.463  18.722   2.422  0.00  0.00    -0.773 OA
HETATM   35  H   UNK N   1      17.717  19.247   2.639  0.00  0.00     0.167 HD
ENDBRANCH  32  34
ENDBRANCH  26  32
ENDBRANCH  22  23
ENDBRANCH   3  22
TORSDOF 11
ENDMDL
MODEL 8
REMARK VINA RESULT:      -6.8      2.299      5.062
REMARK  11 active torsions:
REMARK  status: ('A' for Active; 'I' for Inactive)
REMARK    1  A    between atoms: O_2  and  C_28 
REMARK    2  A    between atoms: O_2  and  C_32 
REMARK    3  A    between atoms: O_3  and  C_31 
REMARK    4  A    between atoms: N_5  and  C_13 
REMARK    5  A    between atoms: C_12  and  N_6 
REMARK       I    between atoms: N_6  and  C_23 
REMARK    6  A    between atoms: C_12  and  C_14 
REMARK    7  A    between atoms: C_12  and  C_15 
REMARK    8  A    between atoms: C_15  and  C_16 
REMARK    9  A    between atoms: C_23  and  C_24 
REMARK   10  A    between atoms: C_24  and  C_25 
REMARK   11  A    between atoms: C_30  and  C_31 
ROOT
HETATM    1  O   UNK N   1      29.107  14.777   4.702  0.00  0.00    -0.273 OA
HETATM    2  N   UNK N   1      29.792  16.906   4.556  0.00  0.00    -0.352 N 
HETATM    3  C   UNK N   1      29.031  15.862   4.146  0.00  0.00     0.222 C 
HETATM    4  H   UNK N   1      29.680  17.773   4.104  0.00  0.00     0.163 HD
ENDROOT
BRANCH   2   5
HETATM    5  C   UNK N   1      30.765  16.808   5.630  0.00  0.00     0.120 C 
BRANCH   5   6
HETATM    6  C   UNK N   1      30.237  17.386   6.958  0.00  0.00    -0.009 A 
HETATM    7  C   UNK N   1      30.816  17.277   8.282  0.00  0.00     0.038 A 
HETATM    8  C   UNK N   1      30.065  17.760   9.376  0.00  0.00     0.030 A 
HETATM    9  C   UNK N   1      28.821  18.357   9.219  0.00  0.00     0.002 A 
HETATM   10  C   UNK N   1      28.270  18.469   7.956  0.00  0.00     0.001 A 
HETATM   11  C   UNK N   1      28.960  17.974   6.857  0.00  0.00     0.011 A 
BRANCH   7  12
HETATM   12  N   UNK N   1      32.088  16.691   8.598  0.00  0.00    -0.380 N 
HETATM   13  C   UNK N   1      33.284  17.478   8.784  0.00  0.00     0.123 C 
HETATM   14  C   UNK N   1      34.476  16.766   8.134  0.00  0.00     0.020 C 
HETATM   15  C   UNK N   1      34.572  15.315   8.609  0.00  0.00     0.003 C 
HETATM   16  C   UNK N   1      33.250  14.585   8.385  0.00  0.00     0.020 C 
HETATM   17  C   UNK N   1      32.137  15.336   9.106  0.00  0.00     0.123 C 
ENDBRANCH   7  12
ENDBRANCH   5   6
BRANCH   5  18
HETATM   18  C   UNK N   1      32.192  17.024   5.146  0.00  0.00     0.034 C 
BRANCH  18  19
HETATM   19  C   UNK N   1      32.736  15.910   4.265  0.00  0.00    -0.021 C 
HETATM   20  C   UNK N   1      34.062  15.445   4.824  0.00  0.00     0.009 C 
HETATM   21  C   UNK N   1      32.974  16.437   2.862  0.00  0.00     0.009 C 
ENDBRANCH  18  19
ENDBRANCH   5  18
ENDBRANCH   2   5
BRANCH   3  22
HETATM   22  C   UNK N   1      28.093  16.036   2.994  0.00  0.00     0.141 C 
BRANCH  22  23
HETATM   23  C   UNK N   1      26.779  16.642   3.395  0.00  0.00    -0.047 A 
HETATM   24  C   UNK N   1      26.784  17.870   4.053  0.00  0.00     0.045 A 
HETATM   25  C   UNK N   1      25.587  18.452   4.506  0.00  0.00     0.086 A 
HETATM   26  C   UNK N   1      24.361  17.777   4.294  0.00  0.00     0.071 A 
HETATM   27  C   UNK N   1      24.367  16.549   3.618  0.00  0.00     0.022 A 
HETATM   28  C   UNK N   1      25.561  15.987   3.174  0.00  0.00     0.009 A 
BRANCH  25  29
HETATM   29  O   UNK N   1      25.605  19.648   5.153  0.00  0.00    -0.350 OA
BRANCH  29  30
HETATM   30  C   UNK N   1      26.402  20.714   4.785  0.00  0.00     0.171 C 
HETATM   31  C   UNK N   1      27.000  21.378   6.012  0.00  0.00     0.034 C 
ENDBRANCH  29  30
ENDBRANCH  25  29
BRANCH  26  32
HETATM   32  C   UNK N   1      23.062  18.312   4.767  0.00  0.00     0.178 C 
HETATM   33  O   UNK N   1      22.343  18.964   4.023  0.00  0.00    -0.646 OA
BRANCH  32  34
HETATM   34  O   UNK N   1      22.667  18.098   6.037  0.00  0.00    -0.773 OA
HETATM   35  H   UNK N   1      22.807  17.292   6.495  0.00  0.00     0.167 HD
ENDBRANCH  32  34
ENDBRANCH  26  32
ENDBRANCH  22  23
ENDBRANCH   3  22
TORSDOF 11
ENDMDL
MODEL 9
REMARK VINA RESULT:      -6.7     10.585     13.778
REMARK  11 active torsions:
REMARK  status: ('A' for Active; 'I' for Inactive)
REMARK    1  A    between atoms: O_2  and  C_28 
REMARK    2  A    between atoms: O_2  and  C_32 
REMARK    3  A    between atoms: O_3  and  C_31 
REMARK    4  A    between atoms: N_5  and  C_13 
REMARK    5  A    between atoms: C_12  and  N_6 
REMARK       I    between atoms: N_6  and  C_23 
REMARK    6  A    between atoms: C_12  and  C_14 
REMARK    7  A    between atoms: C_12  and  C_15 
REMARK    8  A    between atoms: C_15  and  C_16 
REMARK    9  A    between atoms: C_23  and  C_24 
REMARK   10  A    between atoms: C_24  and  C_25 
REMARK   11  A    between atoms: C_30  and  C_31 
ROOT
HETATM    1  O   UNK N   1      26.777  23.935  -2.802  0.00  0.00    -0.273 OA
HETATM    2  N   UNK N   1      28.096  23.852  -4.612  0.00  0.00    -0.352 N 
HETATM    3  C   UNK N   1      27.869  23.681  -3.286  0.00  0.00     0.222 C 
HETATM    4  H   UNK N   1      28.979  23.606  -4.971  0.00  0.00     0.163 HD
ENDROOT
BRANCH   2   5
HETATM    5  C   UNK N   1      27.100  24.382  -5.527  0.00  0.00     0.120 C 
BRANCH   5   6
HETATM    6  C   UNK N   1      26.870  25.894  -5.338  0.00  0.00    -0.009 A 
HETATM    7  C   UNK N   1      27.847  26.926  -5.054  0.00  0.00     0.038 A 
HETATM    8  C   UNK N   1      27.375  28.225  -4.766  0.00  0.00     0.030 A 
HETATM    9  C   UNK N   1      26.024  28.545  -4.780  0.00  0.00     0.002 A 
HETATM   10  C   UNK N   1      25.090  27.564  -5.058  0.00  0.00     0.001 A 
HETATM   11  C   UNK N   1      25.511  26.265  -5.311  0.00  0.00     0.011 A 
BRANCH   7  12
HETATM   12  N   UNK N   1      29.271  26.746  -5.010  0.00  0.00    -0.380 N 
HETATM   13  C   UNK N   1      30.064  26.507  -6.193  0.00  0.00     0.123 C 
HETATM   14  C   UNK N   1      31.136  25.454  -5.890  0.00  0.00     0.020 C 
HETATM   15  C   UNK N   1      31.931  25.827  -4.638  0.00  0.00     0.003 C 
HETATM   16  C   UNK N   1      30.996  26.078  -3.458  0.00  0.00     0.020 C 
HETATM   17  C   UNK N   1      30.002  27.169  -3.833  0.00  0.00     0.123 C 
ENDBRANCH   7  12
ENDBRANCH   5   6
BRANCH   5  18
HETATM   18  C   UNK N   1      25.964  23.401  -5.784  0.00  0.00     0.034 C 
BRANCH  18  19
HETATM   19  C   UNK N   1      25.993  22.747  -7.157  0.00  0.00    -0.021 C 
HETATM   20  C   UNK N   1      25.637  23.781  -8.201  0.00  0.00     0.009 C 
HETATM   21  C   UNK N   1      24.957  21.639  -7.218  0.00  0.00     0.009 C 
ENDBRANCH  18  19
ENDBRANCH   5  18
ENDBRANCH   2   5
BRANCH   3  22
HETATM   22  C   UNK N   1      28.969  23.181  -2.405  0.00  0.00     0.141 C 
BRANCH  22  23
HETATM   23  C   UNK N   1      30.049  22.466  -3.164  0.00  0.00    -0.047 A 
HETATM   24  C   UNK N   1      29.707  21.792  -4.335  0.00  0.00     0.045 A 
HETATM   25  C   UNK N   1      30.666  21.055  -5.052  0.00  0.00     0.086 A 
HETATM   26  C   UNK N   1      31.997  20.994  -4.572  0.00  0.00     0.071 A 
HETATM   27  C   UNK N   1      32.333  21.689  -3.402  0.00  0.00     0.022 A 
HETATM   28  C   UNK N   1      31.371  22.415  -2.705  0.00  0.00     0.009 A 
BRANCH  25  29
HETATM   29  O   UNK N   1      30.319  20.396  -6.189  0.00  0.00    -0.350 OA
BRANCH  29  30
HETATM   30  C   UNK N   1      29.392  20.862  -7.100  0.00  0.00     0.171 C 
HETATM   31  C   UNK N   1      28.752  19.705  -7.846  0.00  0.00     0.034 C 
ENDBRANCH  29  30
ENDBRANCH  25  29
BRANCH  26  32
HETATM   32  C   UNK N   1      33.057  20.215  -5.256  0.00  0.00     0.178 C 
HETATM   33  O   UNK N   1      33.743  19.413  -4.638  0.00  0.00    -0.646 OA
BRANCH  32  34
HETATM   34  O   UNK N   1      33.288  20.399  -6.570  0.00  0.00    -0.773 OA
HETATM   35  H   UNK N   1      33.920  21.004  -6.907  0.00  0.00     0.167 HD
ENDBRANCH  32  34
ENDBRANCH  26  32
ENDBRANCH  22  23
ENDBRANCH   3  22
TORSDOF 11
ENDMDL
