MODEL 1
REMARK VINA RESULT:      -7.0      0.000      0.000
REMARK  8 active torsions:
REMARK  status: ('A' for Active; 'I' for Inactive)
REMARK    1  A    between atoms: O_1  and  C_12 
REMARK    2  A    between atoms: O_1  and  C_20 
REMARK    3  A    between atoms: N_3  and  C_11 
REMARK    4  A    between atoms: N_4  and  C_26 
REMARK    5  A    between atoms: C_5  and  C_10 
REMARK    6  A    between atoms: C_5  and  C_12 
REMARK    7  A    between atoms: C_11  and  C_13 
REMARK    8  A    between atoms: C_13  and  C_16 
ROOT
HETATM    1  N   UNK N   1      35.871   9.775  14.732  0.00  0.00     0.088 N 
HETATM    2  C   UNK N   1      36.087  12.747  14.302  0.00  0.00     0.078 C 
HETATM    3  C   UNK N   1      34.769  11.971  14.470  0.00  0.00     0.055 C 
HETATM    4  C   UNK N   1      37.296  11.784  14.243  0.00  0.00     0.055 C 
HETATM    5  C   UNK N   1      34.897  10.546  13.938  0.00  0.00     0.274 C 
HETATM    6  C   UNK N   1      37.073  10.541  15.113  0.00  0.00     0.274 C 
ENDROOT
BRANCH   1   7
HETATM    7  C   UNK N   1      35.225   9.356  15.972  0.00  0.00     0.277 C 
BRANCH   7   8
HETATM    8  C   UNK N   1      36.220   9.347  17.128  0.00  0.00     0.068 C 
BRANCH   8   9
HETATM    9  C   UNK N   1      35.544   9.725  18.400  0.00  0.00    -0.056 A 
HETATM   10  C   UNK N   1      34.424   9.010  18.842  0.00  0.00     0.009 A 
HETATM   11  C   UNK N   1      33.783   9.377  20.028  0.00  0.00     0.029 A 
HETATM   12  C   UNK N   1      34.261  10.460  20.772  0.00  0.00     0.025 A 
HETATM   13  C   UNK N   1      35.381  11.172  20.333  0.00  0.00     0.029 A 
HETATM   14  C   UNK N   1      36.023  10.804  19.147  0.00  0.00     0.009 A 
BRANCH  12  15
HETATM   15  N   UNK N   1      33.612  10.833  21.965  0.00  0.00    -0.399 N 
HETATM   16  H   UNK N   1      33.412  10.319  22.780  0.00  0.00     0.156 HD
HETATM   17  H   UNK N   1      33.307  11.768  21.987  0.00  0.00     0.156 HD
ENDBRANCH  12  15
ENDBRANCH   8   9
ENDBRANCH   7   8
ENDBRANCH   1   7
BRANCH   2  18
HETATM   18  C   UNK N   1      36.222  13.655  15.531  0.00  0.00    -0.040 A 
HETATM   19  C   UNK N   1      37.113  14.741  15.577  0.00  0.00     0.008 A 
HETATM   20  C   UNK N   1      37.190  15.560  16.707  0.00  0.00     0.001 A 
HETATM   21  C   UNK N   1      36.383  15.299  17.815  0.00  0.00     0.000 A 
HETATM   22  C   UNK N   1      35.492  14.226  17.790  0.00  0.00     0.001 A 
HETATM   23  C   UNK N   1      35.406  13.416  16.656  0.00  0.00     0.008 A 
ENDBRANCH   2  18
BRANCH   2  24
HETATM   24  C   UNK N   1      36.033  13.427  12.938  0.00  0.00     0.272 C 
HETATM   25  O   UNK N   1      36.953  13.327  12.136  0.00  0.00    -0.264 OA
BRANCH  24  26
HETATM   26  O   UNK N   1      34.927  14.147  12.612  0.00  0.00    -0.321 OA
BRANCH  26  27
HETATM   27  C   UNK N   1      34.738  14.714  11.370  0.00  0.00     0.174 C 
HETATM   28  C   UNK N   1      35.316  16.116  11.343  0.00  0.00     0.034 C 
ENDBRANCH  26  27
ENDBRANCH  24  26
ENDBRANCH   2  24
TORSDOF 8
ENDMDL
MODEL 2
REMARK VINA RESULT:      -6.8      9.442     12.458
REMARK  8 active torsions:
REMARK  status: ('A' for Active; 'I' for Inactive)
REMARK    1  A    between atoms: O_1  and  C_12 
REMARK    2  A    between atoms: O_1  and  C_20 
REMARK    3  A    between atoms: N_3  and  C_11 
REMARK    4  A    between atoms: N_4  and  C_26 
REMARK    5  A    between atoms: C_5  and  C_10 
REMARK    6  A    between atoms: C_5  and  C_12 
REMARK    7  A    between atoms: C_11  and  C_13 
REMARK    8  A    between atoms: C_13  and  C_16 
ROOT
HETATM    1  N   UNK N   1      31.666  15.988   3.977  0.00  0.00     0.088 N 
HETATM    2  C   UNK N   1      29.217  16.453   5.665  0.00  0.00     0.078 C 
HETATM    3  C   UNK N   1      30.126  15.215   5.748  0.00  0.00     0.055 C 
HETATM    4  C   UNK N   1      29.640  17.377   4.500  0.00  0.00     0.055 C 
HETATM    5  C   UNK N   1      30.759  14.904   4.394  0.00  0.00     0.274 C 
HETATM    6  C   UNK N   1      31.157  17.342   4.270  0.00  0.00     0.274 C 
ENDROOT
BRANCH   1   7
HETATM    7  C   UNK N   1      32.923  15.842   4.705  0.00  0.00     0.277 C 
BRANCH   7   8
HETATM    8  C   UNK N   1      33.418  17.192   5.212  0.00  0.00     0.068 C 
BRANCH   8   9
HETATM    9  C   UNK N   1      33.850  17.088   6.634  0.00  0.00    -0.056 A 
HETATM   10  C   UNK N   1      33.951  15.834   7.249  0.00  0.00     0.009 A 
HETATM   11  C   UNK N   1      34.341  15.741   8.587  0.00  0.00     0.029 A 
HETATM   12  C   UNK N   1      34.629  16.902   9.311  0.00  0.00     0.025 A 
HETATM   13  C   UNK N   1      34.531  18.154   8.697  0.00  0.00     0.029 A 
HETATM   14  C   UNK N   1      34.142  18.247   7.358  0.00  0.00     0.009 A 
BRANCH  12  15
HETATM   15  N   UNK N   1      35.018  16.808  10.661  0.00  0.00    -0.399 N 
HETATM   16  H   UNK N   1      34.763  16.170  11.366  0.00  0.00     0.156 HD
HETATM   17  H   UNK N   1      35.657  17.501  10.950  0.00  0.00     0.156 HD
ENDBRANCH  12  15
ENDBRANCH   8   9
ENDBRANCH   7   8
ENDBRANCH   1   7
BRANCH   2  18
HETATM   18  C   UNK N   1      29.377  17.205   6.992  0.00  0.00    -0.040 A 
HETATM   19  C   UNK N   1      28.357  18.005   7.538  0.00  0.00     0.008 A 
HETATM   20  C   UNK N   1      28.532  18.656   8.762  0.00  0.00     0.001 A 
HETATM   21  C   UNK N   1      29.735  18.525   9.457  0.00  0.00     0.000 A 
HETATM   22  C   UNK N   1      30.760  17.738   8.932  0.00  0.00     0.001 A 
HETATM   23  C   UNK N   1      30.579  17.076   7.716  0.00  0.00     0.008 A 
ENDBRANCH   2  18
BRANCH   2  24
HETATM   24  C   UNK N   1      27.819  15.956   5.311  0.00  0.00     0.272 C 
HETATM   25  O   UNK N   1      27.343  14.957   5.836  0.00  0.00    -0.264 OA
BRANCH  24  26
HETATM   26  O   UNK N   1      27.091  16.652   4.398  0.00  0.00    -0.321 OA
BRANCH  26  27
HETATM   27  C   UNK N   1      25.926  17.316   4.714  0.00  0.00     0.174 C 
HETATM   28  C   UNK N   1      26.138  18.815   4.623  0.00  0.00     0.034 C 
ENDBRANCH  26  27
ENDBRANCH  24  26
ENDBRANCH   2  24
TORSDOF 8
ENDMDL
MODEL 3
REMARK VINA RESULT:      -6.5     22.465     25.690
REMARK  8 active torsions:
REMARK  status: ('A' for Active; 'I' for Inactive)
REMARK    1  A    between atoms: O_1  and  C_12 
REMARK    2  A    between atoms: O_1  and  C_20 
REMARK    3  A    between atoms: N_3  and  C_11 
REMARK    4  A    between atoms: N_4  and  C_26 
REMARK    5  A    between atoms: C_5  and  C_10 
REMARK    6  A    between atoms: C_5  and  C_12 
REMARK    7  A    between atoms: C_11  and  C_13 
REMARK    8  A    between atoms: C_13  and  C_16 
ROOT
HETATM    1  N   UNK N   1      28.632  24.842  -3.479  0.00  0.00     0.088 N 
HETATM    2  C   UNK N   1      26.951  24.470  -5.949  0.00  0.00     0.078 C 
HETATM    3  C   UNK N   1      28.365  25.076  -5.924  0.00  0.00     0.055 C 
HETATM    4  C   UNK N   1      26.437  24.198  -4.515  0.00  0.00     0.055 C 
HETATM    5  C   UNK N   1      28.634  25.794  -4.604  0.00  0.00     0.274 C 
HETATM    6  C   UNK N   1      27.580  23.811  -3.568  0.00  0.00     0.274 C 
ENDROOT
BRANCH   1   7
HETATM    7  C   UNK N   1      29.913  24.140  -3.469  0.00  0.00     0.277 C 
BRANCH   7   8
HETATM    8  C   UNK N   1      29.764  22.746  -2.868  0.00  0.00     0.068 C 
BRANCH   8   9
HETATM    9  C   UNK N   1      30.808  21.832  -3.408  0.00  0.00    -0.056 A 
HETATM   10  C   UNK N   1      32.098  21.836  -2.863  0.00  0.00     0.009 A 
HETATM   11  C   UNK N   1      33.079  20.989  -3.382  0.00  0.00     0.029 A 
HETATM   12  C   UNK N   1      32.772  20.137  -4.448  0.00  0.00     0.025 A 
HETATM   13  C   UNK N   1      31.485  20.131  -4.992  0.00  0.00     0.029 A 
HETATM   14  C   UNK N   1      30.502  20.977  -4.471  0.00  0.00     0.009 A 
BRANCH  12  15
HETATM   15  N   UNK N   1      33.763  19.286  -4.974  0.00  0.00    -0.399 N 
HETATM   16  H   UNK N   1      34.724  19.431  -5.133  0.00  0.00     0.156 HD
HETATM   17  H   UNK N   1      33.439  18.392  -5.227  0.00  0.00     0.156 HD
ENDBRANCH  12  15
ENDBRANCH   8   9
ENDBRANCH   7   8
ENDBRANCH   1   7
BRANCH   2  18
HETATM   18  C   UNK N   1      27.055  23.143  -6.710  0.00  0.00    -0.040 A 
HETATM   19  C   UNK N   1      25.934  22.491  -7.254  0.00  0.00     0.008 A 
HETATM   20  C   UNK N   1      26.073  21.294  -7.962  0.00  0.00     0.001 A 
HETATM   21  C   UNK N   1      27.335  20.724  -8.129  0.00  0.00     0.000 A 
HETATM   22  C   UNK N   1      28.460  21.354  -7.597  0.00  0.00     0.001 A 
HETATM   23  C   UNK N   1      28.322  22.557  -6.901  0.00  0.00     0.008 A 
ENDBRANCH   2  18
BRANCH   2  24
HETATM   24  C   UNK N   1      26.021  25.533  -6.526  0.00  0.00     0.272 C 
HETATM   25  O   UNK N   1      26.232  26.042  -7.619  0.00  0.00    -0.264 OA
BRANCH  24  26
HETATM   26  O   UNK N   1      24.930  25.905  -5.805  0.00  0.00    -0.321 OA
BRANCH  26  27
HETATM   27  C   UNK N   1      24.583  27.221  -5.592  0.00  0.00     0.174 C 
HETATM   28  C   UNK N   1      25.490  27.837  -4.544  0.00  0.00     0.034 C 
ENDBRANCH  26  27
ENDBRANCH  24  26
ENDBRANCH   2  24
TORSDOF 8
ENDMDL
MODEL 4
REMARK VINA RESULT:      -6.5     23.027     26.498
REMARK  8 active torsions:
REMARK  status: ('A' for Active; 'I' for Inactive)
REMARK    1  A    between atoms: O_1  and  C_12 
REMARK    2  A    between atoms: O_1  and  C_20 
REMARK    3  A    between atoms: N_3  and  C_11 
REMARK    4  A    between atoms: N_4  and  C_26 
REMARK    5  A    between atoms: C_5  and  C_10 
REMARK    6  A    between atoms: C_5  and  C_12 
REMARK    7  A    between atoms: C_11  and  C_13 
REMARK    8  A    between atoms: C_13  and  C_16 
ROOT
HETATM    1  N   UNK N   1      31.576  26.871  -5.080  0.00  0.00     0.088 N 
HETATM    2  C   UNK N   1      30.161  24.386  -4.137  0.00  0.00     0.078 C 
HETATM    3  C   UNK N   1      30.092  25.760  -3.447  0.00  0.00     0.055 C 
HETATM    4  C   UNK N   1      31.169  24.404  -5.310  0.00  0.00     0.055 C 
HETATM    5  C   UNK N   1      31.383  26.548  -3.655  0.00  0.00     0.274 C 
HETATM    6  C   UNK N   1      31.214  25.774  -5.998  0.00  0.00     0.274 C 
ENDROOT
BRANCH   1   7
HETATM    7  C   UNK N   1      30.718  28.004  -5.415  0.00  0.00     0.277 C 
BRANCH   7   8
HETATM    8  C   UNK N   1      29.953  27.743  -6.708  0.00  0.00     0.068 C 
BRANCH   8   9
HETATM    9  C   UNK N   1      28.494  27.620  -6.433  0.00  0.00    -0.056 A 
HETATM   10  C   UNK N   1      27.958  28.116  -5.238  0.00  0.00     0.009 A 
HETATM   11  C   UNK N   1      26.592  27.984  -4.977  0.00  0.00     0.029 A 
HETATM   12  C   UNK N   1      25.761  27.356  -5.910  0.00  0.00     0.025 A 
HETATM   13  C   UNK N   1      26.295  26.864  -7.104  0.00  0.00     0.029 A 
HETATM   14  C   UNK N   1      27.661  26.997  -7.366  0.00  0.00     0.009 A 
BRANCH  12  15
HETATM   15  N   UNK N   1      24.385  27.221  -5.644  0.00  0.00    -0.399 N 
HETATM   16  H   UNK N   1      23.859  26.449  -5.332  0.00  0.00     0.156 HD
HETATM   17  H   UNK N   1      23.858  28.038  -5.798  0.00  0.00     0.156 HD
ENDBRANCH  12  15
ENDBRANCH   8   9
ENDBRANCH   7   8
ENDBRANCH   1   7
BRANCH   2  18
HETATM   18  C   UNK N   1      28.757  24.095  -4.679  0.00  0.00    -0.040 A 
HETATM   19  C   UNK N   1      27.587  24.461  -3.989  0.00  0.00     0.008 A 
HETATM   20  C   UNK N   1      26.325  24.200  -4.527  0.00  0.00     0.001 A 
HETATM   21  C   UNK N   1      26.210  23.557  -5.761  0.00  0.00     0.000 A 
HETATM   22  C   UNK N   1      27.358  23.185  -6.461  0.00  0.00     0.001 A 
HETATM   23  C   UNK N   1      28.620  23.459  -5.929  0.00  0.00     0.008 A 
ENDBRANCH   2  18
BRANCH   2  24
HETATM   24  C   UNK N   1      30.732  23.405  -3.117  0.00  0.00     0.272 C 
HETATM   25  O   UNK N   1      30.588  23.577  -1.914  0.00  0.00    -0.264 OA
BRANCH  24  26
HETATM   26  O   UNK N   1      31.403  22.312  -3.569  0.00  0.00    -0.321 OA
BRANCH  26  27
HETATM   27  C   UNK N   1      30.796  21.095  -3.789  0.00  0.00     0.174 C 
HETATM   28  C   UNK N   1      31.114  20.599  -5.187  0.00  0.00     0.034 C 
ENDBRANCH  26  27
ENDBRANCH  24  26
ENDBRANCH   2  24
TORSDOF 8
ENDMDL
MODEL 5
REMARK VINA RESULT:      -6.4      9.140     11.580
REMARK  8 active torsions:
REMARK  status: ('A' for Active; 'I' for Inactive)
REMARK    1  A    between atoms: O_1  and  C_12 
REMARK    2  A    between atoms: O_1  and  C_20 
REMARK    3  A    between atoms: N_3  and  C_11 
REMARK    4  A    between atoms: N_4  and  C_26 
REMARK    5  A    between atoms: C_5  and  C_10 
REMARK    6  A    between atoms: C_5  and  C_12 
REMARK    7  A    between atoms: C_11  and  C_13 
REMARK    8  A    between atoms: C_13  and  C_16 
ROOT
HETATM    1  N   UNK N   1      31.719  15.325   3.496  0.00  0.00     0.088 N 
HETATM    2  C   UNK N   1      31.162  16.781   6.072  0.00  0.00     0.078 C 
HETATM    3  C   UNK N   1      30.935  15.277   5.838  0.00  0.00     0.055 C 
HETATM    4  C   UNK N   1      31.586  17.489   4.764  0.00  0.00     0.055 C 
HETATM    5  C   UNK N   1      30.587  14.992   4.379  0.00  0.00     0.274 C 
HETATM    6  C   UNK N   1      32.423  16.568   3.866  0.00  0.00     0.274 C 
ENDROOT
BRANCH   1   7
HETATM    7  C   UNK N   1      32.697  14.244   3.573  0.00  0.00     0.277 C 
BRANCH   7   8
HETATM    8  C   UNK N   1      34.086  14.790   3.886  0.00  0.00     0.068 C 
BRANCH   8   9
HETATM    9  C   UNK N   1      34.536  14.331   5.229  0.00  0.00    -0.056 A 
HETATM   10  C   UNK N   1      35.634  14.937   5.850  0.00  0.00     0.009 A 
HETATM   11  C   UNK N   1      36.062  14.493   7.104  0.00  0.00     0.029 A 
HETATM   12  C   UNK N   1      35.392  13.442   7.737  0.00  0.00     0.025 A 
HETATM   13  C   UNK N   1      34.293  12.838   7.119  0.00  0.00     0.029 A 
HETATM   14  C   UNK N   1      33.864  13.283   5.866  0.00  0.00     0.009 A 
BRANCH  12  15
HETATM   15  N   UNK N   1      35.826  12.992   8.999  0.00  0.00    -0.399 N 
HETATM   16  H   UNK N   1      36.695  13.078   9.453  0.00  0.00     0.156 HD
HETATM   17  H   UNK N   1      35.142  12.508   9.516  0.00  0.00     0.156 HD
ENDBRANCH  12  15
ENDBRANCH   8   9
ENDBRANCH   7   8
ENDBRANCH   1   7
BRANCH   2  18
HETATM   18  C   UNK N   1      32.292  16.900   7.102  0.00  0.00    -0.040 A 
HETATM   19  C   UNK N   1      33.240  17.937   7.071  0.00  0.00     0.008 A 
HETATM   20  C   UNK N   1      34.241  18.025   8.042  0.00  0.00     0.001 A 
HETATM   21  C   UNK N   1      34.316  17.069   9.056  0.00  0.00     0.000 A 
HETATM   22  C   UNK N   1      33.386  16.030   9.104  0.00  0.00     0.001 A 
HETATM   23  C   UNK N   1      32.378  15.952   8.141  0.00  0.00     0.008 A 
ENDBRANCH   2  18
BRANCH   2  24
HETATM   24  C   UNK N   1      29.811  17.382   6.447  0.00  0.00     0.272 C 
HETATM   25  O   UNK N   1      29.194  18.101   5.673  0.00  0.00    -0.264 OA
BRANCH  24  26
HETATM   26  O   UNK N   1      29.287  17.095   7.668  0.00  0.00    -0.321 OA
BRANCH  26  27
HETATM   27  C   UNK N   1      28.868  18.064   8.553  0.00  0.00     0.174 C 
HETATM   28  C   UNK N   1      30.063  18.687   9.249  0.00  0.00     0.034 C 
ENDBRANCH  26  27
ENDBRANCH  24  26
ENDBRANCH   2  24
TORSDOF 8
ENDMDL
MODEL 6
REMARK VINA RESULT:      -6.4      9.264     13.962
REMARK  8 active torsions:
REMARK  status: ('A' for Active; 'I' for Inactive)
REMARK    1  A    between atoms: O_1  and  C_12 
REMARK    2  A    between atoms: O_1  and  C_20 
REMARK    3  A    between atoms: N_3  and  C_11 
REMARK    4  A    between atoms: N_4  and  C_26 
REMARK    5  A    between atoms: C_5  and  C_10 
REMARK    6  A    between atoms: C_5  and  C_12 
REMARK    7  A    between atoms: C_11  and  C_13 
REMARK    8  A    between atoms: C_13  and  C_16 
ROOT
HETATM    1  N   UNK N   1      31.201  15.655   3.476  0.00  0.00     0.088 N 
HETATM    2  C   UNK N   1      32.106  16.733   6.137  0.00  0.00     0.078 C 
HETATM    3  C   UNK N   1      31.983  17.558   4.844  0.00  0.00     0.055 C 
HETATM    4  C   UNK N   1      31.837  15.234   5.869  0.00  0.00     0.055 C 
HETATM    5  C   UNK N   1      32.238  16.693   3.612  0.00  0.00     0.274 C 
HETATM    6  C   UNK N   1      30.802  15.035   4.755  0.00  0.00     0.274 C 
ENDROOT
BRANCH   1   7
HETATM    7  C   UNK N   1      30.003  16.272   2.913  0.00  0.00     0.277 C 
BRANCH   7   8
HETATM    8  C   UNK N   1      28.766  15.898   3.723  0.00  0.00     0.068 C 
BRANCH   8   9
HETATM    9  C   UNK N   1      27.800  17.031   3.750  0.00  0.00    -0.056 A 
HETATM   10  C   UNK N   1      26.457  16.820   3.416  0.00  0.00     0.009 A 
HETATM   11  C   UNK N   1      25.557  17.888   3.428  0.00  0.00     0.029 A 
HETATM   12  C   UNK N   1      26.000  19.168   3.773  0.00  0.00     0.025 A 
HETATM   13  C   UNK N   1      27.340  19.380   4.109  0.00  0.00     0.029 A 
HETATM   14  C   UNK N   1      28.240  18.311   4.099  0.00  0.00     0.009 A 
BRANCH  12  15
HETATM   15  N   UNK N   1      25.093  20.246   3.781  0.00  0.00    -0.399 N 
HETATM   16  H   UNK N   1      24.407  20.519   3.130  0.00  0.00     0.156 HD
HETATM   17  H   UNK N   1      25.157  20.825   4.574  0.00  0.00     0.156 HD
ENDBRANCH  12  15
ENDBRANCH   8   9
ENDBRANCH   7   8
ENDBRANCH   1   7
BRANCH   2  18
HETATM   18  C   UNK N   1      31.047  17.274   7.105  0.00  0.00    -0.040 A 
HETATM   19  C   UNK N   1      29.669  17.071   6.911  0.00  0.00     0.008 A 
HETATM   20  C   UNK N   1      28.735  17.559   7.829  0.00  0.00     0.001 A 
HETATM   21  C   UNK N   1      29.164  18.268   8.952  0.00  0.00     0.000 A 
HETATM   22  C   UNK N   1      30.526  18.480   9.163  0.00  0.00     0.001 A 
HETATM   23  C   UNK N   1      31.460  17.980   8.253  0.00  0.00     0.008 A 
ENDBRANCH   2  18
BRANCH   2  24
HETATM   24  C   UNK N   1      33.563  16.818   6.582  0.00  0.00     0.272 C 
HETATM   25  O   UNK N   1      34.236  17.821   6.382  0.00  0.00    -0.264 OA
BRANCH  24  26
HETATM   26  O   UNK N   1      34.112  15.753   7.223  0.00  0.00    -0.321 OA
BRANCH  26  27
HETATM   27  C   UNK N   1      34.634  15.828   8.496  0.00  0.00     0.174 C 
HETATM   28  C   UNK N   1      33.627  15.308   9.504  0.00  0.00     0.034 C 
ENDBRANCH  26  27
ENDBRANCH  24  26
ENDBRANCH   2  24
TORSDOF 8
ENDMDL
MODEL 7
REMARK VINA RESULT:      -6.3     25.225     27.695
REMARK  8 active torsions:
REMARK  status: ('A' for Active; 'I' for Inactive)
REMARK    1  A    between atoms: O_1  and  C_12 
REMARK    2  A    between atoms: O_1  and  C_20 
REMARK    3  A    between atoms: N_3  and  C_11 
REMARK    4  A    between atoms: N_4  and  C_26 
REMARK    5  A    between atoms: C_5  and  C_10 
REMARK    6  A    between atoms: C_5  and  C_12 
REMARK    7  A    between atoms: C_11  and  C_13 
REMARK    8  A    between atoms: C_13  and  C_16 
ROOT
HETATM    1  N   UNK N   1      31.045  26.990  -4.663  0.00  0.00     0.088 N 
HETATM    2  C   UNK N   1      28.817  28.568  -5.931  0.00  0.00     0.078 C 
HETATM    3  C   UNK N   1      29.633  27.469  -6.633  0.00  0.00     0.055 C 
HETATM    4  C   UNK N   1      29.379  28.862  -4.521  0.00  0.00     0.055 C 
HETATM    5  C   UNK N   1      31.054  27.399  -6.079  0.00  0.00     0.274 C 
HETATM    6  C   UNK N   1      29.964  27.603  -3.869  0.00  0.00     0.274 C 
ENDROOT
BRANCH   1   7
HETATM    7  C   UNK N   1      30.848  25.544  -4.603  0.00  0.00     0.277 C 
BRANCH   7   8
HETATM    8  C   UNK N   1      29.753  25.186  -3.604  0.00  0.00     0.068 C 
BRANCH   8   9
HETATM    9  C   UNK N   1      28.562  24.638  -4.311  0.00  0.00    -0.056 A 
HETATM   10  C   UNK N   1      27.304  24.665  -3.698  0.00  0.00     0.009 A 
HETATM   11  C   UNK N   1      26.193  24.136  -4.358  0.00  0.00     0.029 A 
HETATM   12  C   UNK N   1      26.339  23.579  -5.633  0.00  0.00     0.025 A 
HETATM   13  C   UNK N   1      27.594  23.555  -6.247  0.00  0.00     0.029 A 
HETATM   14  C   UNK N   1      28.706  24.085  -5.587  0.00  0.00     0.009 A 
BRANCH  12  15
HETATM   15  N   UNK N   1      25.219  23.042  -6.296  0.00  0.00    -0.399 N 
HETATM   16  H   UNK N   1      24.459  22.514  -5.961  0.00  0.00     0.156 HD
HETATM   17  H   UNK N   1      25.191  23.228  -7.263  0.00  0.00     0.156 HD
ENDBRANCH  12  15
ENDBRANCH   8   9
ENDBRANCH   7   8
ENDBRANCH   1   7
BRANCH   2  18
HETATM   18  C   UNK N   1      27.384  28.038  -5.806  0.00  0.00    -0.040 A 
HETATM   19  C   UNK N   1      26.561  28.329  -4.703  0.00  0.00     0.008 A 
HETATM   20  C   UNK N   1      25.252  27.847  -4.636  0.00  0.00     0.001 A 
HETATM   21  C   UNK N   1      24.745  27.055  -5.668  0.00  0.00     0.000 A 
HETATM   22  C   UNK N   1      25.545  26.754  -6.771  0.00  0.00     0.001 A 
HETATM   23  C   UNK N   1      26.849  27.248  -6.843  0.00  0.00     0.008 A 
ENDBRANCH   2  18
BRANCH   2  24
HETATM   24  C   UNK N   1      29.017  29.851  -6.732  0.00  0.00     0.272 C 
HETATM   25  O   UNK N   1      28.920  30.953  -6.208  0.00  0.00    -0.264 OA
BRANCH  24  26
HETATM   26  O   UNK N   1      29.322  29.754  -8.053  0.00  0.00    -0.321 OA
BRANCH  26  27
HETATM   27  C   UNK N   1      30.320  30.492  -8.651  0.00  0.00     0.174 C 
HETATM   28  C   UNK N   1      31.271  29.575  -9.396  0.00  0.00     0.034 C 
ENDBRANCH  26  27
ENDBRANCH  24  26
ENDBRANCH   2  24
TORSDOF 8
ENDMDL
MODEL 8
REMARK VINA RESULT:      -6.2      2.905      7.436
REMARK  8 active torsions:
REMARK  status: ('A' for Active; 'I' for Inactive)
REMARK    1  A    between atoms: O_1  and  C_12 
REMARK    2  A    between atoms: O_1  and  C_20 
REMARK    3  A    between atoms: N_3  and  C_11 
REMARK    4  A    between atoms: N_4  and  C_26 
REMARK    5  A    between atoms: C_5  and  C_10 
REMARK    6  A    between atoms: C_5  and  C_12 
REMARK    7  A    between atoms: C_11  and  C_13 
REMARK    8  A    between atoms: C_13  and  C_16 
ROOT
HETATM    1  N   UNK N   1      35.812  11.837  12.609  0.00  0.00     0.088 N 
HETATM    2  C   UNK N   1      35.791  11.872  15.619  0.00  0.00     0.078 C 
HETATM    3  C   UNK N   1      37.038  11.655  14.746  0.00  0.00     0.055 C 
HETATM    4  C   UNK N   1      34.510  11.934  14.754  0.00  0.00     0.055 C 
HETATM    5  C   UNK N   1      36.678  10.971  13.430  0.00  0.00     0.274 C 
HETATM    6  C   UNK N   1      34.784  12.561  13.381  0.00  0.00     0.274 C 
ENDROOT
BRANCH   1   7
HETATM    7  C   UNK N   1      36.648  12.847  11.966  0.00  0.00     0.277 C 
BRANCH   7   8
HETATM    8  C   UNK N   1      36.133  14.250  12.265  0.00  0.00     0.068 C 
BRANCH   8   9
HETATM    9  C   UNK N   1      35.689  14.919  11.010  0.00  0.00    -0.056 A 
HETATM   10  C   UNK N   1      35.659  14.208   9.805  0.00  0.00     0.009 A 
HETATM   11  C   UNK N   1      35.257  14.843   8.628  0.00  0.00     0.029 A 
HETATM   12  C   UNK N   1      34.886  16.191   8.654  0.00  0.00     0.025 A 
HETATM   13  C   UNK N   1      34.914  16.902   9.858  0.00  0.00     0.029 A 
HETATM   14  C   UNK N   1      35.314  16.265  11.036  0.00  0.00     0.009 A 
BRANCH  12  15
HETATM   15  N   UNK N   1      34.485  16.832   7.467  0.00  0.00    -0.399 N 
HETATM   16  H   UNK N   1      33.609  17.180   7.183  0.00  0.00     0.156 HD
HETATM   17  H   UNK N   1      35.205  16.953   6.806  0.00  0.00     0.156 HD
ENDBRANCH  12  15
ENDBRANCH   8   9
ENDBRANCH   7   8
ENDBRANCH   1   7
BRANCH   2  18
HETATM   18  C   UNK N   1      35.984  13.215  16.335  0.00  0.00    -0.040 A 
HETATM   19  C   UNK N   1      35.271  13.565  17.496  0.00  0.00     0.008 A 
HETATM   20  C   UNK N   1      35.493  14.788  18.133  0.00  0.00     0.001 A 
HETATM   21  C   UNK N   1      36.426  15.688  17.614  0.00  0.00     0.000 A 
HETATM   22  C   UNK N   1      37.143  15.360  16.463  0.00  0.00     0.001 A 
HETATM   23  C   UNK N   1      36.930  14.132  15.834  0.00  0.00     0.008 A 
ENDBRANCH   2  18
BRANCH   2  24
HETATM   24  C   UNK N   1      35.638  10.632  16.495  0.00  0.00     0.272 C 
HETATM   25  O   UNK N   1      34.641   9.924  16.433  0.00  0.00    -0.264 OA
BRANCH  24  26
HETATM   26  O   UNK N   1      36.644  10.311  17.350  0.00  0.00    -0.321 OA
BRANCH  26  27
HETATM   27  C   UNK N   1      36.433   9.677  18.555  0.00  0.00     0.174 C 
HETATM   28  C   UNK N   1      36.208  10.702  19.651  0.00  0.00     0.034 C 
ENDBRANCH  26  27
ENDBRANCH  24  26
ENDBRANCH   2  24
TORSDOF 8
ENDMDL
MODEL 9
REMARK VINA RESULT:      -6.2     23.221     25.853
REMARK  8 active torsions:
REMARK  status: ('A' for Active; 'I' for Inactive)
REMARK    1  A    between atoms: O_1  and  C_12 
REMARK    2  A    between atoms: O_1  and  C_20 
REMARK    3  A    between atoms: N_3  and  C_11 
REMARK    4  A    between atoms: N_4  and  C_26 
REMARK    5  A    between atoms: C_5  and  C_10 
REMARK    6  A    between atoms: C_5  and  C_12 
REMARK    7  A    between atoms: C_11  and  C_13 
REMARK    8  A    between atoms: C_13  and  C_16 
ROOT
HETATM    1  N   UNK N   1      30.304  23.796  -2.739  0.00  0.00     0.088 N 
HETATM    2  C   UNK N   1      27.886  24.684  -4.297  0.00  0.00     0.078 C 
HETATM    3  C   UNK N   1      29.341  25.050  -4.637  0.00  0.00     0.055 C 
HETATM    4  C   UNK N   1      27.806  23.908  -2.962  0.00  0.00     0.055 C 
HETATM    5  C   UNK N   1      30.201  25.120  -3.377  0.00  0.00     0.274 C 
HETATM    6  C   UNK N   1      29.043  23.030  -2.741  0.00  0.00     0.274 C 
ENDROOT
BRANCH   1   7
HETATM    7  C   UNK N   1      31.283  23.003  -3.478  0.00  0.00     0.277 C 
BRANCH   7   8
HETATM    8  C   UNK N   1      30.694  21.658  -3.889  0.00  0.00     0.068 C 
BRANCH   8   9
HETATM    9  C   UNK N   1      31.009  21.366  -5.315  0.00  0.00    -0.056 A 
HETATM   10  C   UNK N   1      31.816  22.242  -6.052  0.00  0.00     0.009 A 
HETATM   11  C   UNK N   1      32.097  21.973  -7.393  0.00  0.00     0.029 A 
HETATM   12  C   UNK N   1      31.571  20.828  -8.000  0.00  0.00     0.025 A 
HETATM   13  C   UNK N   1      30.768  19.952  -7.264  0.00  0.00     0.029 A 
HETATM   14  C   UNK N   1      30.488  20.220  -5.922  0.00  0.00     0.009 A 
BRANCH  12  15
HETATM   15  N   UNK N   1      31.851  20.560  -9.353  0.00  0.00    -0.399 N 
HETATM   16  H   UNK N   1      32.031  19.712  -9.822  0.00  0.00     0.156 HD
HETATM   17  H   UNK N   1      31.870  21.357  -9.931  0.00  0.00     0.156 HD
ENDBRANCH  12  15
ENDBRANCH   8   9
ENDBRANCH   7   8
ENDBRANCH   1   7
BRANCH   2  18
HETATM   18  C   UNK N   1      27.381  23.789  -5.435  0.00  0.00    -0.040 A 
HETATM   19  C   UNK N   1      26.018  23.497  -5.622  0.00  0.00     0.008 A 
HETATM   20  C   UNK N   1      25.595  22.696  -6.686  0.00  0.00     0.001 A 
HETATM   21  C   UNK N   1      26.530  22.164  -7.575  0.00  0.00     0.000 A 
HETATM   22  C   UNK N   1      27.887  22.440  -7.406  0.00  0.00     0.001 A 
HETATM   23  C   UNK N   1      28.308  23.252  -6.351  0.00  0.00     0.008 A 
ENDBRANCH   2  18
BRANCH   2  24
HETATM   24  C   UNK N   1      27.142  25.994  -4.059  0.00  0.00     0.272 C 
HETATM   25  O   UNK N   1      26.314  26.107  -3.164  0.00  0.00    -0.264 OA
BRANCH  24  26
HETATM   26  O   UNK N   1      27.420  27.057  -4.860  0.00  0.00    -0.321 OA
BRANCH  26  27
HETATM   27  C   UNK N   1      26.510  27.591  -5.745  0.00  0.00     0.174 C 
HETATM   28  C   UNK N   1      26.644  26.920  -7.099  0.00  0.00     0.034 C 
ENDBRANCH  26  27
ENDBRANCH  24  26
ENDBRANCH   2  24
TORSDOF 8
ENDMDL
