MODEL 1
REMARK VINA RESULT:      -4.8      0.000      0.000
REMARK  1 active torsions:
REMARK  status: ('A' for Active; 'I' for Inactive)
REMARK    1  A    between atoms: N_1  and  C_2 
ROOT
HETATM    1  C   UNK N   1      26.776  25.778  -4.298  0.00  0.00     0.024 C 
HETATM    2  C   UNK N   1      25.329  26.211  -6.310  0.00  0.00    -0.012 C 
HETATM    3  C   UNK N   1      27.508  27.446  -6.034  0.00  0.00    -0.012 C 
HETATM    4  C   UNK N   1      25.563  27.971  -4.523  0.00  0.00    -0.012 C 
HETATM    5  C   UNK N   1      25.817  25.144  -5.316  0.00  0.00     0.035 C 
HETATM    6  C   UNK N   1      27.983  26.372  -5.039  0.00  0.00     0.035 C 
HETATM    7  C   UNK N   1      26.049  26.897  -3.535  0.00  0.00     0.035 C 
HETATM    8  C   UNK N   1      26.541  26.808  -7.045  0.00  0.00     0.009 C 
HETATM    9  C   UNK N   1      24.605  27.326  -5.538  0.00  0.00     0.009 C 
HETATM   10  C   UNK N   1      26.773  28.558  -5.268  0.00  0.00     0.009 C 
ENDROOT
BRANCH   1  11
HETATM   11  N   UNK N   1      27.227  24.765  -3.359  0.00  0.00    -0.422 N 
HETATM   12  H   UNK N   1      28.131  24.862  -2.896  0.00  0.00     0.150 HD
HETATM   13  H   UNK N   1      26.638  23.956  -3.163  0.00  0.00     0.150 HD
ENDBRANCH   1  11
TORSDOF 1
ENDMDL
MODEL 2
REMARK VINA RESULT:      -4.8      0.017      2.276
REMARK  1 active torsions:
REMARK  status: ('A' for Active; 'I' for Inactive)
REMARK    1  A    between atoms: N_1  and  C_2 
ROOT
HETATM    1  C   UNK N   1      26.790  25.779  -4.301  0.00  0.00     0.024 C 
HETATM    2  C   UNK N   1      27.506  27.462  -6.030  0.00  0.00    -0.012 C 
HETATM    3  C   UNK N   1      25.556  27.961  -4.514  0.00  0.00    -0.012 C 
HETATM    4  C   UNK N   1      25.338  26.209  -6.310  0.00  0.00    -0.012 C 
HETATM    5  C   UNK N   1      27.991  26.390  -5.039  0.00  0.00     0.035 C 
HETATM    6  C   UNK N   1      26.051  26.885  -3.533  0.00  0.00     0.035 C 
HETATM    7  C   UNK N   1      25.832  25.142  -5.319  0.00  0.00     0.035 C 
HETATM    8  C   UNK N   1      26.760  28.563  -5.257  0.00  0.00     0.009 C 
HETATM    9  C   UNK N   1      26.547  26.815  -7.043  0.00  0.00     0.009 C 
HETATM   10  C   UNK N   1      24.605  27.318  -5.536  0.00  0.00     0.009 C 
ENDROOT
BRANCH   1  11
HETATM   11  N   UNK N   1      27.257  24.764  -3.373  0.00  0.00    -0.422 N 
HETATM   12  H   UNK N   1      28.256  24.594  -3.257  0.00  0.00     0.150 HD
HETATM   13  H   UNK N   1      26.583  24.219  -2.835  0.00  0.00     0.150 HD
ENDBRANCH   1  11
TORSDOF 1
ENDMDL
MODEL 3
REMARK VINA RESULT:      -4.8      0.014      2.271
REMARK  1 active torsions:
REMARK  status: ('A' for Active; 'I' for Inactive)
REMARK    1  A    between atoms: N_1  and  C_2 
ROOT
HETATM    1  C   UNK N   1      26.770  25.775  -4.283  0.00  0.00     0.024 C 
HETATM    2  C   UNK N   1      25.559  27.969  -4.518  0.00  0.00    -0.012 C 
HETATM    3  C   UNK N   1      25.328  26.203  -6.301  0.00  0.00    -0.012 C 
HETATM    4  C   UNK N   1      27.507  27.436  -6.024  0.00  0.00    -0.012 C 
HETATM    5  C   UNK N   1      26.037  26.894  -3.527  0.00  0.00     0.035 C 
HETATM    6  C   UNK N   1      25.811  25.139  -5.300  0.00  0.00     0.035 C 
HETATM    7  C   UNK N   1      27.979  26.365  -5.027  0.00  0.00     0.035 C 
HETATM    8  C   UNK N   1      24.605  27.325  -5.538  0.00  0.00     0.009 C 
HETATM    9  C   UNK N   1      26.775  28.550  -5.257  0.00  0.00     0.009 C 
HETATM   10  C   UNK N   1      26.542  26.796  -7.036  0.00  0.00     0.009 C 
ENDROOT
BRANCH   1  11
HETATM   11  N   UNK N   1      27.224  24.768  -3.340  0.00  0.00    -0.422 N 
HETATM   12  H   UNK N   1      27.998  24.971  -2.707  0.00  0.00     0.150 HD
HETATM   13  H   UNK N   1      26.769  23.857  -3.311  0.00  0.00     0.150 HD
ENDBRANCH   1  11
TORSDOF 1
ENDMDL
MODEL 4
REMARK VINA RESULT:      -4.8      1.332      2.541
REMARK  1 active torsions:
REMARK  status: ('A' for Active; 'I' for Inactive)
REMARK    1  A    between atoms: N_1  and  C_2 
ROOT
HETATM    1  C   UNK N   1      25.894  25.702  -5.793  0.00  0.00     0.024 C 
HETATM    2  C   UNK N   1      27.792  27.341  -5.582  0.00  0.00    -0.012 C 
HETATM    3  C   UNK N   1      26.810  26.276  -3.520  0.00  0.00    -0.012 C 
HETATM    4  C   UNK N   1      25.480  27.982  -4.811  0.00  0.00    -0.012 C 
HETATM    5  C   UNK N   1      27.188  26.217  -6.441  0.00  0.00     0.035 C 
HETATM    6  C   UNK N   1      26.210  25.158  -4.392  0.00  0.00     0.035 C 
HETATM    7  C   UNK N   1      24.886  26.856  -5.674  0.00  0.00     0.035 C 
HETATM    8  C   UNK N   1      28.099  26.794  -4.178  0.00  0.00     0.009 C 
HETATM    9  C   UNK N   1      26.775  28.489  -5.467  0.00  0.00     0.009 C 
HETATM   10  C   UNK N   1      25.802  27.431  -3.412  0.00  0.00     0.009 C 
ENDROOT
BRANCH   1  11
HETATM   11  N   UNK N   1      25.327  24.646  -6.614  0.00  0.00    -0.422 N 
HETATM   12  H   UNK N   1      25.713  24.451  -7.538  0.00  0.00     0.150 HD
HETATM   13  H   UNK N   1      24.542  24.097  -6.265  0.00  0.00     0.150 HD
ENDBRANCH   1  11
TORSDOF 1
ENDMDL
MODEL 5
REMARK VINA RESULT:      -4.8      1.328      2.252
REMARK  1 active torsions:
REMARK  status: ('A' for Active; 'I' for Inactive)
REMARK    1  A    between atoms: N_1  and  C_2 
ROOT
HETATM    1  C   UNK N   1      25.891  25.692  -5.785  0.00  0.00     0.024 C 
HETATM    2  C   UNK N   1      25.477  27.978  -4.818  0.00  0.00    -0.012 C 
HETATM    3  C   UNK N   1      27.788  27.333  -5.588  0.00  0.00    -0.012 C 
HETATM    4  C   UNK N   1      26.811  26.280  -3.519  0.00  0.00    -0.012 C 
HETATM    5  C   UNK N   1      24.884  26.848  -5.676  0.00  0.00     0.035 C 
HETATM    6  C   UNK N   1      27.182  26.204  -6.440  0.00  0.00     0.035 C 
HETATM    7  C   UNK N   1      26.212  25.157  -4.381  0.00  0.00     0.035 C 
HETATM    8  C   UNK N   1      26.774  28.482  -5.474  0.00  0.00     0.009 C 
HETATM    9  C   UNK N   1      25.797  27.432  -3.416  0.00  0.00     0.009 C 
HETATM   10  C   UNK N   1      28.099  26.795  -4.182  0.00  0.00     0.009 C 
ENDROOT
BRANCH   1  11
HETATM   11  N   UNK N   1      25.321  24.626  -6.592  0.00  0.00    -0.422 N 
HETATM   12  H   UNK N   1      24.564  24.051  -6.220  0.00  0.00     0.150 HD
HETATM   13  H   UNK N   1      25.678  24.452  -7.531  0.00  0.00     0.150 HD
ENDBRANCH   1  11
TORSDOF 1
ENDMDL
MODEL 6
REMARK VINA RESULT:      -4.7      1.409      2.946
REMARK  1 active torsions:
REMARK  status: ('A' for Active; 'I' for Inactive)
REMARK    1  A    between atoms: N_1  and  C_2 
ROOT
HETATM    1  C   UNK N   1      26.081  27.882  -4.379  0.00  0.00     0.024 C 
HETATM    2  C   UNK N   1      27.590  27.121  -6.243  0.00  0.00    -0.012 C 
HETATM    3  C   UNK N   1      25.203  26.319  -6.145  0.00  0.00    -0.012 C 
HETATM    4  C   UNK N   1      26.879  25.496  -4.453  0.00  0.00    -0.012 C 
HETATM    5  C   UNK N   1      27.226  28.293  -5.317  0.00  0.00     0.035 C 
HETATM    6  C   UNK N   1      24.853  27.495  -5.217  0.00  0.00     0.035 C 
HETATM    7  C   UNK N   1      26.519  26.675  -3.533  0.00  0.00     0.035 C 
HETATM    8  C   UNK N   1      26.356  26.733  -7.075  0.00  0.00     0.009 C 
HETATM    9  C   UNK N   1      28.024  25.919  -5.388  0.00  0.00     0.009 C 
HETATM   10  C   UNK N   1      25.649  25.117  -5.296  0.00  0.00     0.009 C 
ENDROOT
BRANCH   1  11
HETATM   11  N   UNK N   1      25.748  28.992  -3.503  0.00  0.00    -0.422 N 
HETATM   12  H   UNK N   1      26.360  29.230  -2.721  0.00  0.00     0.150 HD
HETATM   13  H   UNK N   1      24.901  29.534  -3.669  0.00  0.00     0.150 HD
ENDBRANCH   1  11
TORSDOF 1
ENDMDL
MODEL 7
REMARK VINA RESULT:      -4.7      1.408      2.534
REMARK  1 active torsions:
REMARK  status: ('A' for Active; 'I' for Inactive)
REMARK    1  A    between atoms: N_1  and  C_2 
ROOT
HETATM    1  C   UNK N   1      26.088  27.881  -4.384  0.00  0.00     0.024 C 
HETATM    2  C   UNK N   1      26.923  25.509  -4.468  0.00  0.00    -0.012 C 
HETATM    3  C   UNK N   1      27.591  27.146  -6.263  0.00  0.00    -0.012 C 
HETATM    4  C   UNK N   1      25.220  26.307  -6.145  0.00  0.00    -0.012 C 
HETATM    5  C   UNK N   1      26.556  26.683  -3.545  0.00  0.00     0.035 C 
HETATM    6  C   UNK N   1      27.219  28.312  -5.330  0.00  0.00     0.035 C 
HETATM    7  C   UNK N   1      24.859  27.477  -5.214  0.00  0.00     0.035 C 
HETATM    8  C   UNK N   1      28.051  25.947  -5.418  0.00  0.00     0.009 C 
HETATM    9  C   UNK N   1      25.688  25.114  -5.295  0.00  0.00     0.009 C 
HETATM   10  C   UNK N   1      26.357  26.740  -7.085  0.00  0.00     0.009 C 
ENDROOT
BRANCH   1  11
HETATM   11  N   UNK N   1      25.737  28.983  -3.504  0.00  0.00    -0.422 N 
HETATM   12  H   UNK N   1      24.758  29.181  -3.296  0.00  0.00     0.150 HD
HETATM   13  H   UNK N   1      26.471  29.559  -3.094  0.00  0.00     0.150 HD
ENDBRANCH   1  11
TORSDOF 1
ENDMDL
MODEL 8
REMARK VINA RESULT:      -4.7      1.423      2.677
REMARK  1 active torsions:
REMARK  status: ('A' for Active; 'I' for Inactive)
REMARK    1  A    between atoms: N_1  and  C_2 
ROOT
HETATM    1  C   UNK N   1      27.647  27.223  -5.753  0.00  0.00     0.024 C 
HETATM    2  C   UNK N   1      26.693  26.000  -3.772  0.00  0.00    -0.012 C 
HETATM    3  C   UNK N   1      25.509  25.917  -5.995  0.00  0.00    -0.012 C 
HETATM    4  C   UNK N   1      25.537  28.054  -4.662  0.00  0.00    -0.012 C 
HETATM    5  C   UNK N   1      27.987  26.425  -4.485  0.00  0.00     0.035 C 
HETATM    6  C   UNK N   1      26.811  26.345  -6.696  0.00  0.00     0.035 C 
HETATM    7  C   UNK N   1      26.837  28.472  -5.371  0.00  0.00     0.035 C 
HETATM    8  C   UNK N   1      25.856  25.127  -4.722  0.00  0.00     0.009 C 
HETATM    9  C   UNK N   1      25.889  27.255  -3.396  0.00  0.00     0.009 C 
HETATM   10  C   UNK N   1      24.707  27.169  -5.607  0.00  0.00     0.009 C 
ENDROOT
BRANCH   1  11
HETATM   11  N   UNK N   1      28.874  27.626  -6.417  0.00  0.00    -0.422 N 
HETATM   12  H   UNK N   1      29.773  27.260  -6.101  0.00  0.00     0.150 HD
HETATM   13  H   UNK N   1      28.838  28.277  -7.201  0.00  0.00     0.150 HD
ENDBRANCH   1  11
TORSDOF 1
ENDMDL
MODEL 9
REMARK VINA RESULT:      -4.7      1.431      2.953
REMARK  1 active torsions:
REMARK  status: ('A' for Active; 'I' for Inactive)
REMARK    1  A    between atoms: N_1  and  C_2 
ROOT
HETATM    1  C   UNK N   1      27.643  27.219  -5.769  0.00  0.00     0.024 C 
HETATM    2  C   UNK N   1      25.545  28.054  -4.660  0.00  0.00    -0.012 C 
HETATM    3  C   UNK N   1      26.718  26.012  -3.764  0.00  0.00    -0.012 C 
HETATM    4  C   UNK N   1      25.508  25.903  -5.970  0.00  0.00    -0.012 C 
HETATM    5  C   UNK N   1      26.836  28.468  -5.386  0.00  0.00     0.035 C 
HETATM    6  C   UNK N   1      28.003  26.437  -4.497  0.00  0.00     0.035 C 
HETATM    7  C   UNK N   1      26.799  26.325  -6.691  0.00  0.00     0.035 C 
HETATM    8  C   UNK N   1      25.910  27.266  -3.391  0.00  0.00     0.009 C 
HETATM    9  C   UNK N   1      24.708  27.160  -5.590  0.00  0.00     0.009 C 
HETATM   10  C   UNK N   1      25.872  25.127  -4.693  0.00  0.00     0.009 C 
ENDROOT
BRANCH   1  11
HETATM   11  N   UNK N   1      28.857  27.618  -6.459  0.00  0.00    -0.422 N 
HETATM   12  H   UNK N   1      29.751  27.618  -5.967  0.00  0.00     0.150 HD
HETATM   13  H   UNK N   1      28.817  27.899  -7.439  0.00  0.00     0.150 HD
ENDBRANCH   1  11
TORSDOF 1
ENDMDL
