MODEL 1
REMARK VINA RESULT:      -4.8      0.000      0.000
REMARK  4 active torsions:
REMARK  status: ('A' for Active; 'I' for Inactive)
REMARK    1  A    between atoms: O_1  and  C_11 
REMARK    2  A    between atoms: N_4  and  C_8 
REMARK    3  A    between atoms: N_7  and  C_10 
REMARK    4  A    between atoms: C_8  and  C_11 
ROOT
HETATM    1  N   UNK N   1      32.050  17.478   7.634  0.00  0.00    -0.315 N 
HETATM    2  N   UNK N   1      32.617  17.149   5.484  0.00  0.00    -0.352 N 
ATOM      3  HN  UNK N   1      32.542  16.922   4.492  1.00  0.00     0.166 HD
HETATM    4  C   UNK N   1      31.630  17.124   6.399  0.00  0.00     0.081 A 
HETATM    5  C   UNK N   1      33.382  17.738   7.473  0.00  0.00     0.193 A 
HETATM    6  C   UNK N   1      33.722  17.533   6.149  0.00  0.00     0.144 A 
HETATM    7  C   UNK N   1      30.226  16.744   6.062  0.00  0.00     0.089 C 
ENDROOT
BRANCH   1   8
HETATM    8  C   UNK N   1      31.083  17.501   8.750  0.00  0.00     0.158 C 
BRANCH   8   9
HETATM    9  C   UNK N   1      30.414  18.799   9.120  0.00  0.00     0.184 C 
BRANCH   9  10
HETATM   10  O   UNK N   1      29.760  18.631  10.340  0.00  0.00    -0.399 OA
HETATM   11  H   UNK N   1      29.168  17.874  10.473  0.00  0.00     0.209 HD
ENDBRANCH   9  10
ENDBRANCH   8   9
ENDBRANCH   1   8
BRANCH   5  12
HETATM   12  N   UNK N   1      34.338  18.155   8.449  0.00  0.00    -0.096 N 
HETATM   13  O   UNK N   1      34.518  17.421   9.527  0.00  0.00    -0.530 OA
HETATM   14  O   UNK N   1      34.978  19.147   8.315  0.00  0.00    -0.530 OA
ENDBRANCH   5  12
TORSDOF 4
ENDMDL
MODEL 2
REMARK VINA RESULT:      -4.7     11.751     12.947
REMARK  4 active torsions:
REMARK  status: ('A' for Active; 'I' for Inactive)
REMARK    1  A    between atoms: O_1  and  C_11 
REMARK    2  A    between atoms: N_4  and  C_8 
REMARK    3  A    between atoms: N_7  and  C_10 
REMARK    4  A    between atoms: C_8  and  C_11 
ROOT
HETATM    1  N   UNK N   1      30.168  21.981  -4.164  0.00  0.00    -0.315 N 
HETATM    2  N   UNK N   1      29.008  23.295  -5.569  0.00  0.00    -0.352 N 
ATOM      3  HN  UNK N   1      28.647  23.699  -6.435  1.00  0.00     0.166 HD
HETATM    4  C   UNK N   1      29.889  22.285  -5.450  0.00  0.00     0.081 A 
HETATM    5  C   UNK N   1      29.411  22.859  -3.440  0.00  0.00     0.193 A 
HETATM    6  C   UNK N   1      28.701  23.663  -4.312  0.00  0.00     0.144 A 
HETATM    7  C   UNK N   1      30.483  21.589  -6.630  0.00  0.00     0.089 C 
ENDROOT
BRANCH   1   8
HETATM    8  C   UNK N   1      31.120  20.892  -3.866  0.00  0.00     0.158 C 
BRANCH   8   9
HETATM    9  C   UNK N   1      32.523  21.235  -3.436  0.00  0.00     0.184 C 
BRANCH   9  10
HETATM   10  O   UNK N   1      32.576  21.226  -2.043  0.00  0.00    -0.399 OA
HETATM   11  H   UNK N   1      33.406  21.438  -1.587  0.00  0.00     0.209 HD
ENDBRANCH   9  10
ENDBRANCH   8   9
ENDBRANCH   1   8
BRANCH   5  12
HETATM   12  N   UNK N   1      29.307  22.996  -2.022  0.00  0.00    -0.096 N 
HETATM   13  O   UNK N   1      30.406  23.082  -1.302  0.00  0.00    -0.530 OA
HETATM   14  O   UNK N   1      28.255  23.035  -1.472  0.00  0.00    -0.530 OA
ENDBRANCH   5  12
TORSDOF 4
ENDMDL
MODEL 3
REMARK VINA RESULT:      -4.7     12.640     13.703
REMARK  4 active torsions:
REMARK  status: ('A' for Active; 'I' for Inactive)
REMARK    1  A    between atoms: O_1  and  C_11 
REMARK    2  A    between atoms: N_4  and  C_8 
REMARK    3  A    between atoms: N_7  and  C_10 
REMARK    4  A    between atoms: C_8  and  C_11 
ROOT
HETATM    1  N   UNK N   1      20.546  18.079   2.548  0.00  0.00    -0.315 N 
HETATM    2  N   UNK N   1      21.420  16.454   3.832  0.00  0.00    -0.352 N 
ATOM      3  HN  UNK N   1      21.849  15.980   4.628  1.00  0.00     0.166 HD
HETATM    4  C   UNK N   1      21.104  17.759   3.737  0.00  0.00     0.081 A 
HETATM    5  C   UNK N   1      20.515  16.896   1.864  0.00  0.00     0.193 A 
HETATM    6  C   UNK N   1      21.054  15.903   2.660  0.00  0.00     0.144 A 
HETATM    7  C   UNK N   1      21.353  18.732   4.841  0.00  0.00     0.089 C 
ENDROOT
BRANCH   1   8
HETATM    8  C   UNK N   1      20.143  19.475   2.289  0.00  0.00     0.158 C 
BRANCH   8   9
HETATM    9  C   UNK N   1      21.009  20.342   1.411  0.00  0.00     0.184 C 
BRANCH   9  10
HETATM   10  O   UNK N   1      20.646  20.130   0.081  0.00  0.00    -0.399 OA
HETATM   11  H   UNK N   1      20.103  20.785  -0.384  0.00  0.00     0.209 HD
ENDBRANCH   9  10
ENDBRANCH   8   9
ENDBRANCH   1   8
BRANCH   5  12
HETATM   12  N   UNK N   1      20.027  16.635   0.547  0.00  0.00    -0.096 N 
HETATM   13  O   UNK N   1      19.202  15.627   0.355  0.00  0.00    -0.530 OA
HETATM   14  O   UNK N   1      20.346  17.302  -0.383  0.00  0.00    -0.530 OA
ENDBRANCH   5  12
TORSDOF 4
ENDMDL
MODEL 4
REMARK VINA RESULT:      -4.7      1.901      2.290
REMARK  4 active torsions:
REMARK  status: ('A' for Active; 'I' for Inactive)
REMARK    1  A    between atoms: O_1  and  C_11 
REMARK    2  A    between atoms: N_4  and  C_8 
REMARK    3  A    between atoms: N_7  and  C_10 
REMARK    4  A    between atoms: C_8  and  C_11 
ROOT
HETATM    1  N   UNK N   1      31.584  17.179   5.989  0.00  0.00    -0.315 N 
HETATM    2  N   UNK N   1      31.414  17.666   3.802  0.00  0.00    -0.352 N 
ATOM      3  HN  UNK N   1      31.006  17.860   2.886  1.00  0.00     0.166 HD
HETATM    4  C   UNK N   1      30.755  17.390   4.943  0.00  0.00     0.081 A 
HETATM    5  C   UNK N   1      32.836  17.334   5.462  0.00  0.00     0.193 A 
HETATM    6  C   UNK N   1      32.721  17.633   4.118  0.00  0.00     0.144 A 
HETATM    7  C   UNK N   1      29.266  17.329   5.020  0.00  0.00     0.089 C 
ENDROOT
BRANCH   1   8
HETATM    8  C   UNK N   1      31.013  16.864   7.314  0.00  0.00     0.158 C 
BRANCH   8   9
HETATM    9  C   UNK N   1      31.303  17.776   8.478  0.00  0.00     0.184 C 
BRANCH   9  10
HETATM   10  O   UNK N   1      32.489  17.362   9.083  0.00  0.00    -0.399 OA
HETATM   11  H   UNK N   1      32.876  16.503   8.855  0.00  0.00     0.209 HD
ENDBRANCH   9  10
ENDBRANCH   8   9
ENDBRANCH   1   8
BRANCH   5  12
HETATM   12  N   UNK N   1      34.102  17.225   6.113  0.00  0.00    -0.096 N 
HETATM   13  O   UNK N   1      34.875  16.193   5.846  0.00  0.00    -0.530 OA
HETATM   14  O   UNK N   1      34.480  18.040   6.891  0.00  0.00    -0.530 OA
ENDBRANCH   5  12
TORSDOF 4
ENDMDL
MODEL 5
REMARK VINA RESULT:      -4.7     12.232     13.120
REMARK  4 active torsions:
REMARK  status: ('A' for Active; 'I' for Inactive)
REMARK    1  A    between atoms: O_1  and  C_11 
REMARK    2  A    between atoms: N_4  and  C_8 
REMARK    3  A    between atoms: N_7  and  C_10 
REMARK    4  A    between atoms: C_8  and  C_11 
ROOT
HETATM    1  N   UNK N   1      29.274  23.202  -4.320  0.00  0.00    -0.315 N 
HETATM    2  N   UNK N   1      29.777  21.504  -5.704  0.00  0.00    -0.352 N 
ATOM      3  HN  UNK N   1      29.783  20.903  -6.529  1.00  0.00     0.166 HD
HETATM    4  C   UNK N   1      29.062  22.631  -5.526  0.00  0.00     0.081 A 
HETATM    5  C   UNK N   1      30.178  22.375  -3.712  0.00  0.00     0.193 A 
HETATM    6  C   UNK N   1      30.481  21.335  -4.570  0.00  0.00     0.144 A 
HETATM    7  C   UNK N   1      28.139  23.174  -6.566  0.00  0.00     0.089 C 
ENDROOT
BRANCH   1   8
HETATM    8  C   UNK N   1      28.562  24.447  -3.971  0.00  0.00     0.158 C 
BRANCH   8   9
HETATM    9  C   UNK N   1      27.197  24.364  -3.338  0.00  0.00     0.184 C 
BRANCH   9  10
HETATM   10  O   UNK N   1      27.296  23.617  -2.164  0.00  0.00    -0.399 OA
HETATM   11  H   UNK N   1      27.945  22.899  -2.099  0.00  0.00     0.209 HD
ENDBRANCH   9  10
ENDBRANCH   8   9
ENDBRANCH   1   8
BRANCH   5  12
HETATM   12  N   UNK N   1      30.765  22.488  -2.415  0.00  0.00    -0.096 N 
HETATM   13  O   UNK N   1      31.948  21.953  -2.196  0.00  0.00    -0.530 OA
HETATM   14  O   UNK N   1      30.215  23.052  -1.525  0.00  0.00    -0.530 OA
ENDBRANCH   5  12
TORSDOF 4
ENDMDL
MODEL 6
REMARK VINA RESULT:      -4.6     11.352     12.767
REMARK  4 active torsions:
REMARK  status: ('A' for Active; 'I' for Inactive)
REMARK    1  A    between atoms: O_1  and  C_11 
REMARK    2  A    between atoms: N_4  and  C_8 
REMARK    3  A    between atoms: N_7  and  C_10 
REMARK    4  A    between atoms: C_8  and  C_11 
ROOT
HETATM    1  N   UNK N   1      21.057  17.750   2.807  0.00  0.00    -0.315 N 
HETATM    2  N   UNK N   1      22.846  17.384   4.118  0.00  0.00    -0.352 N 
ATOM      3  HN  UNK N   1      23.584  16.896   4.626  1.00  0.00     0.166 HD
HETATM    4  C   UNK N   1      21.891  16.833   3.346  0.00  0.00     0.081 A 
HETATM    5  C   UNK N   1      21.527  18.946   3.276  0.00  0.00     0.193 A 
HETATM    6  C   UNK N   1      22.626  18.711   4.080  0.00  0.00     0.144 A 
HETATM    7  C   UNK N   1      21.783  15.361   3.122  0.00  0.00     0.089 C 
ENDROOT
BRANCH   1   8
HETATM    8  C   UNK N   1      19.954  17.304   1.933  0.00  0.00     0.158 C 
BRANCH   8   9
HETATM    9  C   UNK N   1      20.145  17.315   0.439  0.00  0.00     0.184 C 
BRANCH   9  10
HETATM   10  O   UNK N   1      20.362  18.630   0.028  0.00  0.00    -0.399 OA
HETATM   11  H   UNK N   1      21.264  18.984  -0.013  0.00  0.00     0.209 HD
ENDBRANCH   9  10
ENDBRANCH   8   9
ENDBRANCH   1   8
BRANCH   5  12
HETATM   12  N   UNK N   1      21.031  20.263   3.029  0.00  0.00    -0.096 N 
HETATM   13  O   UNK N   1      21.376  20.882   1.921  0.00  0.00    -0.530 OA
HETATM   14  O   UNK N   1      20.313  20.816   3.798  0.00  0.00    -0.530 OA
ENDBRANCH   5  12
TORSDOF 4
ENDMDL
MODEL 7
REMARK VINA RESULT:      -4.6      9.552     11.128
REMARK  4 active torsions:
REMARK  status: ('A' for Active; 'I' for Inactive)
REMARK    1  A    between atoms: O_1  and  C_11 
REMARK    2  A    between atoms: N_4  and  C_8 
REMARK    3  A    between atoms: N_7  and  C_10 
REMARK    4  A    between atoms: C_8  and  C_11 
ROOT
HETATM    1  N   UNK N   1      22.348  18.816   4.098  0.00  0.00    -0.315 N 
HETATM    2  N   UNK N   1      24.144  18.044   5.207  0.00  0.00    -0.352 N 
ATOM      3  HN  UNK N   1      24.722  17.483   5.834  1.00  0.00     0.166 HD
HETATM    4  C   UNK N   1      22.822  17.918   4.990  0.00  0.00     0.081 A 
HETATM    5  C   UNK N   1      23.448  19.545   3.740  0.00  0.00     0.193 A 
HETATM    6  C   UNK N   1      24.547  19.063   4.426  0.00  0.00     0.144 A 
HETATM    7  C   UNK N   1      21.986  16.888   5.675  0.00  0.00     0.089 C 
ENDROOT
BRANCH   1   8
HETATM    8  C   UNK N   1      20.912  18.808   3.753  0.00  0.00     0.158 C 
BRANCH   8   9
HETATM    9  C   UNK N   1      20.498  18.563   2.325  0.00  0.00     0.184 C 
BRANCH   9  10
HETATM   10  O   UNK N   1      20.315  19.794   1.698  0.00  0.00    -0.399 OA
HETATM   11  H   UNK N   1      20.399  19.866   0.734  0.00  0.00     0.209 HD
ENDBRANCH   9  10
ENDBRANCH   8   9
ENDBRANCH   1   8
BRANCH   5  12
HETATM   12  N   UNK N   1      23.541  20.635   2.821  0.00  0.00    -0.096 N 
HETATM   13  O   UNK N   1      22.565  21.517   2.771  0.00  0.00    -0.530 OA
HETATM   14  O   UNK N   1      24.475  20.768   2.100  0.00  0.00    -0.530 OA
ENDBRANCH   5  12
TORSDOF 4
ENDMDL
MODEL 8
REMARK VINA RESULT:      -4.4      1.853      3.387
REMARK  4 active torsions:
REMARK  status: ('A' for Active; 'I' for Inactive)
REMARK    1  A    between atoms: O_1  and  C_11 
REMARK    2  A    between atoms: N_4  and  C_8 
REMARK    3  A    between atoms: N_7  and  C_10 
REMARK    4  A    between atoms: C_8  and  C_11 
ROOT
HETATM    1  N   UNK N   1      32.875  17.355   6.577  0.00  0.00    -0.315 N 
HETATM    2  N   UNK N   1      30.999  17.594   7.792  0.00  0.00    -0.352 N 
ATOM      3  HN  UNK N   1      30.011  17.593   8.049  1.00  0.00     0.166 HD
HETATM    4  C   UNK N   1      31.528  17.247   6.603  0.00  0.00     0.081 A 
HETATM    5  C   UNK N   1      33.200  17.796   7.829  0.00  0.00     0.193 A 
HETATM    6  C   UNK N   1      32.041  17.940   8.568  0.00  0.00     0.144 A 
HETATM    7  C   UNK N   1      30.695  16.795   5.450  0.00  0.00     0.089 C 
ENDROOT
BRANCH   1   8
HETATM    8  C   UNK N   1      33.606  17.011   5.341  0.00  0.00     0.158 C 
BRANCH   8   9
HETATM    9  C   UNK N   1      34.334  15.694   5.258  0.00  0.00     0.184 C 
BRANCH   9  10
HETATM   10  O   UNK N   1      35.460  15.756   6.078  0.00  0.00    -0.399 OA
HETATM   11  H   UNK N   1      35.997  16.563   6.106  0.00  0.00     0.209 HD
ENDBRANCH   9  10
ENDBRANCH   8   9
ENDBRANCH   1   8
BRANCH   5  12
HETATM   12  N   UNK N   1      34.490  18.086   8.371  0.00  0.00    -0.096 N 
HETATM   13  O   UNK N   1      35.191  17.114   8.916  0.00  0.00    -0.530 OA
HETATM   14  O   UNK N   1      34.949  19.181   8.343  0.00  0.00    -0.530 OA
ENDBRANCH   5  12
TORSDOF 4
ENDMDL
MODEL 9
REMARK VINA RESULT:      -4.4     11.730     12.351
REMARK  4 active torsions:
REMARK  status: ('A' for Active; 'I' for Inactive)
REMARK    1  A    between atoms: O_1  and  C_11 
REMARK    2  A    between atoms: N_4  and  C_8 
REMARK    3  A    between atoms: N_7  and  C_10 
REMARK    4  A    between atoms: C_8  and  C_11 
ROOT
HETATM    1  N   UNK N   1      42.382  21.238   2.659  0.00  0.00    -0.315 N 
HETATM    2  N   UNK N   1      43.885  19.567   2.641  0.00  0.00    -0.352 N 
ATOM      3  HN  UNK N   1      44.327  18.670   2.433  1.00  0.00     0.166 HD
HETATM    4  C   UNK N   1      42.687  20.001   2.207  0.00  0.00     0.081 A 
HETATM    5  C   UNK N   1      43.460  21.591   3.422  0.00  0.00     0.193 A 
HETATM    6  C   UNK N   1      44.378  20.558   3.405  0.00  0.00     0.144 A 
HETATM    7  C   UNK N   1      41.806  19.186   1.320  0.00  0.00     0.089 C 
ENDROOT
BRANCH   1   8
HETATM    8  C   UNK N   1      41.099  21.856   2.271  0.00  0.00     0.158 C 
BRANCH   8   9
HETATM    9  C   UNK N   1      41.097  22.991   1.279  0.00  0.00     0.184 C 
BRANCH   9  10
HETATM   10  O   UNK N   1      41.358  24.178   1.961  0.00  0.00    -0.399 OA
HETATM   11  H   UNK N   1      42.016  24.194   2.675  0.00  0.00     0.209 HD
ENDBRANCH   9  10
ENDBRANCH   8   9
ENDBRANCH   1   8
BRANCH   5  12
HETATM   12  N   UNK N   1      43.686  22.799   4.150  0.00  0.00    -0.096 N 
HETATM   13  O   UNK N   1      43.823  22.746   5.458  0.00  0.00    -0.530 OA
HETATM   14  O   UNK N   1      43.755  23.854   3.607  0.00  0.00    -0.530 OA
ENDBRANCH   5  12
TORSDOF 4
ENDMDL
