MODEL 1
REMARK VINA RESULT:      -6.8      0.000      0.000
REMARK  6 active torsions:
REMARK  status: ('A' for Active; 'I' for Inactive)
REMARK    1  A    between atoms: S_1  and  N_4 
REMARK    2  A    between atoms: S_1  and  C_11 
REMARK    3  A    between atoms: N_6  and  C_21 
REMARK    4  A    between atoms: C_11  and  C_12 
REMARK    5  A    between atoms: C_15  and  C_18 
REMARK    6  A    between atoms: C_18  and  C_21 
ROOT
HETATM    1  N   UNK N   1      31.733  20.588  -3.438  0.00  0.00    -0.365 N 
HETATM    2  C   UNK N   1      28.996  23.554  -4.208  0.00  0.00    -0.042 A 
HETATM    3  C   UNK N   1      30.338  21.660  -4.818  0.00  0.00    -0.001 A 
HETATM    4  C   UNK N   1      29.408  22.629  -5.187  0.00  0.00     0.022 A 
HETATM    5  C   UNK N   1      30.942  20.659  -5.538  0.00  0.00    -0.029 A 
HETATM    6  C   UNK N   1      30.845  21.591  -3.552  0.00  0.00     0.043 A 
HETATM    7  C   UNK N   1      29.537  23.487  -2.900  0.00  0.00     0.010 A 
HETATM    8  C   UNK N   1      30.469  22.492  -2.560  0.00  0.00     0.031 A 
HETATM    9  C   UNK N   1      31.805  20.006  -4.664  0.00  0.00     0.096 A 
HETATM   10  H   UNK N   1      32.231  20.328  -2.630  0.00  0.00     0.165 HD
ENDROOT
BRANCH   2  11
HETATM   11  C   UNK N   1      27.989  24.629  -4.575  0.00  0.00     0.196 C 
BRANCH  11  12
HETATM   12  S   UNK N   1      26.133  24.476  -4.279  0.00  0.00     0.215 S 
HETATM   13  O   UNK N   1      26.649  23.829  -2.987  0.00  0.00    -0.211 OA
HETATM   14  O   UNK N   1      26.673  23.582  -5.405  0.00  0.00    -0.211 OA
BRANCH  12  15
HETATM   15  N   UNK N   1      26.708  26.151  -4.382  0.00  0.00    -0.210 NA
HETATM   16  C   UNK N   1      26.332  26.829  -3.148  0.00  0.00     0.107 C 
HETATM   17  C   UNK N   1      25.963  28.241  -3.520  0.00  0.00     0.017 C 
HETATM   18  C   UNK N   1      25.368  28.100  -4.893  0.00  0.00     0.017 C 
HETATM   19  C   UNK N   1      25.944  26.808  -5.442  0.00  0.00     0.107 C 
ENDBRANCH  12  15
ENDBRANCH  11  12
ENDBRANCH   2  11
BRANCH   5  20
HETATM   20  C   UNK N   1      30.768  20.378  -6.996  0.00  0.00     0.071 C 
BRANCH  20  21
HETATM   21  C   UNK N   1      29.520  19.555  -7.305  0.00  0.00     0.276 C 
BRANCH  21  22
HETATM   22  N   UNK N   1      28.831  20.032  -8.500  0.00  0.00     0.080 N 
HETATM   23  C   UNK N   1      27.876  21.063  -8.119  0.00  0.00     0.309 C 
HETATM   24  C   UNK N   1      29.834  20.694  -9.317  0.00  0.00     0.309 C 
ENDBRANCH  21  22
ENDBRANCH  20  21
ENDBRANCH   5  20
TORSDOF 6
ENDMDL
MODEL 2
REMARK VINA RESULT:      -6.7     22.941     25.690
REMARK  6 active torsions:
REMARK  status: ('A' for Active; 'I' for Inactive)
REMARK    1  A    between atoms: S_1  and  N_4 
REMARK    2  A    between atoms: S_1  and  C_11 
REMARK    3  A    between atoms: N_6  and  C_21 
REMARK    4  A    between atoms: C_11  and  C_12 
REMARK    5  A    between atoms: C_15  and  C_18 
REMARK    6  A    between atoms: C_18  and  C_21 
ROOT
HETATM    1  N   UNK N   1      34.983  13.088  19.909  0.00  0.00    -0.365 N 
HETATM    2  C   UNK N   1      36.011  12.489  15.977  0.00  0.00    -0.042 A 
HETATM    3  C   UNK N   1      35.422  11.741  18.180  0.00  0.00    -0.001 A 
HETATM    4  C   UNK N   1      35.770  11.425  16.868  0.00  0.00     0.022 A 
HETATM    5  C   UNK N   1      35.157  10.943  19.266  0.00  0.00    -0.029 A 
HETATM    6  C   UNK N   1      35.312  13.032  18.608  0.00  0.00     0.043 A 
HETATM    7  C   UNK N   1      35.911  13.828  16.430  0.00  0.00     0.010 A 
HETATM    8  C   UNK N   1      35.552  14.110  17.759  0.00  0.00     0.031 A 
HETATM    9  C   UNK N   1      34.889  11.799  20.330  0.00  0.00     0.096 A 
HETATM   10  H   UNK N   1      34.839  13.898  20.450  0.00  0.00     0.165 HD
ENDROOT
BRANCH   2  11
HETATM   11  C   UNK N   1      36.399  12.184  14.541  0.00  0.00     0.196 C 
BRANCH  11  12
HETATM   12  S   UNK N   1      35.154  11.901  13.153  0.00  0.00     0.215 S 
HETATM   13  O   UNK N   1      34.188  12.261  14.290  0.00  0.00    -0.211 OA
HETATM   14  O   UNK N   1      35.868  10.629  13.638  0.00  0.00    -0.211 OA
BRANCH  12  15
HETATM   15  N   UNK N   1      36.263  13.253  12.858  0.00  0.00    -0.210 NA
HETATM   16  C   UNK N   1      35.459  14.445  12.616  0.00  0.00     0.107 C 
HETATM   17  C   UNK N   1      36.174  15.248  11.562  0.00  0.00     0.017 C 
HETATM   18  C   UNK N   1      36.828  14.201  10.704  0.00  0.00     0.017 C 
HETATM   19  C   UNK N   1      36.954  12.981  11.598  0.00  0.00     0.107 C 
ENDBRANCH  12  15
ENDBRANCH  11  12
ENDBRANCH   2  11
BRANCH   5  20
HETATM   20  C   UNK N   1      35.227   9.451  19.317  0.00  0.00     0.071 C 
BRANCH  20  21
HETATM   21  C   UNK N   1      33.869   8.779  19.122  0.00  0.00     0.276 C 
BRANCH  21  22
HETATM   22  N   UNK N   1      33.007   8.940  20.288  0.00  0.00     0.080 N 
HETATM   23  C   UNK N   1      31.653   8.532  19.937  0.00  0.00     0.309 C 
HETATM   24  C   UNK N   1      33.471   7.984  21.278  0.00  0.00     0.309 C 
ENDBRANCH  21  22
ENDBRANCH  20  21
ENDBRANCH   5  20
TORSDOF 6
ENDMDL
MODEL 3
REMARK VINA RESULT:      -6.6     23.642     26.459
REMARK  6 active torsions:
REMARK  status: ('A' for Active; 'I' for Inactive)
REMARK    1  A    between atoms: S_1  and  N_4 
REMARK    2  A    between atoms: S_1  and  C_11 
REMARK    3  A    between atoms: N_6  and  C_21 
REMARK    4  A    between atoms: C_11  and  C_12 
REMARK    5  A    between atoms: C_15  and  C_18 
REMARK    6  A    between atoms: C_18  and  C_21 
ROOT
HETATM    1  N   UNK N   1      35.732  12.467  20.276  0.00  0.00    -0.365 N 
HETATM    2  C   UNK N   1      34.789  12.310  16.281  0.00  0.00    -0.042 A 
HETATM    3  C   UNK N   1      35.323  11.320  18.401  0.00  0.00    -0.001 A 
HETATM    4  C   UNK N   1      35.015  11.153  17.052  0.00  0.00     0.022 A 
HETATM    5  C   UNK N   1      35.616  10.409  19.385  0.00  0.00    -0.029 A 
HETATM    6  C   UNK N   1      35.408  12.556  18.975  0.00  0.00     0.043 A 
HETATM    7  C   UNK N   1      34.894  13.590  16.878  0.00  0.00     0.010 A 
HETATM    8  C   UNK N   1      35.202  13.722  18.243  0.00  0.00     0.031 A 
HETATM    9  C   UNK N   1      35.869  11.141  20.541  0.00  0.00     0.096 A 
HETATM   10  H   UNK N   1      35.848  13.211  20.910  0.00  0.00     0.165 HD
ENDROOT
BRANCH   2  11
HETATM   11  C   UNK N   1      34.458  12.168  14.805  0.00  0.00     0.196 C 
BRANCH  11  12
HETATM   12  S   UNK N   1      35.750  12.177  13.432  0.00  0.00     0.215 S 
HETATM   13  O   UNK N   1      36.665  12.410  14.642  0.00  0.00    -0.211 OA
HETATM   14  O   UNK N   1      34.802  13.387  13.423  0.00  0.00    -0.211 OA
BRANCH  12  15
HETATM   15  N   UNK N   1      34.902  10.629  13.611  0.00  0.00    -0.210 NA
HETATM   16  C   UNK N   1      35.907   9.580  13.726  0.00  0.00     0.107 C 
HETATM   17  C   UNK N   1      35.369   8.377  12.999  0.00  0.00     0.017 C 
HETATM   18  C   UNK N   1      34.561   8.972  11.880  0.00  0.00     0.017 C 
HETATM   19  C   UNK N   1      34.203  10.369  12.352  0.00  0.00     0.107 C 
ENDBRANCH  12  15
ENDBRANCH  11  12
ENDBRANCH   2  11
BRANCH   5  20
HETATM   20  C   UNK N   1      35.725   8.926  19.226  0.00  0.00     0.071 C 
BRANCH  20  21
HETATM   21  C   UNK N   1      34.368   8.230  19.141  0.00  0.00     0.276 C 
BRANCH  21  22
HETATM   22  N   UNK N   1      33.500   8.584  20.259  0.00  0.00     0.080 N 
HETATM   23  C   UNK N   1      32.118   8.296  19.898  0.00  0.00     0.309 C 
HETATM   24  C   UNK N   1      33.831   7.674  21.342  0.00  0.00     0.309 C 
ENDBRANCH  21  22
ENDBRANCH  20  21
ENDBRANCH   5  20
TORSDOF 6
ENDMDL
MODEL 4
REMARK VINA RESULT:      -6.5      3.509      5.984
REMARK  6 active torsions:
REMARK  status: ('A' for Active; 'I' for Inactive)
REMARK    1  A    between atoms: S_1  and  N_4 
REMARK    2  A    between atoms: S_1  and  C_11 
REMARK    3  A    between atoms: N_6  and  C_21 
REMARK    4  A    between atoms: C_11  and  C_12 
REMARK    5  A    between atoms: C_15  and  C_18 
REMARK    6  A    between atoms: C_18  and  C_21 
ROOT
HETATM    1  N   UNK N   1      25.266  24.276  -5.797  0.00  0.00    -0.365 N 
HETATM    2  C   UNK N   1      26.805  27.968  -4.862  0.00  0.00    -0.042 A 
HETATM    3  C   UNK N   1      26.961  25.594  -5.175  0.00  0.00    -0.001 A 
HETATM    4  C   UNK N   1      27.583  26.794  -4.835  0.00  0.00     0.022 A 
HETATM    5  C   UNK N   1      27.435  24.306  -5.216  0.00  0.00    -0.029 A 
HETATM    6  C   UNK N   1      25.644  25.537  -5.528  0.00  0.00     0.043 A 
HETATM    7  C   UNK N   1      25.435  27.902  -5.214  0.00  0.00     0.010 A 
HETATM    8  C   UNK N   1      24.842  26.675  -5.557  0.00  0.00     0.031 A 
HETATM    9  C   UNK N   1      26.366  23.503  -5.602  0.00  0.00     0.096 A 
HETATM   10  H   UNK N   1      24.373  23.973  -6.078  0.00  0.00     0.165 HD
ENDROOT
BRANCH   2  11
HETATM   11  C   UNK N   1      27.446  29.294  -4.491  0.00  0.00     0.196 C 
BRANCH  11  12
HETATM   12  S   UNK N   1      27.519  29.970  -2.732  0.00  0.00     0.215 S 
HETATM   13  O   UNK N   1      26.874  28.606  -2.452  0.00  0.00    -0.211 OA
HETATM   14  O   UNK N   1      26.520  30.691  -3.650  0.00  0.00    -0.211 OA
BRANCH  12  15
HETATM   15  N   UNK N   1      29.111  29.738  -3.479  0.00  0.00    -0.210 NA
HETATM   16  C   UNK N   1      29.863  28.805  -2.650  0.00  0.00     0.107 C 
HETATM   17  C   UNK N   1      31.297  29.262  -2.666  0.00  0.00     0.017 C 
HETATM   18  C   UNK N   1      31.190  30.757  -2.774  0.00  0.00     0.017 C 
HETATM   19  C   UNK N   1      29.825  31.012  -3.385  0.00  0.00     0.107 C 
ENDBRANCH  12  15
ENDBRANCH  11  12
ENDBRANCH   2  11
BRANCH   5  20
HETATM   20  C   UNK N   1      28.806  23.846  -4.838  0.00  0.00     0.071 C 
BRANCH  20  21
HETATM   21  C   UNK N   1      28.952  23.555  -3.346  0.00  0.00     0.276 C 
BRANCH  21  22
HETATM   22  N   UNK N   1      30.273  23.917  -2.844  0.00  0.00     0.080 N 
HETATM   23  C   UNK N   1      31.219  22.865  -3.192  0.00  0.00     0.309 C 
HETATM   24  C   UNK N   1      30.688  25.094  -3.587  0.00  0.00     0.309 C 
ENDBRANCH  21  22
ENDBRANCH  20  21
ENDBRANCH   5  20
TORSDOF 6
ENDMDL
MODEL 5
REMARK VINA RESULT:      -6.5      2.667      7.470
REMARK  6 active torsions:
REMARK  status: ('A' for Active; 'I' for Inactive)
REMARK    1  A    between atoms: S_1  and  N_4 
REMARK    2  A    between atoms: S_1  and  C_11 
REMARK    3  A    between atoms: N_6  and  C_21 
REMARK    4  A    between atoms: C_11  and  C_12 
REMARK    5  A    between atoms: C_15  and  C_18 
REMARK    6  A    between atoms: C_18  and  C_21 
ROOT
HETATM    1  N   UNK N   1      25.564  24.410  -6.095  0.00  0.00    -0.365 N 
HETATM    2  C   UNK N   1      29.338  23.549  -4.719  0.00  0.00    -0.042 A 
HETATM    3  C   UNK N   1      27.261  24.752  -4.681  0.00  0.00    -0.001 A 
HETATM    4  C   UNK N   1      28.529  24.545  -4.139  0.00  0.00     0.022 A 
HETATM    5  C   UNK N   1      26.272  25.647  -4.360  0.00  0.00    -0.029 A 
HETATM    6  C   UNK N   1      26.801  24.022  -5.739  0.00  0.00     0.043 A 
HETATM    7  C   UNK N   1      28.861  22.806  -5.827  0.00  0.00     0.010 A 
HETATM    8  C   UNK N   1      27.575  23.036  -6.345  0.00  0.00     0.031 A 
HETATM    9  C   UNK N   1      25.227  25.420  -5.251  0.00  0.00     0.096 A 
HETATM   10  H   UNK N   1      25.013  24.037  -6.821  0.00  0.00     0.165 HD
ENDROOT
BRANCH   2  11
HETATM   11  C   UNK N   1      30.728  23.300  -4.160  0.00  0.00     0.196 C 
BRANCH  11  12
HETATM   12  S   UNK N   1      31.138  21.923  -2.938  0.00  0.00     0.215 S 
HETATM   13  O   UNK N   1      29.644  21.641  -3.145  0.00  0.00    -0.211 OA
HETATM   14  O   UNK N   1      31.188  23.339  -2.342  0.00  0.00    -0.211 OA
BRANCH  12  15
HETATM   15  N   UNK N   1      31.994  21.788  -4.486  0.00  0.00    -0.210 NA
HETATM   16  C   UNK N   1      31.663  20.493  -5.068  0.00  0.00     0.107 C 
HETATM   17  C   UNK N   1      32.907  19.990  -5.751  0.00  0.00     0.017 C 
HETATM   18  C   UNK N   1      34.021  20.533  -4.901  0.00  0.00     0.017 C 
HETATM   19  C   UNK N   1      33.425  21.733  -4.188  0.00  0.00     0.107 C 
ENDBRANCH  12  15
ENDBRANCH  11  12
ENDBRANCH   2  11
BRANCH   5  20
HETATM   20  C   UNK N   1      26.336  26.713  -3.315  0.00  0.00     0.071 C 
BRANCH  20  21
HETATM   21  C   UNK N   1      25.562  27.974  -3.694  0.00  0.00     0.276 C 
BRANCH  21  22
HETATM   22  N   UNK N   1      26.414  29.159  -3.698  0.00  0.00     0.080 N 
HETATM   23  C   UNK N   1      27.474  28.987  -2.715  0.00  0.00     0.309 C 
HETATM   24  C   UNK N   1      27.068  29.191  -4.995  0.00  0.00     0.309 C 
ENDBRANCH  21  22
ENDBRANCH  20  21
ENDBRANCH   5  20
TORSDOF 6
ENDMDL
MODEL 6
REMARK VINA RESULT:      -6.5     11.102     12.891
REMARK  6 active torsions:
REMARK  status: ('A' for Active; 'I' for Inactive)
REMARK    1  A    between atoms: S_1  and  N_4 
REMARK    2  A    between atoms: S_1  and  C_11 
REMARK    3  A    between atoms: N_6  and  C_21 
REMARK    4  A    between atoms: C_11  and  C_12 
REMARK    5  A    between atoms: C_15  and  C_18 
REMARK    6  A    between atoms: C_18  and  C_21 
ROOT
HETATM    1  N   UNK N   1      31.986  17.567   9.078  0.00  0.00    -0.365 N 
HETATM    2  C   UNK N   1      28.569  17.613   6.798  0.00  0.00    -0.042 A 
HETATM    3  C   UNK N   1      30.796  16.882   7.314  0.00  0.00    -0.001 A 
HETATM    4  C   UNK N   1      29.691  16.827   6.468  0.00  0.00     0.022 A 
HETATM    5  C   UNK N   1      32.022  16.267   7.248  0.00  0.00    -0.029 A 
HETATM    6  C   UNK N   1      30.812  17.666   8.432  0.00  0.00     0.043 A 
HETATM    7  C   UNK N   1      28.596  18.436   7.950  0.00  0.00     0.010 A 
HETATM    8  C   UNK N   1      29.726  18.463   8.785  0.00  0.00     0.031 A 
HETATM    9  C   UNK N   1      32.746  16.707   8.352  0.00  0.00     0.096 A 
HETATM   10  H   UNK N   1      32.243  18.026   9.911  0.00  0.00     0.165 HD
ENDROOT
BRANCH   2  11
HETATM   11  C   UNK N   1      27.348  17.584   5.895  0.00  0.00     0.196 C 
BRANCH  11  12
HETATM   12  S   UNK N   1      27.204  18.563   4.290  0.00  0.00     0.215 S 
HETATM   13  O   UNK N   1      28.622  18.973   4.709  0.00  0.00    -0.211 OA
HETATM   14  O   UNK N   1      26.301  19.068   5.427  0.00  0.00    -0.211 OA
BRANCH  12  15
HETATM   15  N   UNK N   1      27.129  16.805   4.068  0.00  0.00    -0.210 NA
HETATM   16  C   UNK N   1      28.209  16.421   3.168  0.00  0.00     0.107 C 
HETATM   17  C   UNK N   1      27.682  15.307   2.302  0.00  0.00     0.017 C 
HETATM   18  C   UNK N   1      26.223  15.637   2.152  0.00  0.00     0.017 C 
HETATM   19  C   UNK N   1      25.891  16.510   3.347  0.00  0.00     0.107 C 
ENDBRANCH  12  15
ENDBRANCH  11  12
ENDBRANCH   2  11
BRANCH   5  20
HETATM   20  C   UNK N   1      32.513  15.368   6.159  0.00  0.00     0.071 C 
BRANCH  20  21
HETATM   21  C   UNK N   1      33.495  16.053   5.211  0.00  0.00     0.276 C 
BRANCH  21  22
HETATM   22  N   UNK N   1      32.954  16.182   3.862  0.00  0.00     0.080 N 
HETATM   23  C   UNK N   1      31.901  15.193   3.675  0.00  0.00     0.309 C 
HETATM   24  C   UNK N   1      32.304  17.479   3.801  0.00  0.00     0.309 C 
ENDBRANCH  21  22
ENDBRANCH  20  21
ENDBRANCH   5  20
TORSDOF 6
ENDMDL
MODEL 7
REMARK VINA RESULT:      -6.5     11.993     14.869
REMARK  6 active torsions:
REMARK  status: ('A' for Active; 'I' for Inactive)
REMARK    1  A    between atoms: S_1  and  N_4 
REMARK    2  A    between atoms: S_1  and  C_11 
REMARK    3  A    between atoms: N_6  and  C_21 
REMARK    4  A    between atoms: C_11  and  C_12 
REMARK    5  A    between atoms: C_15  and  C_18 
REMARK    6  A    between atoms: C_18  and  C_21 
ROOT
HETATM    1  N   UNK N   1      27.733  19.416   8.337  0.00  0.00    -0.365 N 
HETATM    2  C   UNK N   1      30.889  16.869   7.678  0.00  0.00    -0.042 A 
HETATM    3  C   UNK N   1      29.059  18.250   6.966  0.00  0.00    -0.001 A 
HETATM    4  C   UNK N   1      30.103  17.389   6.631  0.00  0.00     0.022 A 
HETATM    5  C   UNK N   1      28.120  18.883   6.190  0.00  0.00    -0.029 A 
HETATM    6  C   UNK N   1      28.791  18.591   8.261  0.00  0.00     0.043 A 
HETATM    7  C   UNK N   1      30.597  17.214   9.021  0.00  0.00     0.010 A 
HETATM    8  C   UNK N   1      29.540  18.090   9.322  0.00  0.00     0.031 A 
HETATM    9  C   UNK N   1      27.306  19.601   7.061  0.00  0.00     0.096 A 
HETATM   10  H   UNK N   1      27.346  19.808   9.153  0.00  0.00     0.165 HD
ENDROOT
BRANCH   2  11
HETATM   11  C   UNK N   1      32.031  15.923   7.353  0.00  0.00     0.196 C 
BRANCH  11  12
HETATM   12  S   UNK N   1      33.736  16.490   6.781  0.00  0.00     0.215 S 
HETATM   13  O   UNK N   1      33.009  17.842   6.787  0.00  0.00    -0.211 OA
HETATM   14  O   UNK N   1      32.970  15.641   5.754  0.00  0.00    -0.211 OA
BRANCH  12  15
HETATM   15  N   UNK N   1      33.721  15.793   8.412  0.00  0.00    -0.210 NA
HETATM   16  C   UNK N   1      34.280  16.782   9.325  0.00  0.00     0.107 C 
HETATM   17  C   UNK N   1      35.080  16.025  10.352  0.00  0.00     0.017 C 
HETATM   18  C   UNK N   1      35.614  14.847   9.586  0.00  0.00     0.017 C 
HETATM   19  C   UNK N   1      34.664  14.675   8.415  0.00  0.00     0.107 C 
ENDBRANCH  12  15
ENDBRANCH  11  12
ENDBRANCH   2  11
BRANCH   5  20
HETATM   20  C   UNK N   1      27.954  18.759   4.710  0.00  0.00     0.071 C 
BRANCH  20  21
HETATM   21  C   UNK N   1      27.063  19.846   4.113  0.00  0.00     0.276 C 
BRANCH  21  22
HETATM   22  N   UNK N   1      25.905  19.288   3.422  0.00  0.00     0.080 N 
HETATM   23  C   UNK N   1      24.897  18.916   4.405  0.00  0.00     0.309 C 
HETATM   24  C   UNK N   1      25.329  20.371   2.643  0.00  0.00     0.309 C 
ENDBRANCH  21  22
ENDBRANCH  20  21
ENDBRANCH   5  20
TORSDOF 6
ENDMDL
MODEL 8
REMARK VINA RESULT:      -6.4     11.969     14.734
REMARK  6 active torsions:
REMARK  status: ('A' for Active; 'I' for Inactive)
REMARK    1  A    between atoms: S_1  and  N_4 
REMARK    2  A    between atoms: S_1  and  C_11 
REMARK    3  A    between atoms: N_6  and  C_21 
REMARK    4  A    between atoms: C_11  and  C_12 
REMARK    5  A    between atoms: C_15  and  C_18 
REMARK    6  A    between atoms: C_18  and  C_21 
ROOT
HETATM    1  N   UNK N   1      27.783  19.101   7.405  0.00  0.00    -0.365 N 
HETATM    2  C   UNK N   1      31.185  16.800   7.471  0.00  0.00    -0.042 A 
HETATM    3  C   UNK N   1      29.264  17.763   6.401  0.00  0.00    -0.001 A 
HETATM    4  C   UNK N   1      30.396  16.954   6.314  0.00  0.00     0.022 A 
HETATM    5  C   UNK N   1      28.302  18.080   5.474  0.00  0.00    -0.029 A 
HETATM    6  C   UNK N   1      28.915  18.394   7.559  0.00  0.00     0.043 A 
HETATM    7  C   UNK N   1      30.809  17.445   8.675  0.00  0.00     0.010 A 
HETATM    8  C   UNK N   1      29.664  18.258   8.725  0.00  0.00     0.031 A 
HETATM    9  C   UNK N   1      27.390  18.911   6.118  0.00  0.00     0.096 A 
HETATM   10  H   UNK N   1      27.329  19.648   8.087  0.00  0.00     0.165 HD
ENDROOT
BRANCH   2  11
HETATM   11  C   UNK N   1      32.422  15.920   7.417  0.00  0.00     0.196 C 
BRANCH  11  12
HETATM   12  S   UNK N   1      34.125  16.534   6.888  0.00  0.00     0.215 S 
HETATM   13  O   UNK N   1      33.321  17.828   6.702  0.00  0.00    -0.211 OA
HETATM   14  O   UNK N   1      33.478  15.532   5.918  0.00  0.00    -0.211 OA
BRANCH  12  15
HETATM   15  N   UNK N   1      34.043  16.015   8.582  0.00  0.00    -0.210 NA
HETATM   16  C   UNK N   1      34.505  17.121   9.411  0.00  0.00     0.107 C 
HETATM   17  C   UNK N   1      35.274  16.519  10.556  0.00  0.00     0.017 C 
HETATM   18  C   UNK N   1      35.902  15.293   9.953  0.00  0.00     0.017 C 
HETATM   19  C   UNK N   1      35.031  14.951   8.759  0.00  0.00     0.107 C 
ENDBRANCH  12  15
ENDBRANCH  11  12
ENDBRANCH   2  11
BRANCH   5  20
HETATM   20  C   UNK N   1      28.206  17.566   4.074  0.00  0.00     0.071 C 
BRANCH  20  21
HETATM   21  C   UNK N   1      27.526  16.202   3.979  0.00  0.00     0.276 C 
BRANCH  21  22
HETATM   22  N   UNK N   1      28.295  15.261   3.172  0.00  0.00     0.080 N 
HETATM   23  C   UNK N   1      27.527  14.914   1.984  0.00  0.00     0.309 C 
HETATM   24  C   UNK N   1      29.464  15.983   2.699  0.00  0.00     0.309 C 
ENDBRANCH  21  22
ENDBRANCH  20  21
ENDBRANCH   5  20
TORSDOF 6
ENDMDL
MODEL 9
REMARK VINA RESULT:      -6.4     11.355     13.497
REMARK  6 active torsions:
REMARK  status: ('A' for Active; 'I' for Inactive)
REMARK    1  A    between atoms: S_1  and  N_4 
REMARK    2  A    between atoms: S_1  and  C_11 
REMARK    3  A    between atoms: N_6  and  C_21 
REMARK    4  A    between atoms: C_11  and  C_12 
REMARK    5  A    between atoms: C_15  and  C_18 
REMARK    6  A    between atoms: C_18  and  C_21 
ROOT
HETATM    1  N   UNK N   1      33.746  17.645   6.964  0.00  0.00    -0.365 N 
HETATM    2  C   UNK N   1      30.586  16.990   4.421  0.00  0.00    -0.042 A 
HETATM    3  C   UNK N   1      31.563  17.349   6.584  0.00  0.00    -0.001 A 
HETATM    4  C   UNK N   1      30.424  17.123   5.814  0.00  0.00     0.022 A 
HETATM    5  C   UNK N   1      31.729  17.492   7.939  0.00  0.00    -0.029 A 
HETATM    6  C   UNK N   1      32.805  17.442   6.026  0.00  0.00     0.043 A 
HETATM    7  C   UNK N   1      31.879  17.072   3.848  0.00  0.00     0.010 A 
HETATM    8  C   UNK N   1      33.007  17.306   4.655  0.00  0.00     0.031 A 
HETATM    9  C   UNK N   1      33.092  17.673   8.154  0.00  0.00     0.096 A 
HETATM   10  H   UNK N   1      34.714  17.752   6.818  0.00  0.00     0.165 HD
ENDROOT
BRANCH   2  11
HETATM   11  C   UNK N   1      29.368  16.736   3.550  0.00  0.00     0.196 C 
BRANCH  11  12
HETATM   12  S   UNK N   1      28.488  15.073   3.433  0.00  0.00     0.215 S 
HETATM   13  O   UNK N   1      29.528  14.733   4.510  0.00  0.00    -0.211 OA
HETATM   14  O   UNK N   1      29.318  15.442   2.194  0.00  0.00    -0.211 OA
BRANCH  12  15
HETATM   15  N   UNK N   1      27.451  16.396   3.997  0.00  0.00    -0.210 NA
HETATM   16  C   UNK N   1      26.899  16.012   5.290  0.00  0.00     0.107 C 
HETATM   17  C   UNK N   1      25.491  16.541   5.340  0.00  0.00     0.017 C 
HETATM   18  C   UNK N   1      25.033  16.461   3.910  0.00  0.00     0.017 C 
HETATM   19  C   UNK N   1      26.308  16.470   3.087  0.00  0.00     0.107 C 
ENDBRANCH  12  15
ENDBRANCH  11  12
ENDBRANCH   2  11
BRANCH   5  20
HETATM   20  C   UNK N   1      30.667  17.388   8.985  0.00  0.00     0.071 C 
BRANCH  20  21
HETATM   21  C   UNK N   1      29.986  18.722   9.284  0.00  0.00     0.276 C 
BRANCH  21  22
HETATM   22  N   UNK N   1      28.538  18.646   9.125  0.00  0.00     0.080 N 
HETATM   23  C   UNK N   1      28.184  19.074   7.779  0.00  0.00     0.309 C 
HETATM   24  C   UNK N   1      28.188  17.238   9.205  0.00  0.00     0.309 C 
ENDBRANCH  21  22
ENDBRANCH  20  21
ENDBRANCH   5  20
TORSDOF 6
ENDMDL
