REMARK  6 active torsions:
REMARK  status: ('A' for Active; 'I' for Inactive)
REMARK    1  A    between atoms: S_1  and  N_4 
REMARK    2  A    between atoms: S_1  and  C_11 
REMARK    3  A    between atoms: N_6  and  C_21 
REMARK    4  A    between atoms: C_11  and  C_12 
REMARK    5  A    between atoms: C_15  and  C_18 
REMARK    6  A    between atoms: C_18  and  C_21 
ROOT
HETATM    1  N   UNK N   1       8.472  -2.595  -0.119  0.00  0.00    -0.365 N 
HETATM    2  C   UNK N   1       4.875  -0.693   0.448  0.00  0.00    -0.042 A 
HETATM    3  C   UNK N   1       7.273  -0.798   0.455  0.00  0.00    -0.001 A 
HETATM    4  C   UNK N   1       6.112  -0.062   0.685  0.00  0.00     0.022 A 
HETATM    5  C   UNK N   1       8.598  -0.477   0.616  0.00  0.00    -0.029 A 
HETATM    6  C   UNK N   1       7.234  -2.089   0.014  0.00  0.00     0.043 A 
HETATM    7  C   UNK N   1       4.840  -2.038   0.005  0.00  0.00     0.010 A 
HETATM    8  C   UNK N   1       6.031  -2.749  -0.222  0.00  0.00     0.031 A 
HETATM    9  C   UNK N   1       9.326  -1.607   0.256  0.00  0.00     0.096 A 
HETATM   10  H   UNK N   1       8.712  -3.499  -0.426  0.00  0.00     0.165 HD
ENDROOT
BRANCH   2  11
HETATM   11  C   UNK N   1       3.588   0.075   0.694  0.00  0.00     0.196 C 
BRANCH  11  12
HETATM   12  S   UNK N   1       2.279   0.383  -0.628  0.00  0.00     0.215 S 
HETATM   13  O   UNK N   1       3.477   0.057  -1.530  0.00  0.00    -0.211 OA
HETATM   14  O   UNK N   1       2.707   1.638   0.149  0.00  0.00    -0.211 OA
BRANCH  12  15
HETATM   15  N   UNK N   1       1.926  -1.001   0.424  0.00  0.00    -0.210 NA
HETATM   16  C   UNK N   1       1.667  -2.155  -0.428  0.00  0.00     0.107 C 
HETATM   17  C   UNK N   1       0.578  -2.954   0.237  0.00  0.00     0.017 C 
HETATM   18  C   UNK N   1      -0.263  -1.909   0.915  0.00  0.00     0.017 C 
HETATM   19  C   UNK N   1       0.661  -0.720   1.102  0.00  0.00     0.107 C 
ENDBRANCH  12  15
ENDBRANCH  11  12
ENDBRANCH   2  11
BRANCH   5  20
HETATM   20  C   UNK N   1       9.148   0.805   1.153  0.00  0.00     0.071 C 
BRANCH  20  21
HETATM   21  C   UNK N   1      10.144   1.474   0.208  0.00  0.00     0.276 C 
BRANCH  21  22
HETATM   22  N   UNK N   1       9.519   2.518  -0.597  0.00  0.00     0.080 N 
HETATM   23  C   UNK N   1       9.050   3.580   0.282  0.00  0.00     0.309 C 
HETATM   24  C   UNK N   1      10.575   3.102  -1.406  0.00  0.00     0.309 C 
ENDBRANCH  21  22
ENDBRANCH  20  21
ENDBRANCH   5  20
TORSDOF 6
