MODEL 1
REMARK VINA RESULT:      -6.0      0.000      0.000
REMARK  5 active torsions:
REMARK  status: ('A' for Active; 'I' for Inactive)
REMARK    1  A    between atoms: C_13  and  O_4 
REMARK    2  A    between atoms: C_15  and  O_5 
REMARK    3  A    between atoms: C_16  and  O_6 
REMARK    4  A    between atoms: C_12  and  N_8 
REMARK    5  A    between atoms: C_14  and  N_9 
ROOT
HETATM    1  O   UNK N   1      35.723  12.349  11.373  0.00  0.00    -0.335 OA
HETATM    2  O   UNK N   1      35.124  14.955  12.361  0.00  0.00    -0.345 OA
HETATM    3  O   UNK N   1      34.964  13.386  14.019  0.00  0.00    -0.350 OA
HETATM    4  O   UNK N   1      37.626  10.838  12.826  0.00  0.00    -0.292 OA
HETATM    5  C   UNK N   1      35.116  13.336  10.537  0.00  0.00     0.182 C 
HETATM    6  C   UNK N   1      35.357  14.810  10.978  0.00  0.00     0.186 C 
HETATM    7  C   UNK N   1      35.490  13.125   9.047  0.00  0.00     0.139 C 
HETATM    8  C   UNK N   1      34.388  15.690  10.176  0.00  0.00     0.174 C 
HETATM    9  C   UNK N   1      34.512  15.497   8.636  0.00  0.00     0.138 C 
HETATM   10  C   UNK N   1      35.570  14.451   8.261  0.00  0.00     0.167 C 
HETATM   11  C   UNK N   1      36.616  12.920  12.312  0.00  0.00     0.277 C 
HETATM   12  C   UNK N   1      35.876  14.026  13.142  0.00  0.00     0.331 C 
HETATM   13  C   UNK N   1      37.099  11.853  13.255  0.00  0.00     0.196 C 
HETATM   14  C   UNK N   1      35.626  12.707  15.082  0.00  0.00     0.128 C 
HETATM   15  C   UNK N   1      36.974  12.062  14.730  0.00  0.00     0.116 C 
HETATM   16  C   UNK N   1      35.765  13.600  16.301  0.00  0.00     0.040 C 
ENDROOT
BRANCH   7  17
HETATM   17  N   UNK N   1      36.772  12.440   8.922  0.00  0.00    -0.416 N 
HETATM   18  C   UNK N   1      36.535  11.177   8.243  0.00  0.00     0.140 C 
HETATM   19  H   UNK N   1      37.674  12.786   9.254  0.00  0.00     0.153 HD
ENDBRANCH   7  17
BRANCH  10  20
HETATM   20  O   UNK N   1      35.571  14.215   6.885  0.00  0.00    -0.391 OA
HETATM   21  H   UNK N   1      36.404  14.026   6.425  0.00  0.00     0.210 HD
ENDBRANCH  10  20
BRANCH   9  22
HETATM   22  N   UNK N   1      34.840  16.750   7.964  0.00  0.00    -0.417 N 
HETATM   23  C   UNK N   1      33.693  17.130   7.159  0.00  0.00     0.140 C 
HETATM   24  H   UNK N   1      35.716  17.265   8.044  0.00  0.00     0.153 HD
ENDBRANCH   9  22
BRANCH  11  25
HETATM   25  O   UNK N   1      37.739  13.433  11.651  0.00  0.00    -0.356 OA
HETATM   26  H   UNK N   1      38.302  14.127  11.273  0.00  0.00     0.213 HD
ENDBRANCH  11  25
BRANCH   8  27
HETATM   27  O   UNK N   1      34.492  17.031  10.561  0.00  0.00    -0.391 OA
HETATM   28  H   UNK N   1      35.009  17.365  11.311  0.00  0.00     0.210 HD
ENDBRANCH   8  27
TORSDOF 5
ENDMDL
MODEL 2
REMARK VINA RESULT:      -5.9     16.898     21.103
REMARK  5 active torsions:
REMARK  status: ('A' for Active; 'I' for Inactive)
REMARK    1  A    between atoms: C_13  and  O_4 
REMARK    2  A    between atoms: C_15  and  O_5 
REMARK    3  A    between atoms: C_16  and  O_6 
REMARK    4  A    between atoms: C_12  and  N_8 
REMARK    5  A    between atoms: C_14  and  N_9 
ROOT
HETATM    1  O   UNK N   1      27.980  24.483  -6.440  0.00  0.00    -0.335 OA
HETATM    2  O   UNK N   1      28.460  25.136  -3.706  0.00  0.00    -0.345 OA
HETATM    3  O   UNK N   1      27.470  26.879  -4.811  0.00  0.00    -0.350 OA
HETATM    4  O   UNK N   1      25.367  24.944  -7.424  0.00  0.00    -0.292 OA
HETATM    5  C   UNK N   1      29.094  23.936  -5.732  0.00  0.00     0.182 C 
HETATM    6  C   UNK N   1      28.936  23.898  -4.183  0.00  0.00     0.186 C 
HETATM    7  C   UNK N   1      29.495  22.546  -6.292  0.00  0.00     0.139 C 
HETATM    8  C   UNK N   1      30.318  23.591  -3.591  0.00  0.00     0.174 C 
HETATM    9  C   UNK N   1      30.957  22.291  -4.159  0.00  0.00     0.138 C 
HETATM   10  C   UNK N   1      30.066  21.609  -5.205  0.00  0.00     0.167 C 
HETATM   11  C   UNK N   1      26.856  24.675  -5.600  0.00  0.00     0.277 C 
HETATM   12  C   UNK N   1      27.262  25.550  -4.364  0.00  0.00     0.331 C 
HETATM   13  C   UNK N   1      25.778  25.392  -6.365  0.00  0.00     0.196 C 
HETATM   14  C   UNK N   1      26.251  27.528  -5.160  0.00  0.00     0.128 C 
HETATM   15  C   UNK N   1      25.175  26.636  -5.797  0.00  0.00     0.116 C 
HETATM   16  C   UNK N   1      25.679  28.293  -3.982  0.00  0.00     0.040 C 
ENDROOT
BRANCH   7  17
HETATM   17  N   UNK N   1      28.352  21.884  -6.912  0.00  0.00    -0.416 N 
HETATM   18  C   UNK N   1      28.668  21.679  -8.317  0.00  0.00     0.140 C 
HETATM   19  H   UNK N   1      27.486  21.615  -6.445  0.00  0.00     0.153 HD
ENDBRANCH   7  17
BRANCH  10  20
HETATM   20  O   UNK N   1      30.717  20.518  -5.782  0.00  0.00    -0.391 OA
HETATM   21  H   UNK N   1      30.314  19.636  -5.744  0.00  0.00     0.210 HD
ENDBRANCH  10  20
BRANCH   9  22
HETATM   22  N   UNK N   1      31.249  21.329  -3.101  0.00  0.00    -0.417 N 
HETATM   23  C   UNK N   1      32.691  21.268  -2.947  0.00  0.00     0.140 C 
HETATM   24  H   UNK N   1      30.563  20.797  -2.566  0.00  0.00     0.153 HD
ENDBRANCH   9  22
BRANCH  11  25
HETATM   25  O   UNK N   1      26.336  23.435  -5.208  0.00  0.00    -0.356 OA
HETATM   26  H   UNK N   1      25.699  22.836  -4.790  0.00  0.00     0.213 HD
ENDBRANCH  11  25
BRANCH   8  27
HETATM   27  O   UNK N   1      30.279  23.606  -2.192  0.00  0.00    -0.391 OA
HETATM   28  H   UNK N   1      29.493  23.779  -1.651  0.00  0.00     0.210 HD
ENDBRANCH   8  27
TORSDOF 5
ENDMDL
MODEL 3
REMARK VINA RESULT:      -5.8      2.881      7.887
REMARK  5 active torsions:
REMARK  status: ('A' for Active; 'I' for Inactive)
REMARK    1  A    between atoms: C_13  and  O_4 
REMARK    2  A    between atoms: C_15  and  O_5 
REMARK    3  A    between atoms: C_16  and  O_6 
REMARK    4  A    between atoms: C_12  and  N_8 
REMARK    5  A    between atoms: C_14  and  N_9 
ROOT
HETATM    1  O   UNK N   1      32.918  16.011   6.644  0.00  0.00    -0.335 OA
HETATM    2  O   UNK N   1      35.285  14.510   6.123  0.00  0.00    -0.345 OA
HETATM    3  O   UNK N   1      33.772  14.285   4.421  0.00  0.00    -0.350 OA
HETATM    4  O   UNK N   1      32.019  17.734   4.586  0.00  0.00    -0.292 OA
HETATM    5  C   UNK N   1      33.681  15.439   7.708  0.00  0.00     0.182 C 
HETATM    6  C   UNK N   1      35.175  15.160   7.369  0.00  0.00     0.186 C 
HETATM    7  C   UNK N   1      33.544  16.267   9.013  0.00  0.00     0.139 C 
HETATM    8  C   UNK N   1      35.738  14.272   8.488  0.00  0.00     0.174 C 
HETATM    9  C   UNK N   1      35.549  14.879   9.909  0.00  0.00     0.138 C 
HETATM   10  C   UNK N   1      34.823  16.230   9.878  0.00  0.00     0.167 C 
HETATM   11  C   UNK N   1      33.733  16.420   5.561  0.00  0.00     0.277 C 
HETATM   12  C   UNK N   1      34.615  15.216   5.079  0.00  0.00     0.331 C 
HETATM   13  C   UNK N   1      32.861  16.866   4.420  0.00  0.00     0.196 C 
HETATM   14  C   UNK N   1      33.326  14.763   3.155  0.00  0.00     0.128 C 
HETATM   15  C   UNK N   1      33.064  16.273   3.063  0.00  0.00     0.116 C 
HETATM   16  C   UNK N   1      34.253  14.314   2.041  0.00  0.00     0.040 C 
ENDROOT
BRANCH   7  17
HETATM   17  N   UNK N   1      33.232  17.661   8.716  0.00  0.00    -0.416 N 
HETATM   18  C   UNK N   1      31.785  17.798   8.704  0.00  0.00     0.140 C 
HETATM   19  H   UNK N   1      33.909  18.406   8.546  0.00  0.00     0.153 HD
ENDBRANCH   7  17
BRANCH  10  20
HETATM   20  O   UNK N   1      34.562  16.686  11.170  0.00  0.00    -0.391 OA
HETATM   21  H   UNK N   1      34.722  17.616  11.399  0.00  0.00     0.210 HD
ENDBRANCH  10  20
BRANCH   9  22
HETATM   22  N   UNK N   1      36.827  15.056  10.591  0.00  0.00    -0.417 N 
HETATM   23  C   UNK N   1      36.893  14.080  11.663  0.00  0.00     0.140 C 
HETATM   24  H   UNK N   1      37.544  15.742  10.357  0.00  0.00     0.153 HD
ENDBRANCH   9  22
BRANCH  11  25
HETATM   25  O   UNK N   1      34.517  17.516   5.942  0.00  0.00    -0.356 OA
HETATM   26  H   UNK N   1      34.867  18.183   6.554  0.00  0.00     0.213 HD
ENDBRANCH  11  25
BRANCH   8  27
HETATM   27  O   UNK N   1      37.066  13.916   8.226  0.00  0.00    -0.391 OA
HETATM   28  H   UNK N   1      37.373  13.409   7.459  0.00  0.00     0.210 HD
ENDBRANCH   8  27
TORSDOF 5
ENDMDL
MODEL 4
REMARK VINA RESULT:      -5.7      4.037      6.419
REMARK  5 active torsions:
REMARK  status: ('A' for Active; 'I' for Inactive)
REMARK    1  A    between atoms: C_13  and  O_4 
REMARK    2  A    between atoms: C_15  and  O_5 
REMARK    3  A    between atoms: C_16  and  O_6 
REMARK    4  A    between atoms: C_12  and  N_8 
REMARK    5  A    between atoms: C_14  and  N_9 
ROOT
HETATM    1  O   UNK N   1      33.393  14.849   6.095  0.00  0.00    -0.335 OA
HETATM    2  O   UNK N   1      31.826  16.307   7.978  0.00  0.00    -0.345 OA
HETATM    3  O   UNK N   1      33.084  14.702   9.017  0.00  0.00    -0.350 OA
HETATM    4  O   UNK N   1      36.155  14.589   6.661  0.00  0.00    -0.292 OA
HETATM    5  C   UNK N   1      32.119  15.388   5.739  0.00  0.00     0.182 C 
HETATM    6  C   UNK N   1      31.646  16.590   6.609  0.00  0.00     0.186 C 
HETATM    7  C   UNK N   1      32.049  15.725   4.226  0.00  0.00     0.139 C 
HETATM    8  C   UNK N   1      30.159  16.819   6.301  0.00  0.00     0.174 C 
HETATM    9  C   UNK N   1      29.870  17.025   4.786  0.00  0.00     0.138 C 
HETATM   10  C   UNK N   1      31.140  16.937   3.929  0.00  0.00     0.167 C 
HETATM   11  C   UNK N   1      34.076  15.665   7.031  0.00  0.00     0.277 C 
HETATM   12  C   UNK N   1      33.164  15.912   8.282  0.00  0.00     0.331 C 
HETATM   13  C   UNK N   1      35.331  14.969   7.478  0.00  0.00     0.196 C 
HETATM   14  C   UNK N   1      34.305  14.393   9.681  0.00  0.00     0.128 C 
HETATM   15  C   UNK N   1      35.591  14.786   8.938  0.00  0.00     0.116 C 
HETATM   16  C   UNK N   1      34.317  14.944  11.095  0.00  0.00     0.040 C 
ENDROOT
BRANCH   7  17
HETATM   17  N   UNK N   1      33.377  16.007   3.692  0.00  0.00    -0.416 N 
HETATM   18  C   UNK N   1      33.678  14.990   2.697  0.00  0.00     0.140 C 
HETATM   19  H   UNK N   1      33.985  16.778   3.968  0.00  0.00     0.153 HD
ENDBRANCH   7  17
BRANCH  10  20
HETATM   20  O   UNK N   1      30.831  17.005   2.570  0.00  0.00    -0.391 OA
HETATM   21  H   UNK N   1      30.927  16.218   2.010  0.00  0.00     0.210 HD
ENDBRANCH  10  20
BRANCH   9  22
HETATM   22  N   UNK N   1      29.229  18.312   4.533  0.00  0.00    -0.417 N 
HETATM   23  C   UNK N   1      27.880  18.048   4.065  0.00  0.00     0.140 C 
HETATM   24  H   UNK N   1      29.652  19.231   4.661  0.00  0.00     0.153 HD
ENDBRANCH   9  22
BRANCH  11  25
HETATM   25  O   UNK N   1      34.458  16.868   6.423  0.00  0.00    -0.356 OA
HETATM   26  H   UNK N   1      34.721  17.801   6.399  0.00  0.00     0.213 HD
ENDBRANCH  11  25
BRANCH   8  27
HETATM   27  O   UNK N   1      29.634  17.844   7.095  0.00  0.00    -0.391 OA
HETATM   28  H   UNK N   1      28.701  18.104   7.138  0.00  0.00     0.210 HD
ENDBRANCH   8  27
TORSDOF 5
ENDMDL
MODEL 5
REMARK VINA RESULT:      -5.6      2.468      6.337
REMARK  5 active torsions:
REMARK  status: ('A' for Active; 'I' for Inactive)
REMARK    1  A    between atoms: C_13  and  O_4 
REMARK    2  A    between atoms: C_15  and  O_5 
REMARK    3  A    between atoms: C_16  and  O_6 
REMARK    4  A    between atoms: C_12  and  N_8 
REMARK    5  A    between atoms: C_14  and  N_9 
ROOT
HETATM    1  O   UNK N   1      34.887  14.927  11.925  0.00  0.00    -0.335 OA
HETATM    2  O   UNK N   1      34.587  12.672  10.207  0.00  0.00    -0.345 OA
HETATM    3  O   UNK N   1      33.379  14.460   9.443  0.00  0.00    -0.350 OA
HETATM    4  O   UNK N   1      35.586  17.382  10.701  0.00  0.00    -0.292 OA
HETATM    5  C   UNK N   1      34.941  13.594  12.436  0.00  0.00     0.182 C 
HETATM    6  C   UNK N   1      35.329  12.505  11.393  0.00  0.00     0.186 C 
HETATM    7  C   UNK N   1      35.835  13.508  13.701  0.00  0.00     0.139 C 
HETATM    8  C   UNK N   1      35.026  11.139  12.026  0.00  0.00     0.174 C 
HETATM    9  C   UNK N   1      35.725  10.929  13.401  0.00  0.00     0.138 C 
HETATM   10  C   UNK N   1      36.554  12.147  13.829  0.00  0.00     0.167 C 
HETATM   11  C   UNK N   1      35.420  15.019  10.616  0.00  0.00     0.277 C 
HETATM   12  C   UNK N   1      34.697  13.993   9.676  0.00  0.00     0.331 C 
HETATM   13  C   UNK N   1      35.194  16.406  10.081  0.00  0.00     0.196 C 
HETATM   14  C   UNK N   1      33.353  15.603   8.595  0.00  0.00     0.128 C 
HETATM   15  C   UNK N   1      34.524  16.584   8.756  0.00  0.00     0.116 C 
HETATM   16  C   UNK N   1      33.189  15.205   7.141  0.00  0.00     0.040 C 
ENDROOT
BRANCH   7  17
HETATM   17  N   UNK N   1      36.844  14.561  13.700  0.00  0.00    -0.416 N 
HETATM   18  C   UNK N   1      36.876  15.145  15.031  0.00  0.00     0.140 C 
HETATM   19  H   UNK N   1      37.423  14.839  12.907  0.00  0.00     0.153 HD
ENDBRANCH   7  17
BRANCH  10  20
HETATM   20  O   UNK N   1      37.067  11.975  15.115  0.00  0.00    -0.391 OA
HETATM   21  H   UNK N   1      36.513  12.167  15.889  0.00  0.00     0.210 HD
ENDBRANCH  10  20
BRANCH   9  22
HETATM   22  N   UNK N   1      36.597   9.758  13.386  0.00  0.00    -0.417 N 
HETATM   23  C   UNK N   1      36.005   8.758  14.256  0.00  0.00     0.140 C 
HETATM   24  H   UNK N   1      37.464   9.660  12.859  0.00  0.00     0.153 HD
ENDBRANCH   9  22
BRANCH  11  25
HETATM   25  O   UNK N   1      36.804  14.805  10.649  0.00  0.00    -0.356 OA
HETATM   26  H   UNK N   1      37.707  14.805  10.295  0.00  0.00     0.213 HD
ENDBRANCH  11  25
BRANCH   8  27
HETATM   27  O   UNK N   1      35.284  10.100  11.125  0.00  0.00    -0.391 OA
HETATM   28  H   UNK N   1      35.042  10.093  10.187  0.00  0.00     0.210 HD
ENDBRANCH   8  27
TORSDOF 5
ENDMDL
MODEL 6
REMARK VINA RESULT:      -5.4      2.863      4.185
REMARK  5 active torsions:
REMARK  status: ('A' for Active; 'I' for Inactive)
REMARK    1  A    between atoms: C_13  and  O_4 
REMARK    2  A    between atoms: C_15  and  O_5 
REMARK    3  A    between atoms: C_16  and  O_6 
REMARK    4  A    between atoms: C_12  and  N_8 
REMARK    5  A    between atoms: C_14  and  N_9 
ROOT
HETATM    1  O   UNK N   1      34.844  10.582  14.711  0.00  0.00    -0.335 OA
HETATM    2  O   UNK N   1      36.078  12.915  15.789  0.00  0.00    -0.345 OA
HETATM    3  O   UNK N   1      35.025  11.707  17.423  0.00  0.00    -0.350 OA
HETATM    4  O   UNK N   1      35.409   8.126  16.000  0.00  0.00    -0.292 OA
HETATM    5  C   UNK N   1      34.970  11.778  13.939  0.00  0.00     0.182 C 
HETATM    6  C   UNK N   1      36.110  12.736  14.391  0.00  0.00     0.186 C 
HETATM    7  C   UNK N   1      35.063  11.466  12.422  0.00  0.00     0.139 C 
HETATM    8  C   UNK N   1      35.890  14.077  13.675  0.00  0.00     0.174 C 
HETATM    9  C   UNK N   1      35.801  13.940  12.127  0.00  0.00     0.138 C 
HETATM   10  C   UNK N   1      35.936  12.485  11.659  0.00  0.00     0.167 C 
HETATM   11  C   UNK N   1      35.934  10.402  15.598  0.00  0.00     0.277 C 
HETATM   12  C   UNK N   1      36.099  11.676  16.498  0.00  0.00     0.331 C 
HETATM   13  C   UNK N   1      35.666   9.217  16.484  0.00  0.00     0.196 C 
HETATM   14  C   UNK N   1      35.147  10.702  18.424  0.00  0.00     0.128 C 
HETATM   15  C   UNK N   1      35.762   9.371  17.968  0.00  0.00     0.116 C 
HETATM   16  C   UNK N   1      35.872  11.231  19.648  0.00  0.00     0.040 C 
ENDROOT
BRANCH   7  17
HETATM   17  N   UNK N   1      35.612  10.133  12.196  0.00  0.00    -0.416 N 
HETATM   18  C   UNK N   1      34.582   9.334  11.551  0.00  0.00     0.140 C 
HETATM   19  H   UNK N   1      36.549   9.818  12.447  0.00  0.00     0.153 HD
ENDBRANCH   7  17
BRANCH  10  20
HETATM   20  O   UNK N   1      35.731  12.383  10.282  0.00  0.00    -0.391 OA
HETATM   21  H   UNK N   1      35.083  12.956   9.843  0.00  0.00     0.210 HD
ENDBRANCH  10  20
BRANCH   9  22
HETATM   22  N   UNK N   1      36.823  14.739  11.458  0.00  0.00    -0.417 N 
HETATM   23  C   UNK N   1      36.152  15.833  10.779  0.00  0.00     0.140 C 
HETATM   24  H   UNK N   1      37.827  14.561  11.466  0.00  0.00     0.153 HD
ENDBRANCH   9  22
BRANCH  11  25
HETATM   25  O   UNK N   1      37.099  10.126  14.871  0.00  0.00    -0.356 OA
HETATM   26  H   UNK N   1      37.622   9.733  14.156  0.00  0.00     0.213 HD
ENDBRANCH  11  25
BRANCH   8  27
HETATM   27  O   UNK N   1      36.839  15.023  14.079  0.00  0.00    -0.391 OA
HETATM   28  H   UNK N   1      37.801  14.910  14.041  0.00  0.00     0.210 HD
ENDBRANCH   8  27
TORSDOF 5
ENDMDL
MODEL 7
REMARK VINA RESULT:      -5.4     12.452     13.750
REMARK  5 active torsions:
REMARK  status: ('A' for Active; 'I' for Inactive)
REMARK    1  A    between atoms: C_13  and  O_4 
REMARK    2  A    between atoms: C_15  and  O_5 
REMARK    3  A    between atoms: C_16  and  O_6 
REMARK    4  A    between atoms: C_12  and  N_8 
REMARK    5  A    between atoms: C_14  and  N_9 
ROOT
HETATM    1  O   UNK N   1      42.472  18.950   2.473  0.00  0.00    -0.335 OA
HETATM    2  O   UNK N   1      45.091  19.513   3.448  0.00  0.00    -0.345 OA
HETATM    3  O   UNK N   1      44.598  17.287   3.642  0.00  0.00    -0.350 OA
HETATM    4  O   UNK N   1      42.229  16.830   0.612  0.00  0.00    -0.292 OA
HETATM    5  C   UNK N   1      42.784  20.208   3.074  0.00  0.00     0.182 C 
HETATM    6  C   UNK N   1      44.290  20.599   3.038  0.00  0.00     0.186 C 
HETATM    7  C   UNK N   1      41.892  21.344   2.507  0.00  0.00     0.139 C 
HETATM    8  C   UNK N   1      44.475  21.790   3.990  0.00  0.00     0.174 C 
HETATM    9  C   UNK N   1      43.537  22.989   3.665  0.00  0.00     0.138 C 
HETATM   10  C   UNK N   1      42.619  22.706   2.469  0.00  0.00     0.167 C 
HETATM   11  C   UNK N   1      43.571  18.411   1.761  0.00  0.00     0.277 C 
HETATM   12  C   UNK N   1      44.821  18.325   2.703  0.00  0.00     0.331 C 
HETATM   13  C   UNK N   1      43.228  17.026   1.287  0.00  0.00     0.196 C 
HETATM   14  C   UNK N   1      44.672  15.996   3.046  0.00  0.00     0.128 C 
HETATM   15  C   UNK N   1      44.146  15.891   1.606  0.00  0.00     0.116 C 
HETATM   16  C   UNK N   1      46.075  15.425   3.143  0.00  0.00     0.040 C 
ENDROOT
BRANCH   7  17
HETATM   17  N   UNK N   1      41.442  21.028   1.156  0.00  0.00    -0.416 N 
HETATM   18  C   UNK N   1      39.993  20.910   1.189  0.00  0.00     0.140 C 
HETATM   19  H   UNK N   1      42.036  20.910   0.335  0.00  0.00     0.153 HD
ENDBRANCH   7  17
BRANCH  10  20
HETATM   20  O   UNK N   1      41.710  23.749   2.281  0.00  0.00    -0.391 OA
HETATM   21  H   UNK N   1      42.010  24.594   1.911  0.00  0.00     0.210 HD
ENDBRANCH  10  20
BRANCH   9  22
HETATM   22  N   UNK N   1      44.297  24.204   3.389  0.00  0.00    -0.417 N 
HETATM   23  C   UNK N   1      44.786  24.117   2.025  0.00  0.00     0.140 C 
HETATM   24  H   UNK N   1      44.455  24.975   4.037  0.00  0.00     0.153 HD
ENDBRANCH   9  22
BRANCH  11  25
HETATM   25  O   UNK N   1      43.830  19.190   0.625  0.00  0.00    -0.356 OA
HETATM   26  H   UNK N   1      43.995  20.010   0.135  0.00  0.00     0.213 HD
ENDBRANCH  11  25
BRANCH   8  27
HETATM   27  O   UNK N   1      45.821  22.164   4.069  0.00  0.00    -0.391 OA
HETATM   28  H   UNK N   1      46.512  21.688   4.555  0.00  0.00     0.210 HD
ENDBRANCH   8  27
TORSDOF 5
ENDMDL
MODEL 8
REMARK VINA RESULT:      -5.2     12.479     15.139
REMARK  5 active torsions:
REMARK  status: ('A' for Active; 'I' for Inactive)
REMARK    1  A    between atoms: C_13  and  O_4 
REMARK    2  A    between atoms: C_15  and  O_5 
REMARK    3  A    between atoms: C_16  and  O_6 
REMARK    4  A    between atoms: C_12  and  N_8 
REMARK    5  A    between atoms: C_14  and  N_9 
ROOT
HETATM    1  O   UNK N   1      22.525  16.763   4.345  0.00  0.00    -0.335 OA
HETATM    2  O   UNK N   1      24.942  16.254   5.770  0.00  0.00    -0.345 OA
HETATM    3  O   UNK N   1      25.338  17.493   3.887  0.00  0.00    -0.350 OA
HETATM    4  O   UNK N   1      22.008  19.452   3.627  0.00  0.00    -0.292 OA
HETATM    5  C   UNK N   1      22.702  15.563   5.100  0.00  0.00     0.182 C 
HETATM    6  C   UNK N   1      23.757  15.651   6.241  0.00  0.00     0.186 C 
HETATM    7  C   UNK N   1      21.347  15.020   5.626  0.00  0.00     0.139 C 
HETATM    8  C   UNK N   1      24.037  14.218   6.715  0.00  0.00     0.174 C 
HETATM    9  C   UNK N   1      22.754  13.450   7.145  0.00  0.00     0.138 C 
HETATM   10  C   UNK N   1      21.484  14.295   6.982  0.00  0.00     0.167 C 
HETATM   11  C   UNK N   1      23.189  17.867   4.935  0.00  0.00     0.277 C 
HETATM   12  C   UNK N   1      24.702  17.520   5.154  0.00  0.00     0.331 C 
HETATM   13  C   UNK N   1      23.095  19.055   4.018  0.00  0.00     0.196 C 
HETATM   14  C   UNK N   1      25.481  18.795   3.328  0.00  0.00     0.128 C 
HETATM   15  C   UNK N   1      24.340  19.780   3.622  0.00  0.00     0.116 C 
HETATM   16  C   UNK N   1      26.820  19.407   3.695  0.00  0.00     0.040 C 
ENDROOT
BRANCH   7  17
HETATM   17  N   UNK N   1      20.376  16.098   5.779  0.00  0.00    -0.416 N 
HETATM   18  C   UNK N   1      19.255  15.813   4.898  0.00  0.00     0.140 C 
HETATM   19  H   UNK N   1      20.469  16.909   6.393  0.00  0.00     0.153 HD
ENDBRANCH   7  17
BRANCH  10  20
HETATM   20  O   UNK N   1      20.343  13.540   7.259  0.00  0.00    -0.391 OA
HETATM   21  H   UNK N   1      19.649  13.901   7.834  0.00  0.00     0.210 HD
ENDBRANCH  10  20
BRANCH   9  22
HETATM   22  N   UNK N   1      22.837  13.001   8.531  0.00  0.00    -0.417 N 
HETATM   23  C   UNK N   1      23.043  11.564   8.516  0.00  0.00     0.140 C 
HETATM   24  H   UNK N   1      22.763  13.589   9.360  0.00  0.00     0.153 HD
ENDBRANCH   9  22
BRANCH  11  25
HETATM   25  O   UNK N   1      22.558  18.215   6.137  0.00  0.00    -0.356 OA
HETATM   26  H   UNK N   1      22.465  18.677   6.984  0.00  0.00     0.213 HD
ENDBRANCH  11  25
BRANCH   8  27
HETATM   27  O   UNK N   1      25.032  14.201   7.700  0.00  0.00    -0.391 OA
HETATM   28  H   UNK N   1      24.919  13.886   8.610  0.00  0.00     0.210 HD
ENDBRANCH   8  27
TORSDOF 5
ENDMDL
MODEL 9
REMARK VINA RESULT:      -5.0     16.643     19.678
REMARK  5 active torsions:
REMARK  status: ('A' for Active; 'I' for Inactive)
REMARK    1  A    between atoms: C_13  and  O_4 
REMARK    2  A    between atoms: C_15  and  O_5 
REMARK    3  A    between atoms: C_16  and  O_6 
REMARK    4  A    between atoms: C_12  and  N_8 
REMARK    5  A    between atoms: C_14  and  N_9 
ROOT
HETATM    1  O   UNK N   1      30.882  22.630  -4.892  0.00  0.00    -0.335 OA
HETATM    2  O   UNK N   1      30.997  20.203  -6.383  0.00  0.00    -0.345 OA
HETATM    3  O   UNK N   1      33.007  20.656  -5.386  0.00  0.00    -0.350 OA
HETATM    4  O   UNK N   1      31.806  22.532  -2.218  0.00  0.00    -0.292 OA
HETATM    5  C   UNK N   1      30.096  22.447  -6.071  0.00  0.00     0.182 C 
HETATM    6  C   UNK N   1      29.812  20.964  -6.449  0.00  0.00     0.186 C 
HETATM    7  C   UNK N   1      28.786  23.276  -6.013  0.00  0.00     0.139 C 
HETATM    8  C   UNK N   1      29.250  20.957  -7.878  0.00  0.00     0.174 C 
HETATM    9  C   UNK N   1      28.002  21.869  -8.052  0.00  0.00     0.138 C 
HETATM   10  C   UNK N   1      27.617  22.591  -6.755  0.00  0.00     0.167 C 
HETATM   11  C   UNK N   1      31.057  21.422  -4.174  0.00  0.00     0.277 C 
HETATM   12  C   UNK N   1      31.654  20.324  -5.121  0.00  0.00     0.331 C 
HETATM   13  C   UNK N   1      32.014  21.651  -3.037  0.00  0.00     0.196 C 
HETATM   14  C   UNK N   1      33.843  20.457  -4.250  0.00  0.00     0.128 C 
HETATM   15  C   UNK N   1      33.204  20.759  -2.886  0.00  0.00     0.116 C 
HETATM   16  C   UNK N   1      34.456  19.070  -4.256  0.00  0.00     0.040 C 
ENDROOT
BRANCH   7  17
HETATM   17  N   UNK N   1      28.378  23.510  -4.633  0.00  0.00    -0.416 N 
HETATM   18  C   UNK N   1      28.389  24.947  -4.406  0.00  0.00     0.140 C 
HETATM   19  H   UNK N   1      28.130  22.795  -3.948  0.00  0.00     0.153 HD
ENDBRANCH   7  17
BRANCH  10  20
HETATM   20  O   UNK N   1      26.573  23.490  -6.974  0.00  0.00    -0.391 OA
HETATM   21  H   UNK N   1      25.901  23.631  -6.288  0.00  0.00     0.210 HD
ENDBRANCH  10  20
BRANCH   9  22
HETATM   22  N   UNK N   1      26.845  21.112  -8.522  0.00  0.00    -0.417 N 
HETATM   23  C   UNK N   1      26.551  21.551  -9.874  0.00  0.00     0.140 C 
HETATM   24  H   UNK N   1      26.336  20.403  -7.995  0.00  0.00     0.153 HD
ENDBRANCH   9  22
BRANCH  11  25
HETATM   25  O   UNK N   1      29.836  21.018  -3.618  0.00  0.00    -0.356 OA
HETATM   26  H   UNK N   1      29.064  21.089  -3.036  0.00  0.00     0.213 HD
ENDBRANCH  11  25
BRANCH   8  27
HETATM   27  O   UNK N   1      29.029  19.649  -8.324  0.00  0.00    -0.391 OA
HETATM   28  H   UNK N   1      28.359  19.040  -7.977  0.00  0.00     0.210 HD
ENDBRANCH   8  27
TORSDOF 5
ENDMDL
