REMARK  5 active torsions:
REMARK  status: ('A' for Active; 'I' for Inactive)
REMARK    1  A    between atoms: C_13  and  O_4 
REMARK    2  A    between atoms: C_15  and  O_5 
REMARK    3  A    between atoms: C_16  and  O_6 
REMARK    4  A    between atoms: C_12  and  N_8 
REMARK    5  A    between atoms: C_14  and  N_9 
ROOT
HETATM    1  O   UNK N   1       5.657   1.121  -0.621  0.00  0.00    -0.335 OA
HETATM    2  O   UNK N   1       5.564  -1.707  -0.273  0.00  0.00    -0.345 OA
HETATM    3  O   UNK N   1       7.593  -1.042  -1.097  0.00  0.00    -0.350 OA
HETATM    4  O   UNK N   1       7.876   2.474   0.501  0.00  0.00    -0.292 OA
HETATM    5  C   UNK N   1       4.435   0.396  -0.771  0.00  0.00     0.182 C 
HETATM    6  C   UNK N   1       4.386  -0.972  -0.029  0.00  0.00     0.186 C 
HETATM    7  C   UNK N   1       3.207   1.275  -0.415  0.00  0.00     0.139 C 
HETATM    8  C   UNK N   1       3.161  -1.733  -0.556  0.00  0.00     0.174 C 
HETATM    9  C   UNK N   1       1.834  -0.931  -0.422  0.00  0.00     0.138 C 
HETATM   10  C   UNK N   1       2.048   0.457   0.195  0.00  0.00     0.167 C 
HETATM   11  C   UNK N   1       6.500   0.549   0.363  0.00  0.00     0.277 C 
HETATM   12  C   UNK N   1       6.744  -0.965   0.036  0.00  0.00     0.331 C 
HETATM   13  C   UNK N   1       7.824   1.262   0.362  0.00  0.00     0.196 C 
HETATM   14  C   UNK N   1       8.930  -0.655  -0.796  0.00  0.00     0.128 C 
HETATM   15  C   UNK N   1       9.086   0.471   0.237  0.00  0.00     0.116 C 
HETATM   16  C   UNK N   1       9.775  -1.854  -0.408  0.00  0.00     0.040 C 
ENDROOT
BRANCH   7  17
HETATM   17  N   UNK N   1       3.573   2.325   0.529  0.00  0.00    -0.416 N 
HETATM   18  C   UNK N   1       2.817   3.517   0.180  0.00  0.00     0.140 C 
HETATM   19  H   UNK N   1       4.241   2.239   1.296  0.00  0.00     0.153 HD
ENDBRANCH   7  17
BRANCH  10  20
HETATM   20  O   UNK N   1       0.863   1.194   0.189  0.00  0.00    -0.391 OA
HETATM   21  H   UNK N   1       0.894   2.164   0.185  0.00  0.00     0.210 HD
ENDBRANCH  10  20
BRANCH   9  22
HETATM   22  N   UNK N   1       0.852  -1.650   0.384  0.00  0.00    -0.417 N 
HETATM   23  C   UNK N   1       0.008  -2.407  -0.523  0.00  0.00     0.140 C 
HETATM   24  H   UNK N   1       0.773  -1.625   1.400  0.00  0.00     0.153 HD
ENDBRANCH   9  22
BRANCH  11  25
HETATM   25  O   UNK N   1       5.934   0.720   1.633  0.00  0.00    -0.356 OA
HETATM   26  H   UNK N   1       5.840   1.118   2.512  0.00  0.00     0.213 HD
ENDBRANCH  11  25
BRANCH   8  27
HETATM   27  O   UNK N   1       3.080  -3.009   0.013  0.00  0.00    -0.391 OA
HETATM   28  H   UNK N   1       2.286  -3.402   0.407  0.00  0.00     0.210 HD
ENDBRANCH   8  27
TORSDOF 5
