MODEL 1
REMARK VINA RESULT:      -7.5      0.000      0.000
REMARK  0 active torsions:
REMARK  status: ('A' for Active; 'I' for Inactive)
ROOT
HETATM    1  S   UNK N   1      35.426   9.159  17.444  0.00  0.00    -0.098 SA
HETATM    2  O   UNK N   1      35.499  11.368  19.472  0.00  0.00    -0.291 OA
HETATM    3  N   UNK N   1      36.270  12.372  10.980  0.00  0.00     0.084 N 
HETATM    4  C   UNK N   1      35.537  12.468  13.740  0.00  0.00    -0.065 C 
HETATM    5  C   UNK N   1      35.714  13.736  12.947  0.00  0.00     0.065 C 
HETATM    6  C   UNK N   1      35.144  11.302  12.875  0.00  0.00     0.065 C 
HETATM    7  C   UNK N   1      36.728  13.472  11.833  0.00  0.00     0.276 C 
HETATM    8  C   UNK N   1      36.189  11.143  11.771  0.00  0.00     0.276 C 
HETATM    9  C   UNK N   1      35.696  12.392  15.121  0.00  0.00    -0.011 C 
HETATM   10  C   UNK N   1      36.141  13.642  15.896  0.00  0.00    -0.018 A 
HETATM   11  C   UNK N   1      35.528  11.038  15.830  0.00  0.00    -0.004 A 
HETATM   12  C   UNK N   1      35.814  13.926  17.253  0.00  0.00    -0.040 A 
HETATM   13  C   UNK N   1      37.282  12.162   9.962  0.00  0.00     0.309 C 
HETATM   14  C   UNK N   1      35.465  10.800  17.218  0.00  0.00     0.062 A 
HETATM   15  C   UNK N   1      34.884  13.112  18.057  0.00  0.00     0.123 C 
HETATM   16  C   UNK N   1      35.364  11.746  18.319  0.00  0.00     0.171 C 
HETATM   17  C   UNK N   1      36.955  14.588  15.233  0.00  0.00     0.013 A 
HETATM   18  C   UNK N   1      35.524   9.800  15.103  0.00  0.00     0.021 A 
HETATM   19  C   UNK N   1      36.286  15.094  17.868  0.00  0.00     0.008 A 
HETATM   20  C   UNK N   1      35.461   8.642  15.881  0.00  0.00     0.051 A 
HETATM   21  C   UNK N   1      37.418  15.745  15.855  0.00  0.00     0.001 A 
HETATM   22  C   UNK N   1      37.088  15.996  17.179  0.00  0.00     0.001 A 
ENDROOT
TORSDOF 0
ENDMDL
MODEL 2
REMARK VINA RESULT:      -7.3     10.521     12.547
REMARK  0 active torsions:
REMARK  status: ('A' for Active; 'I' for Inactive)
ROOT
HETATM    1  S   UNK N   1      27.753  16.003   3.027  0.00  0.00    -0.098 SA
HETATM    2  O   UNK N   1      26.135  17.508   5.055  0.00  0.00    -0.291 OA
HETATM    3  N   UNK N   1      34.567  15.974   5.552  0.00  0.00     0.084 N 
HETATM    4  C   UNK N   1      31.942  17.099   5.461  0.00  0.00    -0.065 C 
HETATM    5  C   UNK N   1      32.921  17.517   6.526  0.00  0.00     0.065 C 
HETATM    6  C   UNK N   1      32.627  16.629   4.206  0.00  0.00     0.065 C 
HETATM    7  C   UNK N   1      33.877  16.352   6.789  0.00  0.00     0.276 C 
HETATM    8  C   UNK N   1      33.588  15.499   4.573  0.00  0.00     0.276 C 
HETATM    9  C   UNK N   1      30.560  17.164   5.613  0.00  0.00    -0.011 C 
HETATM   10  C   UNK N   1      29.973  17.622   6.958  0.00  0.00    -0.018 A 
HETATM   11  C   UNK N   1      29.648  16.678   4.475  0.00  0.00    -0.004 A 
HETATM   12  C   UNK N   1      28.720  18.278   7.125  0.00  0.00    -0.040 A 
HETATM   13  C   UNK N   1      35.439  14.857   5.865  0.00  0.00     0.309 C 
HETATM   14  C   UNK N   1      28.251  16.836   4.370  0.00  0.00     0.062 A 
HETATM   15  C   UNK N   1      27.876  18.727   6.002  0.00  0.00     0.123 C 
HETATM   16  C   UNK N   1      27.342  17.628   5.183  0.00  0.00     0.171 C 
HETATM   17  C   UNK N   1      30.712  17.365   8.134  0.00  0.00     0.013 A 
HETATM   18  C   UNK N   1      30.150  15.875   3.396  0.00  0.00     0.021 A 
HETATM   19  C   UNK N   1      28.274  18.642   8.404  0.00  0.00     0.008 A 
HETATM   20  C   UNK N   1      29.194  15.421   2.484  0.00  0.00     0.051 A 
HETATM   21  C   UNK N   1      30.258  17.731   9.399  0.00  0.00     0.001 A 
HETATM   22  C   UNK N   1      29.032  18.366   9.535  0.00  0.00     0.001 A 
ENDROOT
TORSDOF 0
ENDMDL
MODEL 3
REMARK VINA RESULT:      -7.1      9.423     11.758
REMARK  0 active torsions:
REMARK  status: ('A' for Active; 'I' for Inactive)
ROOT
HETATM    1  S   UNK N   1      30.256  15.300   3.106  0.00  0.00    -0.098 SA
HETATM    2  O   UNK N   1      27.804  16.804   3.956  0.00  0.00    -0.291 OA
HETATM    3  N   UNK N   1      35.052  16.116   8.504  0.00  0.00     0.084 N 
HETATM    4  C   UNK N   1      32.737  16.977   7.069  0.00  0.00    -0.065 C 
HETATM    5  C   UNK N   1      33.074  17.570   8.413  0.00  0.00     0.065 C 
HETATM    6  C   UNK N   1      33.955  16.475   6.343  0.00  0.00     0.065 C 
HETATM    7  C   UNK N   1      33.843  16.525   9.223  0.00  0.00     0.276 C 
HETATM    8  C   UNK N   1      34.677  15.474   7.243  0.00  0.00     0.276 C 
HETATM    9  C   UNK N   1      31.446  16.924   6.550  0.00  0.00    -0.011 C 
HETATM   10  C   UNK N   1      30.272  17.431   7.403  0.00  0.00    -0.018 A 
HETATM   11  C   UNK N   1      31.206  16.264   5.183  0.00  0.00    -0.004 A 
HETATM   12  C   UNK N   1      29.061  17.978   6.889  0.00  0.00    -0.040 A 
HETATM   13  C   UNK N   1      35.721  15.114   9.314  0.00  0.00     0.309 C 
HETATM   14  C   UNK N   1      30.020  16.281   4.420  0.00  0.00     0.062 A 
HETATM   15  C   UNK N   1      28.831  18.254   5.459  0.00  0.00     0.123 C 
HETATM   16  C   UNK N   1      28.800  17.047   4.618  0.00  0.00     0.171 C 
HETATM   17  C   UNK N   1      30.376  17.340   8.809  0.00  0.00     0.013 A 
HETATM   18  C   UNK N   1      32.194  15.428   4.563  0.00  0.00     0.021 A 
HETATM   19  C   UNK N   1      28.046  18.399   7.760  0.00  0.00     0.008 A 
HETATM   20  C   UNK N   1      31.807  14.815   3.370  0.00  0.00     0.051 A 
HETATM   21  C   UNK N   1      29.360  17.762   9.664  0.00  0.00     0.001 A 
HETATM   22  C   UNK N   1      28.189  18.287   9.138  0.00  0.00     0.001 A 
ENDROOT
TORSDOF 0
ENDMDL
MODEL 4
REMARK VINA RESULT:      -7.1      2.045      2.900
REMARK  0 active torsions:
REMARK  status: ('A' for Active; 'I' for Inactive)
ROOT
HETATM    1  S   UNK N   1      38.063   7.320  17.460  0.00  0.00    -0.098 SA
HETATM    2  O   UNK N   1      37.480   8.749  20.032  0.00  0.00    -0.291 OA
HETATM    3  N   UNK N   1      34.667  11.110  12.272  0.00  0.00     0.084 N 
HETATM    4  C   UNK N   1      34.977  10.342  15.007  0.00  0.00    -0.065 C 
HETATM    5  C   UNK N   1      34.098  11.506  14.630  0.00  0.00     0.065 C 
HETATM    6  C   UNK N   1      35.090   9.328  13.900  0.00  0.00     0.065 C 
HETATM    7  C   UNK N   1      34.636  12.118  13.335  0.00  0.00     0.276 C 
HETATM    8  C   UNK N   1      35.592  10.037  12.644  0.00  0.00     0.276 C 
HETATM    9  C   UNK N   1      35.593  10.208  16.248  0.00  0.00    -0.011 C 
HETATM   10  C   UNK N   1      35.438  11.330  17.288  0.00  0.00    -0.018 A 
HETATM   11  C   UNK N   1      36.499   8.997  16.518  0.00  0.00    -0.004 A 
HETATM   12  C   UNK N   1      35.475  11.151  18.700  0.00  0.00    -0.040 A 
HETATM   13  C   UNK N   1      35.203  11.747  11.084  0.00  0.00     0.309 C 
HETATM   14  C   UNK N   1      37.050   8.598  17.753  0.00  0.00     0.062 A 
HETATM   15  C   UNK N   1      35.534   9.831  19.355  0.00  0.00     0.123 C 
HETATM   16  C   UNK N   1      36.779   9.093  19.094  0.00  0.00     0.171 C 
HETATM   17  C   UNK N   1      35.263  12.654  16.825  0.00  0.00     0.013 A 
HETATM   18  C   UNK N   1      36.988   8.167  15.454  0.00  0.00     0.021 A 
HETATM   19  C   UNK N   1      35.336  12.250  19.560  0.00  0.00     0.008 A 
HETATM   20  C   UNK N   1      37.880   7.161  15.832  0.00  0.00     0.051 A 
HETATM   21  C   UNK N   1      35.126  13.738  17.689  0.00  0.00     0.001 A 
HETATM   22  C   UNK N   1      35.169  13.536  19.061  0.00  0.00     0.001 A 
ENDROOT
TORSDOF 0
ENDMDL
MODEL 5
REMARK VINA RESULT:      -7.1     25.950     28.233
REMARK  0 active torsions:
REMARK  status: ('A' for Active; 'I' for Inactive)
ROOT
HETATM    1  S   UNK N   1      29.390  28.438  -9.384  0.00  0.00    -0.098 SA
HETATM    2  O   UNK N   1      27.949  25.873  -9.966  0.00  0.00    -0.291 OA
HETATM    3  N   UNK N   1      27.524  30.266  -2.602  0.00  0.00     0.084 N 
HETATM    4  C   UNK N   1      27.023  28.857  -5.037  0.00  0.00    -0.065 C 
HETATM    5  C   UNK N   1      26.230  28.550  -3.793  0.00  0.00     0.065 C 
HETATM    6  C   UNK N   1      27.539  30.270  -5.053  0.00  0.00     0.065 C 
HETATM    7  C   UNK N   1      27.101  28.863  -2.575  0.00  0.00     0.276 C 
HETATM    8  C   UNK N   1      28.357  30.502  -3.783  0.00  0.00     0.276 C 
HETATM    9  C   UNK N   1      27.232  27.942  -6.065  0.00  0.00    -0.011 C 
HETATM   10  C   UNK N   1      26.692  26.511  -5.919  0.00  0.00    -0.018 A 
HETATM   11  C   UNK N   1      28.089  28.346  -7.276  0.00  0.00    -0.004 A 
HETATM   12  C   UNK N   1      26.302  25.666  -6.998  0.00  0.00    -0.040 A 
HETATM   13  C   UNK N   1      28.358  30.491  -1.436  0.00  0.00     0.309 C 
HETATM   14  C   UNK N   1      28.255  27.636  -8.482  0.00  0.00     0.062 A 
HETATM   15  C   UNK N   1      26.241  26.112  -8.403  0.00  0.00     0.123 C 
HETATM   16  C   UNK N   1      27.552  26.461  -8.973  0.00  0.00     0.171 C 
HETATM   17  C   UNK N   1      26.582  25.965  -4.620  0.00  0.00     0.013 A 
HETATM   18  C   UNK N   1      28.935  29.505  -7.250  0.00  0.00     0.021 A 
HETATM   19  C   UNK N   1      25.833  24.369  -6.751  0.00  0.00     0.008 A 
HETATM   20  C   UNK N   1      29.731  29.699  -8.382  0.00  0.00     0.051 A 
HETATM   21  C   UNK N   1      26.114  24.673  -4.388  0.00  0.00     0.001 A 
HETATM   22  C   UNK N   1      25.745  23.871  -5.457  0.00  0.00     0.001 A 
ENDROOT
TORSDOF 0
ENDMDL
MODEL 6
REMARK VINA RESULT:      -6.9      3.075      5.201
REMARK  0 active torsions:
REMARK  status: ('A' for Active; 'I' for Inactive)
ROOT
HETATM    1  S   UNK N   1      34.891  11.305  12.057  0.00  0.00    -0.098 SA
HETATM    2  O   UNK N   1      35.106  14.077  13.183  0.00  0.00    -0.291 OA
HETATM    3  N   UNK N   1      36.091   6.801  17.632  0.00  0.00     0.084 N 
HETATM    4  C   UNK N   1      36.346   9.362  16.391  0.00  0.00    -0.065 C 
HETATM    5  C   UNK N   1      36.672   9.179  17.850  0.00  0.00     0.065 C 
HETATM    6  C   UNK N   1      36.533   8.096  15.599  0.00  0.00     0.065 C 
HETATM    7  C   UNK N   1      35.827   8.025  18.393  0.00  0.00     0.276 C 
HETATM    8  C   UNK N   1      35.688   6.996  16.239  0.00  0.00     0.276 C 
HETATM    9  C   UNK N   1      35.942  10.573  15.835  0.00  0.00    -0.011 C 
HETATM   10  C   UNK N   1      35.745  11.791  16.751  0.00  0.00    -0.018 A 
HETATM   11  C   UNK N   1      35.599  10.642  14.339  0.00  0.00    -0.004 A 
HETATM   12  C   UNK N   1      35.906  13.150  16.355  0.00  0.00    -0.040 A 
HETATM   13  C   UNK N   1      35.248   5.756  18.183  0.00  0.00     0.309 C 
HETATM   14  C   UNK N   1      35.357  11.798  13.568  0.00  0.00     0.062 A 
HETATM   15  C   UNK N   1      36.418  13.561  15.035  0.00  0.00     0.123 C 
HETATM   16  C   UNK N   1      35.534  13.200  13.916  0.00  0.00     0.171 C 
HETATM   17  C   UNK N   1      35.356  11.567  18.091  0.00  0.00     0.013 A 
HETATM   18  C   UNK N   1      35.375   9.459  13.559  0.00  0.00     0.021 A 
HETATM   19  C   UNK N   1      35.688  14.188  17.272  0.00  0.00     0.008 A 
HETATM   20  C   UNK N   1      34.975   9.671  12.237  0.00  0.00     0.051 A 
HETATM   21  C   UNK N   1      35.142  12.607  18.993  0.00  0.00     0.001 A 
HETATM   22  C   UNK N   1      35.302  13.921  18.581  0.00  0.00     0.001 A 
ENDROOT
TORSDOF 0
ENDMDL
MODEL 7
REMARK VINA RESULT:      -6.7     10.361     12.612
REMARK  0 active torsions:
REMARK  status: ('A' for Active; 'I' for Inactive)
ROOT
HETATM    1  S   UNK N   1      30.212  18.036   9.055  0.00  0.00    -0.098 SA
HETATM    2  O   UNK N   1      33.165  17.551   8.852  0.00  0.00    -0.291 OA
HETATM    3  N   UNK N   1      27.421  15.984   2.666  0.00  0.00     0.084 N 
HETATM    4  C   UNK N   1      29.622  16.855   4.266  0.00  0.00    -0.065 C 
HETATM    5  C   UNK N   1      29.847  16.314   2.878  0.00  0.00     0.065 C 
HETATM    6  C   UNK N   1      28.258  17.467   4.429  0.00  0.00     0.065 C 
HETATM    7  C   UNK N   1      28.725  15.325   2.557  0.00  0.00     0.276 C 
HETATM    8  C   UNK N   1      27.210  16.423   4.047  0.00  0.00     0.276 C 
HETATM    9  C   UNK N   1      30.581  16.813   5.276  0.00  0.00    -0.011 C 
HETATM   10  C   UNK N   1      31.927  16.123   5.005  0.00  0.00    -0.018 A 
HETATM   11  C   UNK N   1      30.236  17.361   6.670  0.00  0.00    -0.004 A 
HETATM   12  C   UNK N   1      33.162  16.460   5.631  0.00  0.00    -0.040 A 
HETATM   13  C   UNK N   1      26.406  14.991   2.370  0.00  0.00     0.309 C 
HETATM   14  C   UNK N   1      31.119  17.574   7.748  0.00  0.00     0.062 A 
HETATM   15  C   UNK N   1      33.333  17.615   6.531  0.00  0.00     0.123 C 
HETATM   16  C   UNK N   1      32.572  17.510   7.786  0.00  0.00     0.171 C 
HETATM   17  C   UNK N   1      31.960  15.057   4.079  0.00  0.00     0.013 A 
HETATM   18  C   UNK N   1      28.882  17.624   7.065  0.00  0.00     0.021 A 
HETATM   19  C   UNK N   1      34.332  15.754   5.319  0.00  0.00     0.008 A 
HETATM   20  C   UNK N   1      28.705  18.026   8.391  0.00  0.00     0.051 A 
HETATM   21  C   UNK N   1      33.130  14.363   3.777  0.00  0.00     0.001 A 
HETATM   22  C   UNK N   1      34.318  14.709   4.403  0.00  0.00     0.001 A 
ENDROOT
TORSDOF 0
ENDMDL
MODEL 8
REMARK VINA RESULT:      -6.6      2.010      3.010
REMARK  0 active torsions:
REMARK  status: ('A' for Active; 'I' for Inactive)
ROOT
HETATM    1  S   UNK N   1      38.696   7.956  14.567  0.00  0.00    -0.098 SA
HETATM    2  O   UNK N   1      37.555   8.040  17.340  0.00  0.00    -0.291 OA
HETATM    3  N   UNK N   1      36.088  13.828  11.171  0.00  0.00     0.084 N 
HETATM    4  C   UNK N   1      35.933  11.866  13.242  0.00  0.00    -0.065 C 
HETATM    5  C   UNK N   1      35.067  13.098  13.284  0.00  0.00     0.065 C 
HETATM    6  C   UNK N   1      36.314  11.481  11.839  0.00  0.00     0.065 C 
HETATM    7  C   UNK N   1      35.796  14.226  12.551  0.00  0.00     0.276 C 
HETATM    8  C   UNK N   1      36.994  12.678  11.176  0.00  0.00     0.276 C 
HETATM    9  C   UNK N   1      36.314  11.151  14.375  0.00  0.00    -0.011 C 
HETATM   10  C   UNK N   1      35.899  11.664  15.763  0.00  0.00    -0.018 A 
HETATM   11  C   UNK N   1      37.231   9.926  14.224  0.00  0.00    -0.004 A 
HETATM   12  C   UNK N   1      35.684  10.847  16.909  0.00  0.00    -0.040 A 
HETATM   13  C   UNK N   1      36.793  14.928  10.542  0.00  0.00     0.309 C 
HETATM   14  C   UNK N   1      37.567   8.981  15.215  0.00  0.00     0.062 A 
HETATM   15  C   UNK N   1      35.704   9.372  16.877  0.00  0.00     0.123 C 
HETATM   16  C   UNK N   1      37.021   8.803  16.552  0.00  0.00     0.171 C 
HETATM   17  C   UNK N   1      35.728  13.056  15.939  0.00  0.00     0.013 A 
HETATM   18  C   UNK N   1      37.960   9.672  13.014  0.00  0.00     0.021 A 
HETATM   19  C   UNK N   1      35.318  11.423  18.134  0.00  0.00     0.008 A 
HETATM   20  C   UNK N   1      38.829   8.579  13.049  0.00  0.00     0.051 A 
HETATM   21  C   UNK N   1      35.365  13.616  17.162  0.00  0.00     0.001 A 
HETATM   22  C   UNK N   1      35.166  12.798  18.264  0.00  0.00     0.001 A 
ENDROOT
TORSDOF 0
ENDMDL
MODEL 9
REMARK VINA RESULT:      -6.4     16.382     18.015
REMARK  0 active torsions:
REMARK  status: ('A' for Active; 'I' for Inactive)
ROOT
HETATM    1  S   UNK N   1      20.676  14.947   6.799  0.00  0.00    -0.098 SA
HETATM    2  O   UNK N   1      18.719  16.263   4.945  0.00  0.00    -0.291 OA
HETATM    3  N   UNK N   1      27.182  17.699   5.093  0.00  0.00     0.084 N 
HETATM    4  C   UNK N   1      24.472  17.094   4.421  0.00  0.00    -0.065 C 
HETATM    5  C   UNK N   1      25.294  18.009   3.551  0.00  0.00     0.065 C 
HETATM    6  C   UNK N   1      25.320  16.109   5.177  0.00  0.00     0.065 C 
HETATM    7  C   UNK N   1      26.341  18.698   4.429  0.00  0.00     0.276 C 
HETATM    8  C   UNK N   1      26.358  16.884   5.987  0.00  0.00     0.276 C 
HETATM    9  C   UNK N   1      23.082  17.141   4.494  0.00  0.00    -0.011 C 
HETATM   10  C   UNK N   1      22.324  18.221   3.705  0.00  0.00    -0.018 A 
HETATM   11  C   UNK N   1      22.341  16.185   5.442  0.00  0.00    -0.004 A 
HETATM   12  C   UNK N   1      20.997  18.091   3.204  0.00  0.00    -0.040 A 
HETATM   13  C   UNK N   1      28.135  18.415   5.921  0.00  0.00     0.309 C 
HETATM   14  C   UNK N   1      20.952  15.957   5.515  0.00  0.00     0.062 A 
HETATM   15  C   UNK N   1      20.221  16.839   3.262  0.00  0.00     0.123 C 
HETATM   16  C   UNK N   1      19.889  16.408   4.629  0.00  0.00     0.171 C 
HETATM   17  C   UNK N   1      22.971  19.454   3.465  0.00  0.00     0.013 A 
HETATM   18  C   UNK N   1      23.026  15.466   6.478  0.00  0.00     0.021 A 
HETATM   19  C   UNK N   1      20.395  19.147   2.506  0.00  0.00     0.008 A 
HETATM   20  C   UNK N   1      22.216  14.708   7.328  0.00  0.00     0.051 A 
HETATM   21  C   UNK N   1      22.361  20.496   2.770  0.00  0.00     0.001 A 
HETATM   22  C   UNK N   1      21.068  20.345   2.295  0.00  0.00     0.001 A 
ENDROOT
TORSDOF 0
ENDMDL
