MODEL 1
REMARK VINA RESULT:      -7.5      0.000      0.000
REMARK  3 active torsions:
REMARK  status: ('A' for Active; 'I' for Inactive)
REMARK    1  A    between atoms: N_5  and  N_6 
REMARK    2  A    between atoms: N_5  and  C_20 
REMARK    3  A    between atoms: C_12  and  C_14 
ROOT
HETATM    1  N   UNK N   1      32.770  16.549   9.128  0.00  0.00    -0.282 N 
ATOM      2  HN  UNK N   1      32.352  15.658   9.395  1.00  0.00     0.188 HD
HETATM    3  N   UNK N   1      35.438  14.513   9.180  0.00  0.00    -0.189 NA
HETATM    4  N   UNK N   1      34.895  19.035   8.282  0.00  0.00    -0.189 NA
HETATM    5  C   UNK N   1      34.022  16.654   8.915  0.00  0.00     0.209 C 
HETATM    6  C   UNK N   1      34.832  15.489   9.055  0.00  0.00     0.130 C 
HETATM    7  C   UNK N   1      34.570  17.958   8.559  0.00  0.00     0.130 C 
ENDROOT
BRANCH   1   8
HETATM    8  N   UNK N   1      32.011  17.665   8.985  0.00  0.00    -0.299 N 
HETATM    9  H   UNK N   1      32.290  18.484   9.455  0.00  0.00     0.187 HD
BRANCH   8  10
HETATM   10  C   UNK N   1      30.871  17.710   8.216  0.00  0.00     0.048 A 
HETATM   11  C   UNK N   1      29.788  18.320   8.796  0.00  0.00     0.032 A 
HETATM   12  C   UNK N   1      28.631  18.446   8.096  0.00  0.00     0.016 A 
HETATM   13  C   UNK N   1      28.533  17.974   6.789  0.00  0.00    -0.012 A 
HETATM   14  C   UNK N   1      29.624  17.314   6.196  0.00  0.00     0.016 A 
HETATM   15  C   UNK N   1      30.806  17.169   6.923  0.00  0.00     0.032 A 
BRANCH  13  16
HETATM   16  C   UNK N   1      27.294  18.309   6.090  0.00  0.00     0.040 C 
HETATM   17  N   UNK N   1      26.469  17.336   5.893  0.00  0.00    -0.301 N 
HETATM   18  N   UNK N   1      25.235  17.483   5.318  0.00  0.00    -0.270 N 
ATOM     19  HN  UNK N   1      26.753  16.400   6.184  1.00  0.00     0.186 HD
HETATM   20  C   UNK N   1      24.780  18.668   4.863  0.00  0.00     0.236 C 
HETATM   21  H   UNK N   1      24.656  16.692   5.233  0.00  0.00     0.190 HD
HETATM   22  O   UNK N   1      23.677  18.720   4.354  0.00  0.00    -0.272 OA
HETATM   23  C   UNK N   1      25.608  19.920   4.954  0.00  0.00     0.115 C 
HETATM   24  C   UNK N   1      26.911  19.712   5.702  0.00  0.00     0.042 C 
HETATM   25  C   UNK N   1      27.850  20.902   5.833  0.00  0.00     0.017 C 
ENDBRANCH  13  16
ENDBRANCH   8  10
ENDBRANCH   1   8
TORSDOF 3
ENDMDL
MODEL 2
REMARK VINA RESULT:      -7.3      3.438      7.982
REMARK  3 active torsions:
REMARK  status: ('A' for Active; 'I' for Inactive)
REMARK    1  A    between atoms: N_5  and  N_6 
REMARK    2  A    between atoms: N_5  and  C_20 
REMARK    3  A    between atoms: C_12  and  C_14 
ROOT
HETATM    1  N   UNK N   1      26.958  18.847   5.493  0.00  0.00    -0.282 N 
ATOM      2  HN  UNK N   1      27.089  18.172   4.740  1.00  0.00     0.188 HD
HETATM    3  N   UNK N   1      25.967  20.594   2.803  0.00  0.00    -0.189 NA
HETATM    4  N   UNK N   1      26.296  21.611   7.321  0.00  0.00    -0.189 NA
HETATM    5  C   UNK N   1      26.518  20.021   5.258  0.00  0.00     0.209 C 
HETATM    6  C   UNK N   1      26.205  20.369   3.911  0.00  0.00     0.130 C 
HETATM    7  C   UNK N   1      26.373  20.954   6.369  0.00  0.00     0.130 C 
ENDROOT
BRANCH   1   8
HETATM    8  N   UNK N   1      27.245  18.529   6.780  0.00  0.00    -0.299 N 
HETATM    9  H   UNK N   1      26.537  18.631   7.456  0.00  0.00     0.187 HD
BRANCH   8  10
HETATM   10  C   UNK N   1      28.476  18.070   7.189  0.00  0.00     0.048 A 
HETATM   11  C   UNK N   1      28.834  18.397   8.473  0.00  0.00     0.032 A 
HETATM   12  C   UNK N   1      30.015  17.953   8.976  0.00  0.00     0.016 A 
HETATM   13  C   UNK N   1      30.864  17.159   8.209  0.00  0.00    -0.012 A 
HETATM   14  C   UNK N   1      30.526  16.848   6.879  0.00  0.00     0.016 A 
HETATM   15  C   UNK N   1      29.320  17.320   6.358  0.00  0.00     0.032 A 
BRANCH  13  16
HETATM   16  C   UNK N   1      32.024  16.616   8.912  0.00  0.00     0.040 C 
HETATM   17  N   UNK N   1      31.791  15.648   9.734  0.00  0.00    -0.301 N 
HETATM   18  N   UNK N   1      32.767  14.978  10.423  0.00  0.00    -0.270 N 
ATOM     19  HN  UNK N   1      30.821  15.365   9.880  1.00  0.00     0.186 HD
HETATM   20  C   UNK N   1      34.073  15.298  10.333  0.00  0.00     0.236 C 
HETATM   21  H   UNK N   1      32.504  14.231  11.008  0.00  0.00     0.190 HD
HETATM   22  O   UNK N   1      34.882  14.663  10.983  0.00  0.00    -0.272 OA
HETATM   23  C   UNK N   1      34.551  16.428   9.464  0.00  0.00     0.115 C 
HETATM   24  C   UNK N   1      33.439  17.053   8.644  0.00  0.00     0.042 C 
HETATM   25  C   UNK N   1      33.795  18.229   7.746  0.00  0.00     0.017 C 
ENDBRANCH  13  16
ENDBRANCH   8  10
ENDBRANCH   1   8
TORSDOF 3
ENDMDL
MODEL 3
REMARK VINA RESULT:      -6.8     10.654     14.298
REMARK  3 active torsions:
REMARK  status: ('A' for Active; 'I' for Inactive)
REMARK    1  A    between atoms: N_5  and  N_6 
REMARK    2  A    between atoms: N_5  and  C_20 
REMARK    3  A    between atoms: C_12  and  C_14 
ROOT
HETATM    1  N   UNK N   1      35.597  10.468  21.185  0.00  0.00    -0.282 N 
ATOM      2  HN  UNK N   1      36.600  10.330  21.068  1.00  0.00     0.188 HD
HETATM    3  N   UNK N   1      36.105   7.587  22.832  0.00  0.00    -0.189 NA
HETATM    4  N   UNK N   1      32.329  10.149  21.981  0.00  0.00    -0.189 NA
HETATM    5  C   UNK N   1      34.886   9.630  21.832  0.00  0.00     0.209 C 
HETATM    6  C   UNK N   1      35.531   8.490  22.395  0.00  0.00     0.130 C 
HETATM    7  C   UNK N   1      33.452   9.865  21.949  0.00  0.00     0.130 C 
ENDROOT
BRANCH   1   8
HETATM    8  N   UNK N   1      34.971  11.551  20.661  0.00  0.00    -0.299 N 
HETATM    9  H   UNK N   1      34.325  12.036  21.223  0.00  0.00     0.187 HD
BRANCH   8  10
HETATM   10  C   UNK N   1      35.193  12.006  19.381  0.00  0.00     0.048 A 
HETATM   11  C   UNK N   1      35.524  11.045  18.460  0.00  0.00     0.032 A 
HETATM   12  C   UNK N   1      35.722  11.397  17.162  0.00  0.00     0.016 A 
HETATM   13  C   UNK N   1      35.580  12.720  16.752  0.00  0.00    -0.012 A 
HETATM   14  C   UNK N   1      35.277  13.720  17.693  0.00  0.00     0.016 A 
HETATM   15  C   UNK N   1      35.092  13.360  19.030  0.00  0.00     0.032 A 
BRANCH  13  16
HETATM   16  C   UNK N   1      35.663  12.944  15.311  0.00  0.00     0.040 C 
HETATM   17  N   UNK N   1      36.550  13.795  14.915  0.00  0.00    -0.301 N 
HETATM   18  N   UNK N   1      36.810  14.074  13.600  0.00  0.00    -0.270 N 
ATOM     19  HN  UNK N   1      37.090  14.290  15.626  1.00  0.00     0.186 HD
HETATM   20  C   UNK N   1      36.127  13.507  12.586  0.00  0.00     0.236 C 
HETATM   21  H   UNK N   1      37.525  14.716  13.386  0.00  0.00     0.190 HD
HETATM   22  O   UNK N   1      36.407  13.812  11.443  0.00  0.00    -0.272 OA
HETATM   23  C   UNK N   1      35.017  12.522  12.834  0.00  0.00     0.115 C 
HETATM   24  C   UNK N   1      34.857  12.171  14.301  0.00  0.00     0.042 C 
HETATM   25  C   UNK N   1      33.746  11.206  14.681  0.00  0.00     0.017 C 
ENDBRANCH  13  16
ENDBRANCH   8  10
ENDBRANCH   1   8
TORSDOF 3
ENDMDL
MODEL 4
REMARK VINA RESULT:      -6.8      1.847      2.680
REMARK  3 active torsions:
REMARK  status: ('A' for Active; 'I' for Inactive)
REMARK    1  A    between atoms: N_5  and  N_6 
REMARK    2  A    between atoms: N_5  and  C_20 
REMARK    3  A    between atoms: C_12  and  C_14 
ROOT
HETATM    1  N   UNK N   1      31.762  17.532   8.828  0.00  0.00    -0.282 N 
ATOM      2  HN  UNK N   1      31.845  18.539   8.963  1.00  0.00     0.188 HD
HETATM    3  N   UNK N   1      35.087  17.939   9.047  0.00  0.00    -0.189 NA
HETATM    4  N   UNK N   1      32.365  14.237   8.384  0.00  0.00    -0.189 NA
HETATM    5  C   UNK N   1      32.794  16.785   8.778  0.00  0.00     0.209 C 
HETATM    6  C   UNK N   1      34.076  17.393   8.922  0.00  0.00     0.130 C 
HETATM    7  C   UNK N   1      32.619  15.354   8.560  0.00  0.00     0.130 C 
ENDROOT
BRANCH   1   8
HETATM    8  N   UNK N   1      30.549  16.938   8.697  0.00  0.00    -0.299 N 
HETATM    9  H   UNK N   1      30.305  16.227   9.332  0.00  0.00     0.187 HD
BRANCH   8  10
HETATM   10  C   UNK N   1      29.643  17.280   7.720  0.00  0.00     0.048 A 
HETATM   11  C   UNK N   1      28.823  18.340   8.016  0.00  0.00     0.032 A 
HETATM   12  C   UNK N   1      27.923  18.773   7.095  0.00  0.00     0.016 A 
HETATM   13  C   UNK N   1      27.831  18.164   5.846  0.00  0.00    -0.012 A 
HETATM   14  C   UNK N   1      28.640  17.054   5.544  0.00  0.00     0.016 A 
HETATM   15  C   UNK N   1      29.551  16.597   6.498  0.00  0.00     0.032 A 
BRANCH  13  16
HETATM   16  C   UNK N   1      26.941  18.819   4.890  0.00  0.00     0.040 C 
HETATM   17  N   UNK N   1      27.396  19.888   4.327  0.00  0.00    -0.301 N 
HETATM   18  N   UNK N   1      26.725  20.588   3.360  0.00  0.00    -0.270 N 
ATOM     19  HN  UNK N   1      28.310  20.233   4.622  1.00  0.00     0.186 HD
HETATM   20  C   UNK N   1      25.496  20.241   2.929  0.00  0.00     0.236 C 
HETATM   21  H   UNK N   1      27.159  21.377   2.962  0.00  0.00     0.190 HD
HETATM   22  O   UNK N   1      24.959  20.917   2.073  0.00  0.00    -0.272 OA
HETATM   23  C   UNK N   1      24.768  19.051   3.492  0.00  0.00     0.115 C 
HETATM   24  C   UNK N   1      25.608  18.256   4.473  0.00  0.00     0.042 C 
HETATM   25  C   UNK N   1      24.969  17.044   5.135  0.00  0.00     0.017 C 
ENDBRANCH  13  16
ENDBRANCH   8  10
ENDBRANCH   1   8
TORSDOF 3
ENDMDL
MODEL 5
REMARK VINA RESULT:      -6.8      1.368      2.427
REMARK  3 active torsions:
REMARK  status: ('A' for Active; 'I' for Inactive)
REMARK    1  A    between atoms: N_5  and  N_6 
REMARK    2  A    between atoms: N_5  and  C_20 
REMARK    3  A    between atoms: C_12  and  C_14 
ROOT
HETATM    1  N   UNK N   1      32.605  17.690   7.038  0.00  0.00    -0.282 N 
ATOM      2  HN  UNK N   1      32.756  18.507   6.448  1.00  0.00     0.188 HD
HETATM    3  N   UNK N   1      35.283  19.110   8.481  0.00  0.00    -0.189 NA
HETATM    4  N   UNK N   1      32.829  15.276   9.392  0.00  0.00    -0.189 NA
HETATM    5  C   UNK N   1      33.364  17.443   8.032  0.00  0.00     0.209 C 
HETATM    6  C   UNK N   1      34.434  18.345   8.306  0.00  0.00     0.130 C 
HETATM    7  C   UNK N   1      33.116  16.248   8.830  0.00  0.00     0.130 C 
ENDROOT
BRANCH   1   8
HETATM    8  N   UNK N   1      31.587  16.826   6.795  0.00  0.00    -0.299 N 
HETATM    9  H   UNK N   1      31.774  15.860   6.829  0.00  0.00     0.187 HD
BRANCH   8  10
HETATM   10  C   UNK N   1      30.306  17.233   6.502  0.00  0.00     0.048 A 
HETATM   11  C   UNK N   1      29.921  17.082   5.194  0.00  0.00     0.032 A 
HETATM   12  C   UNK N   1      28.659  17.420   4.820  0.00  0.00     0.016 A 
HETATM   13  C   UNK N   1      27.745  17.906   5.752  0.00  0.00    -0.012 A 
HETATM   14  C   UNK N   1      28.138  18.100   7.088  0.00  0.00     0.016 A 
HETATM   15  C   UNK N   1      29.441  17.769   7.467  0.00  0.00     0.032 A 
BRANCH  13  16
HETATM   16  C   UNK N   1      26.380  18.083   5.262  0.00  0.00     0.040 C 
HETATM   17  N   UNK N   1      25.513  17.213   5.662  0.00  0.00    -0.301 N 
HETATM   18  N   UNK N   1      24.179  17.266   5.356  0.00  0.00    -0.270 N 
ATOM     19  HN  UNK N   1      25.842  16.440   6.240  1.00  0.00     0.186 HD
HETATM   20  C   UNK N   1      23.650  18.222   4.567  0.00  0.00     0.236 C 
HETATM   21  H   UNK N   1      23.582  16.578   5.728  0.00  0.00     0.190 HD
HETATM   22  O   UNK N   1      22.457  18.199   4.332  0.00  0.00    -0.272 OA
HETATM   23  C   UNK N   1      24.499  19.304   3.958  0.00  0.00     0.115 C 
HETATM   24  C   UNK N   1      25.940  19.256   4.426  0.00  0.00     0.042 C 
HETATM   25  C   UNK N   1      26.906  20.283   3.855  0.00  0.00     0.017 C 
ENDBRANCH  13  16
ENDBRANCH   8  10
ENDBRANCH   1   8
TORSDOF 3
ENDMDL
MODEL 6
REMARK VINA RESULT:      -6.8     14.629     16.137
REMARK  3 active torsions:
REMARK  status: ('A' for Active; 'I' for Inactive)
REMARK    1  A    between atoms: N_5  and  N_6 
REMARK    2  A    between atoms: N_5  and  C_20 
REMARK    3  A    between atoms: C_12  and  C_14 
ROOT
HETATM    1  N   UNK N   1      27.056  28.829  -2.195  0.00  0.00    -0.282 N 
ATOM      2  HN  UNK N   1      27.133  28.278  -1.341  1.00  0.00     0.188 HD
HETATM    3  N   UNK N   1      29.822  30.106  -0.786  0.00  0.00    -0.189 NA
HETATM    4  N   UNK N   1      27.501  31.062  -4.691  0.00  0.00    -0.189 NA
HETATM    5  C   UNK N   1      27.904  29.739  -2.474  0.00  0.00     0.209 C 
HETATM    6  C   UNK N   1      28.975  29.967  -1.560  0.00  0.00     0.130 C 
HETATM    7  C   UNK N   1      27.733  30.513  -3.698  0.00  0.00     0.130 C 
ENDROOT
BRANCH   1   8
HETATM    8  N   UNK N   1      26.047  28.619  -3.078  0.00  0.00    -0.299 N 
HETATM    9  H   UNK N   1      25.347  29.306  -3.161  0.00  0.00     0.187 HD
BRANCH   8  10
HETATM   10  C   UNK N   1      25.951  27.493  -3.862  0.00  0.00     0.048 A 
HETATM   11  C   UNK N   1      25.262  27.646  -5.038  0.00  0.00     0.032 A 
HETATM   12  C   UNK N   1      25.151  26.597  -5.895  0.00  0.00     0.016 A 
HETATM   13  C   UNK N   1      25.740  25.370  -5.601  0.00  0.00    -0.012 A 
HETATM   14  C   UNK N   1      26.418  25.189  -4.382  0.00  0.00     0.016 A 
HETATM   15  C   UNK N   1      26.515  26.262  -3.494  0.00  0.00     0.032 A 
BRANCH  13  16
HETATM   16  C   UNK N   1      25.686  24.374  -6.669  0.00  0.00     0.040 C 
HETATM   17  N   UNK N   1      25.157  23.237  -6.362  0.00  0.00    -0.301 N 
HETATM   18  N   UNK N   1      24.964  22.217  -7.255  0.00  0.00    -0.270 N 
ATOM     19  HN  UNK N   1      24.866  23.089  -5.395  1.00  0.00     0.186 HD
HETATM   20  C   UNK N   1      25.348  22.295  -8.544  0.00  0.00     0.236 C 
HETATM   21  H   UNK N   1      24.525  21.393  -6.943  0.00  0.00     0.190 HD
HETATM   22  O   UNK N   1      25.152  21.344  -9.277  0.00  0.00    -0.272 OA
HETATM   23  C   UNK N   1      26.028  23.519  -9.094  0.00  0.00     0.115 C 
HETATM   24  C   UNK N   1      26.109  24.650  -8.087  0.00  0.00     0.042 C 
HETATM   25  C   UNK N   1      26.804  25.933  -8.517  0.00  0.00     0.017 C 
ENDBRANCH  13  16
ENDBRANCH   8  10
ENDBRANCH   1   8
TORSDOF 3
ENDMDL
MODEL 7
REMARK VINA RESULT:      -6.7      6.288     11.071
REMARK  3 active torsions:
REMARK  status: ('A' for Active; 'I' for Inactive)
REMARK    1  A    between atoms: N_5  and  N_6 
REMARK    2  A    between atoms: N_5  and  C_20 
REMARK    3  A    between atoms: C_12  and  C_14 
ROOT
HETATM    1  N   UNK N   1      33.392  16.384   9.406  0.00  0.00    -0.282 N 
ATOM      2  HN  UNK N   1      32.675  15.678   9.571  1.00  0.00     0.188 HD
HETATM    3  N   UNK N   1      30.948  17.366   7.325  0.00  0.00    -0.189 NA
HETATM    4  N   UNK N   1      35.187  19.008   8.263  0.00  0.00    -0.189 NA
HETATM    5  C   UNK N   1      33.209  17.326   8.567  0.00  0.00     0.209 C 
HETATM    6  C   UNK N   1      31.970  17.375   7.864  0.00  0.00     0.130 C 
HETATM    7  C   UNK N   1      34.277  18.296   8.353  0.00  0.00     0.130 C 
ENDROOT
BRANCH   1   8
HETATM    8  N   UNK N   1      34.573  16.355  10.073  0.00  0.00    -0.299 N 
HETATM    9  H   UNK N   1      35.215  17.085   9.919  0.00  0.00     0.187 HD
BRANCH   8  10
HETATM   10  C   UNK N   1      34.919  15.355  10.953  0.00  0.00     0.048 A 
HETATM   11  C   UNK N   1      35.707  15.741  12.008  0.00  0.00     0.032 A 
HETATM   12  C   UNK N   1      36.066  14.829  12.949  0.00  0.00     0.016 A 
HETATM   13  C   UNK N   1      35.633  13.508  12.864  0.00  0.00    -0.012 A 
HETATM   14  C   UNK N   1      34.856  13.092  11.768  0.00  0.00     0.016 A 
HETATM   15  C   UNK N   1      34.503  14.026  10.792  0.00  0.00     0.032 A 
BRANCH  13  16
HETATM   16  C   UNK N   1      35.952  12.666  14.014  0.00  0.00     0.040 C 
HETATM   17  N   UNK N   1      35.349  12.956  15.119  0.00  0.00    -0.301 N 
HETATM   18  N   UNK N   1      35.477  12.232  16.274  0.00  0.00    -0.270 N 
ATOM     19  HN  UNK N   1      34.741  13.776  15.132  1.00  0.00     0.186 HD
HETATM   20  C   UNK N   1      36.285  11.158  16.374  0.00  0.00     0.236 C 
HETATM   21  H   UNK N   1      34.958  12.506  17.063  0.00  0.00     0.190 HD
HETATM   22  O   UNK N   1      36.355  10.570  17.437  0.00  0.00    -0.272 OA
HETATM   23  C   UNK N   1      37.113  10.680  15.213  0.00  0.00     0.115 C 
HETATM   24  C   UNK N   1      36.841  11.453  13.937  0.00  0.00     0.042 C 
HETATM   25  C   UNK N   1      37.641  11.081  12.698  0.00  0.00     0.017 C 
ENDBRANCH  13  16
ENDBRANCH   8  10
ENDBRANCH   1   8
TORSDOF 3
ENDMDL
MODEL 8
REMARK VINA RESULT:      -6.7      3.703      8.291
REMARK  3 active torsions:
REMARK  status: ('A' for Active; 'I' for Inactive)
REMARK    1  A    between atoms: N_5  and  N_6 
REMARK    2  A    between atoms: N_5  and  C_20 
REMARK    3  A    between atoms: C_12  and  C_14 
ROOT
HETATM    1  N   UNK N   1      27.526  18.912   7.095  0.00  0.00    -0.282 N 
ATOM      2  HN  UNK N   1      27.305  19.291   8.015  1.00  0.00     0.188 HD
HETATM    3  N   UNK N   1      26.110  21.854   6.317  0.00  0.00    -0.189 NA
HETATM    4  N   UNK N   1      27.858  18.386   3.774  0.00  0.00    -0.189 NA
HETATM    5  C   UNK N   1      27.246  19.554   6.030  0.00  0.00     0.209 C 
HETATM    6  C   UNK N   1      26.617  20.828   6.155  0.00  0.00     0.130 C 
HETATM    7  C   UNK N   1      27.563  18.954   4.740  0.00  0.00     0.130 C 
ENDROOT
BRANCH   1   8
HETATM    8  N   UNK N   1      28.131  17.704   6.960  0.00  0.00    -0.299 N 
HETATM    9  H   UNK N   1      27.613  16.962   6.573  0.00  0.00     0.187 HD
BRANCH   8  10
HETATM   10  C   UNK N   1      29.432  17.465   7.338  0.00  0.00     0.048 A 
HETATM   11  C   UNK N   1      29.699  17.623   8.674  0.00  0.00     0.032 A 
HETATM   12  C   UNK N   1      30.948  17.370   9.145  0.00  0.00     0.016 A 
HETATM   13  C   UNK N   1      31.959  16.938   8.290  0.00  0.00    -0.012 A 
HETATM   14  C   UNK N   1      31.707  16.807   6.913  0.00  0.00     0.016 A 
HETATM   15  C   UNK N   1      30.428  17.086   6.427  0.00  0.00     0.032 A 
BRANCH  13  16
HETATM   16  C   UNK N   1      33.209  16.548   8.939  0.00  0.00     0.040 C 
HETATM   17  N   UNK N   1      33.976  17.512   9.327  0.00  0.00    -0.301 N 
HETATM   18  N   UNK N   1      35.147  17.329  10.011  0.00  0.00    -0.270 N 
ATOM     19  HN  UNK N   1      33.691  18.467   9.109  1.00  0.00     0.186 HD
HETATM   20  C   UNK N   1      35.633  16.109  10.313  0.00  0.00     0.236 C 
HETATM   21  H   UNK N   1      35.657  18.122  10.295  0.00  0.00     0.190 HD
HETATM   22  O   UNK N   1      36.686  16.025  10.915  0.00  0.00    -0.272 OA
HETATM   23  C   UNK N   1      34.914  14.851   9.909  0.00  0.00     0.115 C 
HETATM   24  C   UNK N   1      33.572  15.122   9.257  0.00  0.00     0.042 C 
HETATM   25  C   UNK N   1      32.763  13.927   8.777  0.00  0.00     0.017 C 
ENDBRANCH  13  16
ENDBRANCH   8  10
ENDBRANCH   1   8
TORSDOF 3
ENDMDL
MODEL 9
REMARK VINA RESULT:      -6.6      3.828      8.120
REMARK  3 active torsions:
REMARK  status: ('A' for Active; 'I' for Inactive)
REMARK    1  A    between atoms: N_5  and  N_6 
REMARK    2  A    between atoms: N_5  and  C_20 
REMARK    3  A    between atoms: C_12  and  C_14 
ROOT
HETATM    1  N   UNK N   1      26.609  16.821   6.597  0.00  0.00    -0.282 N 
ATOM      2  HN  UNK N   1      26.281  16.835   7.562  1.00  0.00     0.188 HD
HETATM    3  N   UNK N   1      23.743  15.086   6.388  0.00  0.00    -0.189 NA
HETATM    4  N   UNK N   1      26.982  16.276   3.283  0.00  0.00    -0.189 NA
HETATM    5  C   UNK N   1      25.947  16.229   5.683  0.00  0.00     0.209 C 
HETATM    6  C   UNK N   1      24.725  15.587   6.041  0.00  0.00     0.130 C 
HETATM    7  C   UNK N   1      26.474  16.220   4.323  0.00  0.00     0.130 C 
ENDROOT
BRANCH   1   8
HETATM    8  N   UNK N   1      27.766  17.433   6.239  0.00  0.00    -0.299 N 
HETATM    9  H   UNK N   1      27.733  18.122   5.536  0.00  0.00     0.187 HD
BRANCH   8  10
HETATM   10  C   UNK N   1      28.983  17.140   6.809  0.00  0.00     0.048 A 
HETATM   11  C   UNK N   1      29.267  17.805   7.975  0.00  0.00     0.032 A 
HETATM   12  C   UNK N   1      30.431  17.549   8.629  0.00  0.00     0.016 A 
HETATM   13  C   UNK N   1      31.334  16.610   8.138  0.00  0.00    -0.012 A 
HETATM   14  C   UNK N   1      31.071  15.949   6.925  0.00  0.00     0.016 A 
HETATM   15  C   UNK N   1      29.885  16.226   6.244  0.00  0.00     0.032 A 
BRANCH  13  16
HETATM   16  C   UNK N   1      32.467  16.310   9.010  0.00  0.00     0.040 C 
HETATM   17  N   UNK N   1      32.302  15.342   9.849  0.00  0.00    -0.301 N 
HETATM   18  N   UNK N   1      33.279  14.884  10.691  0.00  0.00    -0.270 N 
ATOM     19  HN  UNK N   1      31.387  14.892   9.886  1.00  0.00     0.186 HD
HETATM   20  C   UNK N   1      34.508  15.434  10.749  0.00  0.00     0.236 C 
HETATM   21  H   UNK N   1      33.077  14.120  11.278  0.00  0.00     0.190 HD
HETATM   22  O   UNK N   1      35.322  14.979  11.529  0.00  0.00    -0.272 OA
HETATM   23  C   UNK N   1      34.890  16.606   9.887  0.00  0.00     0.115 C 
HETATM   24  C   UNK N   1      33.805  16.991   8.900  0.00  0.00     0.042 C 
HETATM   25  C   UNK N   1      34.064  18.183   7.992  0.00  0.00     0.017 C 
ENDBRANCH  13  16
ENDBRANCH   8  10
ENDBRANCH   1   8
TORSDOF 3
ENDMDL
