MODEL 1
REMARK VINA RESULT:      -7.7      0.000      0.000
REMARK  13 active torsions:
REMARK  status: ('A' for Active; 'I' for Inactive)
REMARK    1  A    between atoms: S_2  and  C_23 
REMARK    2  A    between atoms: S_2  and  C_30 
REMARK    3  A    between atoms: O_4  and  C_25 
REMARK    4  A    between atoms: O_7  and  C_36 
REMARK    5  A    between atoms: C_18  and  N_10 
REMARK       I    between atoms: N_10  and  C_24 
REMARK    6  A    between atoms: N_11  and  C_35 
REMARK    7  A    between atoms: N_14  and  C_31 
REMARK    8  A    between atoms: C_20  and  C_25 
REMARK    9  A    between atoms: C_21  and  C_23 
REMARK   10  A    between atoms: C_24  and  C_26 
REMARK   11  A    between atoms: C_26  and  C_27 
REMARK   12  A    between atoms: C_28  and  C_31 
REMARK   13  A    between atoms: C_35  and  C_36 
ROOT
HETATM    1  S   UNK N   1      22.092  16.001   2.637  0.00  0.00    -0.136 SA
HETATM    2  O   UNK N   1      20.977  19.506   5.132  0.00  0.00    -0.271 OA
HETATM    3  N   UNK N   1      21.776  17.400   4.764  0.00  0.00    -0.293 N 
HETATM    4  C   UNK N   1      22.783  17.201   3.776  0.00  0.00     0.187 A 
HETATM    5  C   UNK N   1      22.702  18.795   3.486  0.00  0.00     0.210 A 
HETATM    6  C   UNK N   1      21.675  18.685   4.559  0.00  0.00     0.251 A 
HETATM    7  C   UNK N   1      21.244  16.400   5.637  0.00  0.00     0.116 C 
HETATM    8  C   UNK N   1      21.521  15.093   5.310  0.00  0.00    -0.027 C 
HETATM    9  C   UNK N   1      22.233  14.754   3.998  0.00  0.00     0.113 C 
ENDROOT
BRANCH   5  10
HETATM   10  N   UNK N   1      23.905  19.482   3.968  0.00  0.00    -0.345 N 
HETATM   11  C   UNK N   1      24.661  20.382   3.263  0.00  0.00     0.222 C 
HETATM   12  O   UNK N   1      24.410  20.652   2.099  0.00  0.00    -0.273 OA
HETATM   13  H   UNK N   1      24.198  19.276   4.885  0.00  0.00     0.163 HD
BRANCH  11  14
HETATM   14  C   UNK N   1      25.804  21.083   3.921  0.00  0.00     0.142 C 
BRANCH  14  15
HETATM   15  C   UNK N   1      26.697  20.122   4.631  0.00  0.00    -0.042 A 
HETATM   16  C   UNK N   1      26.989  20.281   6.001  0.00  0.00    -0.034 A 
HETATM   17  C   UNK N   1      27.837  19.367   6.633  0.00  0.00     0.009 A 
HETATM   18  C   UNK N   1      28.391  18.303   5.916  0.00  0.00     0.001 A 
HETATM   19  C   UNK N   1      28.105  18.149   4.559  0.00  0.00     0.001 A 
HETATM   20  C   UNK N   1      27.263  19.058   3.916  0.00  0.00     0.008 A 
BRANCH  16  21
HETATM   21  C   UNK N   1      26.428  21.418   6.799  0.00  0.00     0.150 C 
BRANCH  21  22
HETATM   22  N   UNK N   1      25.947  20.949   8.088  0.00  0.00    -0.426 N 
HETATM   23  H   UNK N   1      25.843  19.986   8.410  0.00  0.00     0.150 HD
HETATM   24  H   UNK N   1      25.680  21.673   8.754  0.00  0.00     0.150 HD
ENDBRANCH  21  22
ENDBRANCH  16  21
ENDBRANCH  14  15
ENDBRANCH  11  14
ENDBRANCH   5  10
BRANCH   7  25
HETATM   25  C   UNK N   1      20.504  16.815   6.875  0.00  0.00     0.194 C 
HETATM   26  O   UNK N   1      19.454  16.272   7.172  0.00  0.00    -0.645 OA
BRANCH  25  27
HETATM   27  O   UNK N   1      20.965  17.787   7.677  0.00  0.00    -0.772 OA
HETATM   28  H   UNK N   1      21.009  17.947   8.600  0.00  0.00     0.167 HD
ENDBRANCH  25  27
ENDBRANCH   7  25
BRANCH   8  29
HETATM   29  C   UNK N   1      21.287  13.899   6.207  0.00  0.00     0.120 C 
BRANCH  29  30
HETATM   30  S   UNK N   1      22.522  13.331   7.431  0.00  0.00    -0.087 SA
BRANCH  30  31
HETATM   31  C   UNK N   1      21.487  13.203   8.878  0.00  0.00     0.173 A 
HETATM   32  N   UNK N   1      21.735  12.486   9.983  0.00  0.00    -0.246 N 
HETATM   33  N   UNK N   1      20.746  12.738  10.822  0.00  0.00    -0.004 NA
HETATM   34  N   UNK N   1      19.910  13.595  10.250  0.00  0.00    -0.007 NA
HETATM   35  N   UNK N   1      20.352  13.902   9.040  0.00  0.00    -0.265 N 
ATOM     36  HN  UNK N   1      19.920  14.538   8.369  1.00  0.00     0.186 HD
BRANCH  32  37
HETATM   37  C   UNK N   1      22.869  11.600  10.241  0.00  0.00     0.258 C 
BRANCH  37  38
HETATM   38  C   UNK N   1      23.368  11.736  11.645  0.00  0.00     0.160 C 
HETATM   39  O   UNK N   1      24.533  12.035  11.848  0.00  0.00    -0.649 OA
BRANCH  38  40
HETATM   40  O   UNK N   1      22.537  11.522  12.682  0.00  0.00    -0.775 OA
HETATM   41  H   UNK N   1      22.749  11.021  13.445  0.00  0.00     0.167 HD
ENDBRANCH  38  40
ENDBRANCH  37  38
ENDBRANCH  32  37
ENDBRANCH  30  31
ENDBRANCH  29  30
ENDBRANCH   8  29
TORSDOF 13
ENDMDL
MODEL 2
REMARK VINA RESULT:      -7.5     10.929     14.848
REMARK  13 active torsions:
REMARK  status: ('A' for Active; 'I' for Inactive)
REMARK    1  A    between atoms: S_2  and  C_23 
REMARK    2  A    between atoms: S_2  and  C_30 
REMARK    3  A    between atoms: O_4  and  C_25 
REMARK    4  A    between atoms: O_7  and  C_36 
REMARK    5  A    between atoms: C_18  and  N_10 
REMARK       I    between atoms: N_10  and  C_24 
REMARK    6  A    between atoms: N_11  and  C_35 
REMARK    7  A    between atoms: N_14  and  C_31 
REMARK    8  A    between atoms: C_20  and  C_25 
REMARK    9  A    between atoms: C_21  and  C_23 
REMARK   10  A    between atoms: C_24  and  C_26 
REMARK   11  A    between atoms: C_26  and  C_27 
REMARK   12  A    between atoms: C_28  and  C_31 
REMARK   13  A    between atoms: C_35  and  C_36 
ROOT
HETATM    1  S   UNK N   1      36.377  12.406   9.580  0.00  0.00    -0.136 SA
HETATM    2  O   UNK N   1      35.100  15.953  11.934  0.00  0.00    -0.271 OA
HETATM    3  N   UNK N   1      34.777  14.144  10.582  0.00  0.00    -0.293 N 
HETATM    4  C   UNK N   1      35.333  12.887  10.956  0.00  0.00     0.187 A 
HETATM    5  C   UNK N   1      35.937  13.633  12.264  0.00  0.00     0.210 A 
HETATM    6  C   UNK N   1      35.249  14.785  11.616  0.00  0.00     0.251 A 
HETATM    7  C   UNK N   1      33.944  14.391   9.446  0.00  0.00     0.116 C 
HETATM    8  C   UNK N   1      33.905  13.402   8.490  0.00  0.00    -0.027 C 
HETATM    9  C   UNK N   1      34.829  12.186   8.592  0.00  0.00     0.113 C 
ENDROOT
BRANCH   5  10
HETATM   10  N   UNK N   1      35.239  13.212  13.483  0.00  0.00    -0.345 N 
HETATM   11  C   UNK N   1      35.681  13.383  14.770  0.00  0.00     0.222 C 
HETATM   12  O   UNK N   1      36.773  13.874  15.009  0.00  0.00    -0.273 OA
HETATM   13  H   UNK N   1      34.371  12.763  13.366  0.00  0.00     0.163 HD
BRANCH  11  14
HETATM   14  C   UNK N   1      34.812  12.996  15.921  0.00  0.00     0.142 C 
BRANCH  14  15
HETATM   15  C   UNK N   1      35.365  11.817  16.649  0.00  0.00    -0.042 A 
HETATM   16  C   UNK N   1      35.505  11.832  18.052  0.00  0.00    -0.034 A 
HETATM   17  C   UNK N   1      36.037  10.714  18.702  0.00  0.00     0.009 A 
HETATM   18  C   UNK N   1      36.426   9.589  17.969  0.00  0.00     0.001 A 
HETATM   19  C   UNK N   1      36.292   9.577  16.580  0.00  0.00     0.001 A 
HETATM   20  C   UNK N   1      35.766  10.689  15.921  0.00  0.00     0.008 A 
BRANCH  16  21
HETATM   21  C   UNK N   1      35.115  13.025  18.870  0.00  0.00     0.150 C 
BRANCH  21  22
HETATM   22  N   UNK N   1      35.364  12.780  20.280  0.00  0.00    -0.426 N 
HETATM   23  H   UNK N   1      34.683  12.639  21.026  0.00  0.00     0.150 HD
HETATM   24  H   UNK N   1      36.344  12.745  20.560  0.00  0.00     0.150 HD
ENDBRANCH  21  22
ENDBRANCH  16  21
ENDBRANCH  14  15
ENDBRANCH  11  14
ENDBRANCH   5  10
BRANCH   7  25
HETATM   25  C   UNK N   1      33.112  15.639   9.394  0.00  0.00     0.194 C 
HETATM   26  O   UNK N   1      31.899  15.571   9.490  0.00  0.00    -0.645 OA
BRANCH  25  27
HETATM   27  O   UNK N   1      33.669  16.850   9.237  0.00  0.00    -0.772 OA
HETATM   28  H   UNK N   1      33.917  17.399   8.519  0.00  0.00     0.167 HD
ENDBRANCH  25  27
ENDBRANCH   7  25
BRANCH   8  29
HETATM   29  C   UNK N   1      32.916  13.328   7.349  0.00  0.00     0.120 C 
BRANCH  29  30
HETATM   30  S   UNK N   1      33.339  13.848   5.646  0.00  0.00    -0.087 SA
BRANCH  30  31
HETATM   31  C   UNK N   1      33.616  15.589   5.915  0.00  0.00     0.173 A 
HETATM   32  N   UNK N   1      32.698  16.566   5.869  0.00  0.00    -0.246 N 
HETATM   33  N   UNK N   1      33.323  17.681   6.200  0.00  0.00    -0.004 NA
HETATM   34  N   UNK N   1      34.595  17.400   6.451  0.00  0.00    -0.007 NA
HETATM   35  N   UNK N   1      34.801  16.102   6.284  0.00  0.00    -0.265 N 
ATOM     36  HN  UNK N   1      35.679  15.597   6.409  1.00  0.00     0.186 HD
BRANCH  32  37
HETATM   37  C   UNK N   1      31.281  16.448   5.531  0.00  0.00     0.258 C 
BRANCH  37  38
HETATM   38  C   UNK N   1      30.405  16.910   6.651  0.00  0.00     0.160 C 
HETATM   39  O   UNK N   1      29.207  16.682   6.619  0.00  0.00    -0.649 OA
BRANCH  38  40
HETATM   40  O   UNK N   1      30.935  17.580   7.692  0.00  0.00    -0.775 OA
HETATM   41  H   UNK N   1      30.472  18.199   8.222  0.00  0.00     0.167 HD
ENDBRANCH  38  40
ENDBRANCH  37  38
ENDBRANCH  32  37
ENDBRANCH  30  31
ENDBRANCH  29  30
ENDBRANCH   8  29
TORSDOF 13
ENDMDL
MODEL 3
REMARK VINA RESULT:      -7.4      1.779      2.198
REMARK  13 active torsions:
REMARK  status: ('A' for Active; 'I' for Inactive)
REMARK    1  A    between atoms: S_2  and  C_23 
REMARK    2  A    between atoms: S_2  and  C_30 
REMARK    3  A    between atoms: O_4  and  C_25 
REMARK    4  A    between atoms: O_7  and  C_36 
REMARK    5  A    between atoms: C_18  and  N_10 
REMARK       I    between atoms: N_10  and  C_24 
REMARK    6  A    between atoms: N_11  and  C_35 
REMARK    7  A    between atoms: N_14  and  C_31 
REMARK    8  A    between atoms: C_20  and  C_25 
REMARK    9  A    between atoms: C_21  and  C_23 
REMARK   10  A    between atoms: C_24  and  C_26 
REMARK   11  A    between atoms: C_26  and  C_27 
REMARK   12  A    between atoms: C_28  and  C_31 
REMARK   13  A    between atoms: C_35  and  C_36 
ROOT
HETATM    1  S   UNK N   1      22.590  14.939   4.906  0.00  0.00    -0.136 SA
HETATM    2  O   UNK N   1      21.087  19.072   5.550  0.00  0.00    -0.271 OA
HETATM    3  N   UNK N   1      21.941  17.058   6.199  0.00  0.00    -0.293 N 
HETATM    4  C   UNK N   1      23.090  16.542   5.533  0.00  0.00     0.187 A 
HETATM    5  C   UNK N   1      23.050  17.871   4.603  0.00  0.00     0.210 A 
HETATM    6  C   UNK N   1      21.869  18.138   5.471  0.00  0.00     0.251 A 
HETATM    7  C   UNK N   1      21.283  16.465   7.322  0.00  0.00     0.116 C 
HETATM    8  C   UNK N   1      21.613  15.160   7.605  0.00  0.00    -0.027 C 
HETATM    9  C   UNK N   1      22.521  14.366   6.664  0.00  0.00     0.113 C 
ENDROOT
BRANCH   5  10
HETATM   10  N   UNK N   1      24.161  18.774   4.923  0.00  0.00    -0.345 N 
HETATM   11  C   UNK N   1      25.262  19.013   4.140  0.00  0.00     0.222 C 
HETATM   12  O   UNK N   1      25.437  18.418   3.089  0.00  0.00    -0.273 OA
HETATM   13  H   UNK N   1      24.112  19.253   5.781  0.00  0.00     0.163 HD
BRANCH  11  14
HETATM   14  C   UNK N   1      26.265  20.041   4.548  0.00  0.00     0.142 C 
BRANCH  14  15
HETATM   15  C   UNK N   1      27.156  19.532   5.632  0.00  0.00    -0.042 A 
HETATM   16  C   UNK N   1      27.208  20.173   6.887  0.00  0.00    -0.034 A 
HETATM   17  C   UNK N   1      28.061  19.677   7.877  0.00  0.00     0.009 A 
HETATM   18  C   UNK N   1      28.854  18.553   7.629  0.00  0.00     0.001 A 
HETATM   19  C   UNK N   1      28.806  17.923   6.384  0.00  0.00     0.001 A 
HETATM   20  C   UNK N   1      27.961  18.412   5.387  0.00  0.00     0.008 A 
BRANCH  16  21
HETATM   21  C   UNK N   1      26.386  21.389   7.186  0.00  0.00     0.150 C 
BRANCH  21  22
HETATM   22  N   UNK N   1      25.648  21.215   8.426  0.00  0.00    -0.426 N 
HETATM   23  H   UNK N   1      25.155  20.385   8.755  0.00  0.00     0.150 HD
HETATM   24  H   UNK N   1      25.621  22.024   9.045  0.00  0.00     0.150 HD
ENDBRANCH  21  22
ENDBRANCH  16  21
ENDBRANCH  14  15
ENDBRANCH  11  14
ENDBRANCH   5  10
BRANCH   7  25
HETATM   25  C   UNK N   1      20.359  17.298   8.162  0.00  0.00     0.194 C 
HETATM   26  O   UNK N   1      19.470  16.766   8.805  0.00  0.00    -0.645 OA
BRANCH  25  27
HETATM   27  O   UNK N   1      20.475  18.633   8.224  0.00  0.00    -0.772 OA
HETATM   28  H   UNK N   1      21.151  19.267   8.084  0.00  0.00     0.167 HD
ENDBRANCH  25  27
ENDBRANCH   7  25
BRANCH   8  29
HETATM   29  C   UNK N   1      21.246  14.421   8.872  0.00  0.00     0.120 C 
BRANCH  29  30
HETATM   30  S   UNK N   1      21.062  12.602   8.931  0.00  0.00    -0.087 SA
BRANCH  30  31
HETATM   31  C   UNK N   1      22.025  12.241  10.389  0.00  0.00     0.173 A 
HETATM   32  N   UNK N   1      23.357  12.109  10.461  0.00  0.00    -0.246 N 
HETATM   33  N   UNK N   1      23.645  11.919  11.735  0.00  0.00    -0.004 NA
HETATM   34  N   UNK N   1      22.518  11.939  12.436  0.00  0.00    -0.007 NA
HETATM   35  N   UNK N   1      21.495  12.142  11.619  0.00  0.00    -0.265 N 
ATOM     36  HN  UNK N   1      20.509  12.209  11.872  1.00  0.00     0.186 HD
BRANCH  32  37
HETATM   37  C   UNK N   1      24.323  12.167   9.366  0.00  0.00     0.258 C 
BRANCH  37  38
HETATM   38  C   UNK N   1      25.213  13.364   9.477  0.00  0.00     0.160 C 
HETATM   39  O   UNK N   1      25.415  14.064   8.498  0.00  0.00    -0.649 OA
BRANCH  38  40
HETATM   40  O   UNK N   1      25.796  13.667  10.652  0.00  0.00    -0.775 OA
HETATM   41  H   UNK N   1      26.456  13.151  11.071  0.00  0.00     0.167 HD
ENDBRANCH  38  40
ENDBRANCH  37  38
ENDBRANCH  32  37
ENDBRANCH  30  31
ENDBRANCH  29  30
ENDBRANCH   8  29
TORSDOF 13
ENDMDL
MODEL 4
REMARK VINA RESULT:      -7.4      6.738     10.362
REMARK  13 active torsions:
REMARK  status: ('A' for Active; 'I' for Inactive)
REMARK    1  A    between atoms: S_2  and  C_23 
REMARK    2  A    between atoms: S_2  and  C_30 
REMARK    3  A    between atoms: O_4  and  C_25 
REMARK    4  A    between atoms: O_7  and  C_36 
REMARK    5  A    between atoms: C_18  and  N_10 
REMARK       I    between atoms: N_10  and  C_24 
REMARK    6  A    between atoms: N_11  and  C_35 
REMARK    7  A    between atoms: N_14  and  C_31 
REMARK    8  A    between atoms: C_20  and  C_25 
REMARK    9  A    between atoms: C_21  and  C_23 
REMARK   10  A    between atoms: C_24  and  C_26 
REMARK   11  A    between atoms: C_26  and  C_27 
REMARK   12  A    between atoms: C_28  and  C_31 
REMARK   13  A    between atoms: C_35  and  C_36 
ROOT
HETATM    1  S   UNK N   1      28.257  18.464   8.243  0.00  0.00    -0.136 SA
HETATM    2  O   UNK N   1      28.020  15.926   4.602  0.00  0.00    -0.271 OA
HETATM    3  N   UNK N   1      28.811  16.525   6.657  0.00  0.00    -0.293 N 
HETATM    4  C   UNK N   1      27.887  16.794   7.707  0.00  0.00     0.187 A 
HETATM    5  C   UNK N   1      26.705  16.483   6.640  0.00  0.00     0.210 A 
HETATM    6  C   UNK N   1      27.892  16.273   5.765  0.00  0.00     0.251 A 
HETATM    7  C   UNK N   1      30.237  16.516   6.772  0.00  0.00     0.116 C 
HETATM    8  C   UNK N   1      30.761  17.082   7.911  0.00  0.00    -0.027 C 
HETATM    9  C   UNK N   1      29.854  17.807   8.907  0.00  0.00     0.113 C 
ENDROOT
BRANCH   5  10
HETATM   10  N   UNK N   1      26.037  15.214   6.945  0.00  0.00    -0.345 N 
HETATM   11  C   UNK N   1      24.715  14.922   6.728  0.00  0.00     0.222 C 
HETATM   12  O   UNK N   1      23.940  15.759   6.293  0.00  0.00    -0.273 OA
HETATM   13  H   UNK N   1      26.590  14.505   7.346  0.00  0.00     0.163 HD
BRANCH  11  14
HETATM   14  C   UNK N   1      24.195  13.547   6.993  0.00  0.00     0.142 C 
BRANCH  14  15
HETATM   15  C   UNK N   1      23.156  13.554   8.063  0.00  0.00    -0.042 A 
HETATM   16  C   UNK N   1      23.449  13.087   9.360  0.00  0.00    -0.034 A 
HETATM   17  C   UNK N   1      22.449  13.099  10.337  0.00  0.00     0.009 A 
HETATM   18  C   UNK N   1      21.169  13.572  10.034  0.00  0.00     0.001 A 
HETATM   19  C   UNK N   1      20.878  14.029   8.747  0.00  0.00     0.001 A 
HETATM   20  C   UNK N   1      21.867  14.018   7.763  0.00  0.00     0.008 A 
BRANCH  16  21
HETATM   21  C   UNK N   1      24.803  12.558   9.720  0.00  0.00     0.150 C 
BRANCH  21  22
HETATM   22  N   UNK N   1      25.549  13.542  10.486  0.00  0.00    -0.426 N 
HETATM   23  H   UNK N   1      25.207  14.163  11.219  0.00  0.00     0.150 HD
HETATM   24  H   UNK N   1      26.541  13.623  10.261  0.00  0.00     0.150 HD
ENDBRANCH  21  22
ENDBRANCH  16  21
ENDBRANCH  14  15
ENDBRANCH  11  14
ENDBRANCH   5  10
BRANCH   7  25
HETATM   25  C   UNK N   1      31.060  15.835   5.719  0.00  0.00     0.194 C 
HETATM   26  O   UNK N   1      31.123  14.618   5.683  0.00  0.00    -0.645 OA
BRANCH  25  27
HETATM   27  O   UNK N   1      31.748  16.533   4.802  0.00  0.00    -0.772 OA
HETATM   28  H   UNK N   1      32.255  17.321   4.784  0.00  0.00     0.167 HD
ENDBRANCH  25  27
ENDBRANCH   7  25
BRANCH   8  29
HETATM   29  C   UNK N   1      32.198  16.962   8.364  0.00  0.00     0.120 C 
BRANCH  29  30
HETATM   30  S   UNK N   1      32.860  15.445   9.145  0.00  0.00    -0.087 SA
BRANCH  30  31
HETATM   31  C   UNK N   1      34.328  16.108   9.912  0.00  0.00     0.173 A 
HETATM   32  N   UNK N   1      35.219  15.437  10.656  0.00  0.00    -0.246 N 
HETATM   33  N   UNK N   1      36.177  16.294  10.956  0.00  0.00    -0.004 NA
HETATM   34  N   UNK N   1      35.887  17.467  10.406  0.00  0.00    -0.007 NA
HETATM   35  N   UNK N   1      34.742  17.374   9.747  0.00  0.00    -0.265 N 
ATOM     36  HN  UNK N   1      34.271  18.112   9.223  1.00  0.00     0.186 HD
BRANCH  32  37
HETATM   37  C   UNK N   1      35.171  14.033  11.063  0.00  0.00     0.258 C 
BRANCH  37  38
HETATM   38  C   UNK N   1      35.614  13.853  12.479  0.00  0.00     0.160 C 
HETATM   39  O   UNK N   1      34.803  13.539  13.334  0.00  0.00    -0.649 OA
BRANCH  38  40
HETATM   40  O   UNK N   1      36.904  14.044  12.814  0.00  0.00    -0.775 OA
HETATM   41  H   UNK N   1      37.605  14.157  12.204  0.00  0.00     0.167 HD
ENDBRANCH  38  40
ENDBRANCH  37  38
ENDBRANCH  32  37
ENDBRANCH  30  31
ENDBRANCH  29  30
ENDBRANCH   8  29
TORSDOF 13
ENDMDL
MODEL 5
REMARK VINA RESULT:      -7.4     11.501     15.996
REMARK  13 active torsions:
REMARK  status: ('A' for Active; 'I' for Inactive)
REMARK    1  A    between atoms: S_2  and  C_23 
REMARK    2  A    between atoms: S_2  and  C_30 
REMARK    3  A    between atoms: O_4  and  C_25 
REMARK    4  A    between atoms: O_7  and  C_36 
REMARK    5  A    between atoms: C_18  and  N_10 
REMARK       I    between atoms: N_10  and  C_24 
REMARK    6  A    between atoms: N_11  and  C_35 
REMARK    7  A    between atoms: N_14  and  C_31 
REMARK    8  A    between atoms: C_20  and  C_25 
REMARK    9  A    between atoms: C_21  and  C_23 
REMARK   10  A    between atoms: C_24  and  C_26 
REMARK   11  A    between atoms: C_26  and  C_27 
REMARK   12  A    between atoms: C_28  and  C_31 
REMARK   13  A    between atoms: C_35  and  C_36 
ROOT
HETATM    1  S   UNK N   1      37.533  12.011  10.114  0.00  0.00    -0.136 SA
HETATM    2  O   UNK N   1      35.970  14.842  13.163  0.00  0.00    -0.271 OA
HETATM    3  N   UNK N   1      35.817  13.461  11.353  0.00  0.00    -0.293 N 
HETATM    4  C   UNK N   1      36.336  12.136  11.442  0.00  0.00     0.187 A 
HETATM    5  C   UNK N   1      36.781  12.498  12.960  0.00  0.00     0.210 A 
HETATM    6  C   UNK N   1      36.163  13.795  12.566  0.00  0.00     0.251 A 
HETATM    7  C   UNK N   1      35.117  14.017  10.236  0.00  0.00     0.116 C 
HETATM    8  C   UNK N   1      35.195  13.315   9.055  0.00  0.00    -0.027 C 
HETATM    9  C   UNK N   1      36.110  12.095   8.935  0.00  0.00     0.113 C 
ENDROOT
BRANCH   5  10
HETATM   10  N   UNK N   1      35.951  11.787  13.937  0.00  0.00    -0.345 N 
HETATM   11  C   UNK N   1      36.404  10.995  14.961  0.00  0.00     0.222 C 
HETATM   12  O   UNK N   1      37.593  10.763  15.109  0.00  0.00    -0.273 OA
HETATM   13  H   UNK N   1      34.975  11.887  13.850  0.00  0.00     0.163 HD
BRANCH  11  14
HETATM   14  C   UNK N   1      35.442  10.416  15.947  0.00  0.00     0.142 C 
BRANCH  14  15
HETATM   15  C   UNK N   1      35.368  11.243  17.186  0.00  0.00    -0.042 A 
HETATM   16  C   UNK N   1      35.374  10.640  18.460  0.00  0.00    -0.034 A 
HETATM   17  C   UNK N   1      35.294  11.444  19.602  0.00  0.00     0.009 A 
HETATM   18  C   UNK N   1      35.212  12.834  19.483  0.00  0.00     0.001 A 
HETATM   19  C   UNK N   1      35.201  13.430  18.221  0.00  0.00     0.001 A 
HETATM   20  C   UNK N   1      35.276  12.637  17.075  0.00  0.00     0.008 A 
BRANCH  16  21
HETATM   21  C   UNK N   1      35.445   9.153  18.628  0.00  0.00     0.150 C 
BRANCH  21  22
HETATM   22  N   UNK N   1      34.123   8.604  18.879  0.00  0.00    -0.426 N 
HETATM   23  H   UNK N   1      33.239   8.864  18.441  0.00  0.00     0.150 HD
HETATM   24  H   UNK N   1      34.073   7.866  19.580  0.00  0.00     0.150 HD
ENDBRANCH  21  22
ENDBRANCH  16  21
ENDBRANCH  14  15
ENDBRANCH  11  14
ENDBRANCH   5  10
BRANCH   7  25
HETATM   25  C   UNK N   1      34.288  15.254  10.424  0.00  0.00     0.194 C 
HETATM   26  O   UNK N   1      34.745  16.346  10.134  0.00  0.00    -0.645 OA
BRANCH  25  27
HETATM   27  O   UNK N   1      33.041  15.197  10.915  0.00  0.00    -0.772 OA
HETATM   28  H   UNK N   1      32.641  15.009  11.742  0.00  0.00     0.167 HD
ENDBRANCH  25  27
ENDBRANCH   7  25
BRANCH   8  29
HETATM   29  C   UNK N   1      34.344  13.568   7.831  0.00  0.00     0.120 C 
BRANCH  29  30
HETATM   30  S   UNK N   1      35.061  14.047   6.217  0.00  0.00    -0.087 SA
BRANCH  30  31
HETATM   31  C   UNK N   1      34.554  15.756   6.150  0.00  0.00     0.173 A 
HETATM   32  N   UNK N   1      33.851  16.348   5.174  0.00  0.00    -0.246 N 
HETATM   33  N   UNK N   1      33.639  17.591   5.568  0.00  0.00    -0.004 NA
HETATM   34  N   UNK N   1      34.193  17.761   6.761  0.00  0.00    -0.007 NA
HETATM   35  N   UNK N   1      34.766  16.631   7.147  0.00  0.00    -0.265 N 
ATOM     36  HN  UNK N   1      35.266  16.460   8.020  1.00  0.00     0.186 HD
BRANCH  32  37
HETATM   37  C   UNK N   1      33.389  15.759   3.918  0.00  0.00     0.258 C 
BRANCH  37  38
HETATM   38  C   UNK N   1      32.064  16.313   3.503  0.00  0.00     0.160 C 
HETATM   39  O   UNK N   1      31.041  15.704   3.770  0.00  0.00    -0.649 OA
BRANCH  38  40
HETATM   40  O   UNK N   1      31.997  17.476   2.829  0.00  0.00    -0.775 OA
HETATM   41  H   UNK N   1      32.733  17.926   2.462  0.00  0.00     0.167 HD
ENDBRANCH  38  40
ENDBRANCH  37  38
ENDBRANCH  32  37
ENDBRANCH  30  31
ENDBRANCH  29  30
ENDBRANCH   8  29
TORSDOF 13
ENDMDL
MODEL 6
REMARK VINA RESULT:      -7.3      8.666     11.263
REMARK  13 active torsions:
REMARK  status: ('A' for Active; 'I' for Inactive)
REMARK    1  A    between atoms: S_2  and  C_23 
REMARK    2  A    between atoms: S_2  and  C_30 
REMARK    3  A    between atoms: O_4  and  C_25 
REMARK    4  A    between atoms: O_7  and  C_36 
REMARK    5  A    between atoms: C_18  and  N_10 
REMARK       I    between atoms: N_10  and  C_24 
REMARK    6  A    between atoms: N_11  and  C_35 
REMARK    7  A    between atoms: N_14  and  C_31 
REMARK    8  A    between atoms: C_20  and  C_25 
REMARK    9  A    between atoms: C_21  and  C_23 
REMARK   10  A    between atoms: C_24  and  C_26 
REMARK   11  A    between atoms: C_26  and  C_27 
REMARK   12  A    between atoms: C_28  and  C_31 
REMARK   13  A    between atoms: C_35  and  C_36 
ROOT
HETATM    1  S   UNK N   1      34.417  17.659   7.826  0.00  0.00    -0.136 SA
HETATM    2  O   UNK N   1      32.294  14.213   5.989  0.00  0.00    -0.271 OA
HETATM    3  N   UNK N   1      33.047  15.492   7.722  0.00  0.00    -0.293 N 
HETATM    4  C   UNK N   1      32.800  16.895   7.711  0.00  0.00     0.187 A 
HETATM    5  C   UNK N   1      32.061  16.673   6.284  0.00  0.00     0.210 A 
HETATM    6  C   UNK N   1      32.468  15.270   6.575  0.00  0.00     0.251 A 
HETATM    7  C   UNK N   1      33.675  14.757   8.776  0.00  0.00     0.116 C 
HETATM    8  C   UNK N   1      34.340  15.497   9.726  0.00  0.00    -0.027 C 
HETATM    9  C   UNK N   1      34.509  17.008   9.555  0.00  0.00     0.113 C 
ENDROOT
BRANCH   5  10
HETATM   10  N   UNK N   1      30.610  16.844   6.407  0.00  0.00    -0.345 N 
HETATM   11  C   UNK N   1      29.751  17.225   5.408  0.00  0.00     0.222 C 
HETATM   12  O   UNK N   1      30.158  17.522   4.296  0.00  0.00    -0.273 OA
HETATM   13  H   UNK N   1      30.215  16.670   7.292  0.00  0.00     0.163 HD
BRANCH  11  14
HETATM   14  C   UNK N   1      28.278  17.256   5.654  0.00  0.00     0.142 C 
BRANCH  14  15
HETATM   15  C   UNK N   1      27.755  18.653   5.650  0.00  0.00    -0.042 A 
HETATM   16  C   UNK N   1      27.860  19.470   6.794  0.00  0.00    -0.034 A 
HETATM   17  C   UNK N   1      27.350  20.771   6.760  0.00  0.00     0.009 A 
HETATM   18  C   UNK N   1      26.743  21.262   5.600  0.00  0.00     0.001 A 
HETATM   19  C   UNK N   1      26.634  20.451   4.469  0.00  0.00     0.001 A 
HETATM   20  C   UNK N   1      27.136  19.149   4.494  0.00  0.00     0.008 A 
BRANCH  16  21
HETATM   21  C   UNK N   1      28.489  18.975   8.060  0.00  0.00     0.150 C 
BRANCH  21  22
HETATM   22  N   UNK N   1      27.475  18.467   8.969  0.00  0.00    -0.426 N 
HETATM   23  H   UNK N   1      26.792  17.728   8.804  0.00  0.00     0.150 HD
HETATM   24  H   UNK N   1      27.442  18.906   9.889  0.00  0.00     0.150 HD
ENDBRANCH  21  22
ENDBRANCH  16  21
ENDBRANCH  14  15
ENDBRANCH  11  14
ENDBRANCH   5  10
BRANCH   7  25
HETATM   25  C   UNK N   1      33.510  13.266   8.839  0.00  0.00     0.194 C 
HETATM   26  O   UNK N   1      34.365  12.536   8.368  0.00  0.00    -0.645 OA
BRANCH  25  27
HETATM   27  O   UNK N   1      32.431  12.700   9.401  0.00  0.00    -0.772 OA
HETATM   28  H   UNK N   1      31.508  12.866   9.425  0.00  0.00     0.167 HD
ENDBRANCH  25  27
ENDBRANCH   7  25
BRANCH   8  29
HETATM   29  C   UNK N   1      34.851  14.968  11.047  0.00  0.00     0.120 C 
BRANCH  29  30
HETATM   30  S   UNK N   1      36.390  13.987  11.183  0.00  0.00    -0.087 SA
BRANCH  30  31
HETATM   31  C   UNK N   1      36.445  13.743  12.950  0.00  0.00     0.173 A 
HETATM   32  N   UNK N   1      36.294  12.585  13.606  0.00  0.00    -0.246 N 
HETATM   33  N   UNK N   1      36.482  12.853  14.886  0.00  0.00    -0.004 NA
HETATM   34  N   UNK N   1      36.749  14.146  15.016  0.00  0.00    -0.007 NA
HETATM   35  N   UNK N   1      36.736  14.722  13.823  0.00  0.00    -0.265 N 
ATOM     36  HN  UNK N   1      36.910  15.704  13.611  1.00  0.00     0.186 HD
BRANCH  32  37
HETATM   37  C   UNK N   1      35.989  11.270  13.045  0.00  0.00     0.258 C 
BRANCH  37  38
HETATM   38  C   UNK N   1      34.517  11.071  12.871  0.00  0.00     0.160 C 
HETATM   39  O   UNK N   1      33.827  10.773  13.831  0.00  0.00    -0.649 OA
BRANCH  38  40
HETATM   40  O   UNK N   1      33.954  11.213  11.656  0.00  0.00    -0.775 OA
HETATM   41  H   UNK N   1      33.236  10.704  11.336  0.00  0.00     0.167 HD
ENDBRANCH  38  40
ENDBRANCH  37  38
ENDBRANCH  32  37
ENDBRANCH  30  31
ENDBRANCH  29  30
ENDBRANCH   8  29
TORSDOF 13
ENDMDL
MODEL 7
REMARK VINA RESULT:      -7.3     11.576     15.714
REMARK  13 active torsions:
REMARK  status: ('A' for Active; 'I' for Inactive)
REMARK    1  A    between atoms: S_2  and  C_23 
REMARK    2  A    between atoms: S_2  and  C_30 
REMARK    3  A    between atoms: O_4  and  C_25 
REMARK    4  A    between atoms: O_7  and  C_36 
REMARK    5  A    between atoms: C_18  and  N_10 
REMARK       I    between atoms: N_10  and  C_24 
REMARK    6  A    between atoms: N_11  and  C_35 
REMARK    7  A    between atoms: N_14  and  C_31 
REMARK    8  A    between atoms: C_20  and  C_25 
REMARK    9  A    between atoms: C_21  and  C_23 
REMARK   10  A    between atoms: C_24  and  C_26 
REMARK   11  A    between atoms: C_26  and  C_27 
REMARK   12  A    between atoms: C_28  and  C_31 
REMARK   13  A    between atoms: C_35  and  C_36 
ROOT
HETATM    1  S   UNK N   1      37.277  11.460  10.261  0.00  0.00    -0.136 SA
HETATM    2  O   UNK N   1      35.986  14.338  13.392  0.00  0.00    -0.271 OA
HETATM    3  N   UNK N   1      35.693  12.998  11.568  0.00  0.00    -0.293 N 
HETATM    4  C   UNK N   1      36.128  11.642  11.624  0.00  0.00     0.187 A 
HETATM    5  C   UNK N   1      36.638  11.951  13.133  0.00  0.00     0.210 A 
HETATM    6  C   UNK N   1      36.094  13.291  12.775  0.00  0.00     0.251 A 
HETATM    7  C   UNK N   1      35.000  13.615  10.480  0.00  0.00     0.116 C 
HETATM    8  C   UNK N   1      34.999  12.929   9.288  0.00  0.00    -0.027 C 
HETATM    9  C   UNK N   1      35.830  11.654   9.125  0.00  0.00     0.113 C 
ENDROOT
BRANCH   5  10
HETATM   10  N   UNK N   1      35.791  11.280  14.125  0.00  0.00    -0.345 N 
HETATM   11  C   UNK N   1      36.226  10.601  15.235  0.00  0.00     0.222 C 
HETATM   12  O   UNK N   1      37.415  10.447  15.463  0.00  0.00    -0.273 OA
HETATM   13  H   UNK N   1      34.818  11.319  13.980  0.00  0.00     0.163 HD
BRANCH  11  14
HETATM   14  C   UNK N   1      35.241  10.055  16.216  0.00  0.00     0.142 C 
BRANCH  14  15
HETATM   15  C   UNK N   1      35.437  10.646  17.571  0.00  0.00    -0.042 A 
HETATM   16  C   UNK N   1      35.218  12.020  17.801  0.00  0.00    -0.034 A 
HETATM   17  C   UNK N   1      35.422  12.543  19.082  0.00  0.00     0.009 A 
HETATM   18  C   UNK N   1      35.836  11.714  20.127  0.00  0.00     0.001 A 
HETATM   19  C   UNK N   1      36.058  10.355  19.897  0.00  0.00     0.001 A 
HETATM   20  C   UNK N   1      35.863   9.823  18.623  0.00  0.00     0.008 A 
BRANCH  16  21
HETATM   21  C   UNK N   1      34.790  12.944  16.703  0.00  0.00     0.150 C 
BRANCH  21  22
HETATM   22  N   UNK N   1      35.818  13.936  16.440  0.00  0.00    -0.426 N 
HETATM   23  H   UNK N   1      36.782  13.949  16.774  0.00  0.00     0.150 HD
HETATM   24  H   UNK N   1      35.542  14.718  15.847  0.00  0.00     0.150 HD
ENDBRANCH  21  22
ENDBRANCH  16  21
ENDBRANCH  14  15
ENDBRANCH  11  14
ENDBRANCH   5  10
BRANCH   7  25
HETATM   25  C   UNK N   1      34.258  14.900  10.709  0.00  0.00     0.194 C 
HETATM   26  O   UNK N   1      34.841  15.966  10.624  0.00  0.00    -0.645 OA
BRANCH  25  27
HETATM   27  O   UNK N   1      32.952  14.913  11.016  0.00  0.00    -0.772 OA
HETATM   28  H   UNK N   1      32.145  14.732  10.574  0.00  0.00     0.167 HD
ENDBRANCH  25  27
ENDBRANCH   7  25
BRANCH   8  29
HETATM   29  C   UNK N   1      34.132  13.254   8.093  0.00  0.00     0.120 C 
BRANCH  29  30
HETATM   30  S   UNK N   1      34.565  14.565   6.893  0.00  0.00    -0.087 SA
BRANCH  30  31
HETATM   31  C   UNK N   1      33.013  15.443   6.823  0.00  0.00     0.173 A 
HETATM   32  N   UNK N   1      32.844  16.771   6.745  0.00  0.00    -0.246 N 
HETATM   33  N   UNK N   1      31.543  16.976   6.641  0.00  0.00    -0.004 NA
HETATM   34  N   UNK N   1      30.924  15.802   6.649  0.00  0.00    -0.007 NA
HETATM   35  N   UNK N   1      31.819  14.832   6.757  0.00  0.00    -0.265 N 
ATOM     36  HN  UNK N   1      31.640  13.828   6.784  1.00  0.00     0.186 HD
BRANCH  32  37
HETATM   37  C   UNK N   1      33.873  17.808   6.762  0.00  0.00     0.258 C 
BRANCH  37  38
HETATM   38  C   UNK N   1      34.119  18.321   8.145  0.00  0.00     0.160 C 
HETATM   39  O   UNK N   1      35.059  19.069   8.357  0.00  0.00    -0.649 OA
BRANCH  38  40
HETATM   40  O   UNK N   1      33.309  17.954   9.156  0.00  0.00    -0.775 OA
HETATM   41  H   UNK N   1      32.500  17.494   9.055  0.00  0.00     0.167 HD
ENDBRANCH  38  40
ENDBRANCH  37  38
ENDBRANCH  32  37
ENDBRANCH  30  31
ENDBRANCH  29  30
ENDBRANCH   8  29
TORSDOF 13
ENDMDL
MODEL 8
REMARK VINA RESULT:      -7.2     10.184     14.530
REMARK  13 active torsions:
REMARK  status: ('A' for Active; 'I' for Inactive)
REMARK    1  A    between atoms: S_2  and  C_23 
REMARK    2  A    between atoms: S_2  and  C_30 
REMARK    3  A    between atoms: O_4  and  C_25 
REMARK    4  A    between atoms: O_7  and  C_36 
REMARK    5  A    between atoms: C_18  and  N_10 
REMARK       I    between atoms: N_10  and  C_24 
REMARK    6  A    between atoms: N_11  and  C_35 
REMARK    7  A    between atoms: N_14  and  C_31 
REMARK    8  A    between atoms: C_20  and  C_25 
REMARK    9  A    between atoms: C_21  and  C_23 
REMARK   10  A    between atoms: C_24  and  C_26 
REMARK   11  A    between atoms: C_26  and  C_27 
REMARK   12  A    between atoms: C_28  and  C_31 
REMARK   13  A    between atoms: C_35  and  C_36 
ROOT
HETATM    1  S   UNK N   1      34.805  12.121   8.475  0.00  0.00    -0.136 SA
HETATM    2  O   UNK N   1      36.814  13.663  12.127  0.00  0.00    -0.271 OA
HETATM    3  N   UNK N   1      35.271  13.695  10.447  0.00  0.00    -0.293 N 
HETATM    4  C   UNK N   1      34.494  12.528  10.192  0.00  0.00     0.187 A 
HETATM    5  C   UNK N   1      35.313  11.817  11.399  0.00  0.00     0.210 A 
HETATM    6  C   UNK N   1      35.957  13.160  11.419  0.00  0.00     0.251 A 
HETATM    7  C   UNK N   1      35.134  14.957   9.788  0.00  0.00     0.116 C 
HETATM    8  C   UNK N   1      34.387  14.966   8.633  0.00  0.00    -0.027 C 
HETATM    9  C   UNK N   1      33.873  13.657   8.030  0.00  0.00     0.113 C 
ENDROOT
BRANCH   5  10
HETATM   10  N   UNK N   1      34.457  11.618  12.573  0.00  0.00    -0.345 N 
HETATM   11  C   UNK N   1      34.544  10.587  13.473  0.00  0.00     0.222 C 
HETATM   12  O   UNK N   1      35.344   9.677  13.326  0.00  0.00    -0.273 OA
HETATM   13  H   UNK N   1      33.754  12.288  12.730  0.00  0.00     0.163 HD
BRANCH  11  14
HETATM   14  C   UNK N   1      33.670  10.571  14.684  0.00  0.00     0.142 C 
BRANCH  14  15
HETATM   15  C   UNK N   1      34.477  10.559  15.939  0.00  0.00    -0.042 A 
HETATM   16  C   UNK N   1      34.961  11.758  16.500  0.00  0.00    -0.034 A 
HETATM   17  C   UNK N   1      35.724  11.711  17.671  0.00  0.00     0.009 A 
HETATM   18  C   UNK N   1      36.003  10.486  18.284  0.00  0.00     0.001 A 
HETATM   19  C   UNK N   1      35.528   9.298  17.724  0.00  0.00     0.001 A 
HETATM   20  C   UNK N   1      34.770   9.334  16.554  0.00  0.00     0.008 A 
BRANCH  16  21
HETATM   21  C   UNK N   1      34.697  13.089  15.864  0.00  0.00     0.150 C 
BRANCH  21  22
HETATM   22  N   UNK N   1      35.870  13.550  15.140  0.00  0.00    -0.426 N 
HETATM   23  H   UNK N   1      36.838  13.248  15.249  0.00  0.00     0.150 HD
HETATM   24  H   UNK N   1      35.704  14.266  14.433  0.00  0.00     0.150 HD
ENDBRANCH  21  22
ENDBRANCH  16  21
ENDBRANCH  14  15
ENDBRANCH  11  14
ENDBRANCH   5  10
BRANCH   7  25
HETATM   25  C   UNK N   1      35.720  16.188  10.417  0.00  0.00     0.194 C 
HETATM   26  O   UNK N   1      35.020  17.164  10.620  0.00  0.00    -0.645 OA
BRANCH  25  27
HETATM   27  O   UNK N   1      37.015  16.252  10.762  0.00  0.00    -0.772 OA
HETATM   28  H   UNK N   1      37.558  15.904  11.442  0.00  0.00     0.167 HD
ENDBRANCH  25  27
ENDBRANCH   7  25
BRANCH   8  29
HETATM   29  C   UNK N   1      33.899  16.205   7.917  0.00  0.00     0.120 C 
BRANCH  29  30
HETATM   30  S   UNK N   1      32.476  16.180   6.767  0.00  0.00    -0.087 SA
BRANCH  30  31
HETATM   31  C   UNK N   1      31.333  17.211   7.668  0.00  0.00     0.173 A 
HETATM   32  N   UNK N   1      30.094  17.558   7.291  0.00  0.00    -0.246 N 
HETATM   33  N   UNK N   1      29.585  18.263   8.285  0.00  0.00    -0.004 NA
HETATM   34  N   UNK N   1      30.486  18.344   9.257  0.00  0.00    -0.007 NA
HETATM   35  N   UNK N   1      31.582  17.693   8.897  0.00  0.00    -0.265 N 
ATOM     36  HN  UNK N   1      32.438  17.581   9.440  1.00  0.00     0.186 HD
BRANCH  32  37
HETATM   37  C   UNK N   1      29.414  17.231   6.040  0.00  0.00     0.258 C 
BRANCH  37  38
HETATM   38  C   UNK N   1      28.154  18.020   5.873  0.00  0.00     0.160 C 
HETATM   39  O   UNK N   1      28.136  18.983   5.125  0.00  0.00    -0.649 OA
BRANCH  38  40
HETATM   40  O   UNK N   1      27.044  17.674   6.551  0.00  0.00    -0.775 OA
HETATM   41  H   UNK N   1      26.420  17.034   6.269  0.00  0.00     0.167 HD
ENDBRANCH  38  40
ENDBRANCH  37  38
ENDBRANCH  32  37
ENDBRANCH  30  31
ENDBRANCH  29  30
ENDBRANCH   8  29
TORSDOF 13
ENDMDL
MODEL 9
REMARK VINA RESULT:      -7.2      2.490      3.125
REMARK  13 active torsions:
REMARK  status: ('A' for Active; 'I' for Inactive)
REMARK    1  A    between atoms: S_2  and  C_23 
REMARK    2  A    between atoms: S_2  and  C_30 
REMARK    3  A    between atoms: O_4  and  C_25 
REMARK    4  A    between atoms: O_7  and  C_36 
REMARK    5  A    between atoms: C_18  and  N_10 
REMARK       I    between atoms: N_10  and  C_24 
REMARK    6  A    between atoms: N_11  and  C_35 
REMARK    7  A    between atoms: N_14  and  C_31 
REMARK    8  A    between atoms: C_20  and  C_25 
REMARK    9  A    between atoms: C_21  and  C_23 
REMARK   10  A    between atoms: C_24  and  C_26 
REMARK   11  A    between atoms: C_26  and  C_27 
REMARK   12  A    between atoms: C_28  and  C_31 
REMARK   13  A    between atoms: C_35  and  C_36 
ROOT
HETATM    1  S   UNK N   1      22.374  15.748   3.188  0.00  0.00    -0.136 SA
HETATM    2  O   UNK N   1      21.573  18.404   6.661  0.00  0.00    -0.271 OA
HETATM    3  N   UNK N   1      22.192  16.455   5.647  0.00  0.00    -0.293 N 
HETATM    4  C   UNK N   1      23.171  16.489   4.612  0.00  0.00     0.187 A 
HETATM    5  C   UNK N   1      23.220  18.097   4.820  0.00  0.00     0.210 A 
HETATM    6  C   UNK N   1      22.196  17.745   5.843  0.00  0.00     0.251 A 
HETATM    7  C   UNK N   1      21.586  15.281   6.194  0.00  0.00     0.116 C 
HETATM    8  C   UNK N   1      21.752  14.118   5.478  0.00  0.00    -0.027 C 
HETATM    9  C   UNK N   1      22.422  14.141   4.102  0.00  0.00     0.113 C 
ENDROOT
BRANCH   5  10
HETATM   10  N   UNK N   1      24.480  18.511   5.447  0.00  0.00    -0.345 N 
HETATM   11  C   UNK N   1      25.312  19.510   5.012  0.00  0.00     0.222 C 
HETATM   12  O   UNK N   1      25.084  20.126   3.982  0.00  0.00    -0.273 OA
HETATM   13  H   UNK N   1      24.755  18.024   6.257  0.00  0.00     0.163 HD
BRANCH  11  14
HETATM   14  C   UNK N   1      26.513  19.891   5.813  0.00  0.00     0.142 C 
BRANCH  14  15
HETATM   15  C   UNK N   1      27.610  18.892   5.660  0.00  0.00    -0.042 A 
HETATM   16  C   UNK N   1      28.383  18.490   6.767  0.00  0.00    -0.034 A 
HETATM   17  C   UNK N   1      29.411  17.558   6.587  0.00  0.00     0.009 A 
HETATM   18  C   UNK N   1      29.668  17.026   5.320  0.00  0.00     0.001 A 
HETATM   19  C   UNK N   1      28.905  17.429   4.223  0.00  0.00     0.001 A 
HETATM   20  C   UNK N   1      27.881  18.361   4.391  0.00  0.00     0.008 A 
BRANCH  16  21
HETATM   21  C   UNK N   1      28.149  19.049   8.137  0.00  0.00     0.150 C 
BRANCH  21  22
HETATM   22  N   UNK N   1      27.624  18.025   9.024  0.00  0.00    -0.426 N 
HETATM   23  H   UNK N   1      27.938  17.783   9.964  0.00  0.00     0.150 HD
HETATM   24  H   UNK N   1      26.842  17.480   8.662  0.00  0.00     0.150 HD
ENDBRANCH  21  22
ENDBRANCH  16  21
ENDBRANCH  14  15
ENDBRANCH  11  14
ENDBRANCH   5  10
BRANCH   7  25
HETATM   25  C   UNK N   1      20.894  15.355   7.524  0.00  0.00     0.194 C 
HETATM   26  O   UNK N   1      19.705  15.618   7.580  0.00  0.00    -0.645 OA
BRANCH  25  27
HETATM   27  O   UNK N   1      21.553  15.146   8.673  0.00  0.00    -0.772 OA
HETATM   28  H   UNK N   1      21.332  15.054   9.580  0.00  0.00     0.167 HD
ENDBRANCH  25  27
ENDBRANCH   7  25
BRANCH   8  29
HETATM   29  C   UNK N   1      21.426  12.729   5.979  0.00  0.00     0.120 C 
BRANCH  29  30
HETATM   30  S   UNK N   1      22.722  11.503   6.390  0.00  0.00    -0.087 SA
BRANCH  30  31
HETATM   31  C   UNK N   1      23.556  12.366   7.709  0.00  0.00     0.173 A 
HETATM   32  N   UNK N   1      24.680  13.091   7.612  0.00  0.00    -0.246 N 
HETATM   33  N   UNK N   1      24.897  13.606   8.808  0.00  0.00    -0.004 NA
HETATM   34  N   UNK N   1      23.927  13.214   9.625  0.00  0.00    -0.007 NA
HETATM   35  N   UNK N   1      23.077  12.444   8.962  0.00  0.00    -0.265 N 
ATOM     36  HN  UNK N   1      22.234  12.001   9.327  1.00  0.00     0.186 HD
BRANCH  32  37
HETATM   37  C   UNK N   1      25.515  13.294   6.430  0.00  0.00     0.258 C 
BRANCH  37  38
HETATM   38  C   UNK N   1      26.065  14.684   6.375  0.00  0.00     0.160 C 
HETATM   39  O   UNK N   1      27.146  14.889   5.847  0.00  0.00    -0.649 OA
BRANCH  38  40
HETATM   40  O   UNK N   1      25.375  15.707   6.912  0.00  0.00    -0.775 OA
HETATM   41  H   UNK N   1      25.440  16.600   6.638  0.00  0.00     0.167 HD
ENDBRANCH  38  40
ENDBRANCH  37  38
ENDBRANCH  32  37
ENDBRANCH  30  31
ENDBRANCH  29  30
ENDBRANCH   8  29
TORSDOF 13
ENDMDL
