MODEL 1
REMARK VINA RESULT:      -6.9      0.000      0.000
REMARK  3 active torsions:
REMARK  status: ('A' for Active; 'I' for Inactive)
REMARK    1  A    between atoms: N_1  and  C_7 
REMARK    2  A    between atoms: C_5  and  C_6 
REMARK    3  A    between atoms: C_5  and  C_7 
ROOT
HETATM    1  C   UNK N   1      31.617  17.437   6.991  0.00  0.00    -0.018 C 
HETATM    2  C   UNK N   1      30.301  17.571   7.743  0.00  0.00    -0.015 A 
HETATM    3  C   UNK N   1      31.787  17.136   5.501  0.00  0.00    -0.015 A 
HETATM    4  C   UNK N   1      32.720  17.639   7.782  0.00  0.00    -0.012 C 
HETATM    5  C   UNK N   1      28.998  17.249   7.269  0.00  0.00    -0.025 A 
HETATM    6  C   UNK N   1      30.766  16.734   4.589  0.00  0.00    -0.025 A 
HETATM    7  C   UNK N   1      28.647  16.704   5.969  0.00  0.00     0.013 C 
HETATM    8  C   UNK N   1      29.364  16.496   4.885  0.00  0.00     0.013 C 
HETATM    9  C   UNK N   1      30.387  18.066   9.072  0.00  0.00     0.013 A 
HETATM   10  C   UNK N   1      33.079  17.286   4.954  0.00  0.00     0.013 A 
HETATM   11  C   UNK N   1      27.887  17.427   8.108  0.00  0.00     0.012 A 
HETATM   12  C   UNK N   1      31.084  16.508   3.240  0.00  0.00     0.012 A 
HETATM   13  C   UNK N   1      29.270  18.243   9.883  0.00  0.00     0.001 A 
HETATM   14  C   UNK N   1      33.376  17.067   3.613  0.00  0.00     0.001 A 
HETATM   15  C   UNK N   1      28.015  17.923   9.398  0.00  0.00     0.001 A 
HETATM   16  C   UNK N   1      32.370  16.675   2.751  0.00  0.00     0.001 A 
ENDROOT
BRANCH   4  17
HETATM   17  C   UNK N   1      34.184  17.564   7.457  0.00  0.00     0.058 C 
BRANCH  17  18
HETATM   18  C   UNK N   1      34.856  16.421   8.223  0.00  0.00     0.275 C 
BRANCH  18  19
HETATM   19  N   UNK N   1      34.353  16.265   9.593  0.00  0.00     0.080 N 
HETATM   20  C   UNK N   1      33.999  14.876   9.835  0.00  0.00     0.309 C 
HETATM   21  C   UNK N   1      35.358  16.663  10.571  0.00  0.00     0.309 C 
ENDBRANCH  18  19
ENDBRANCH  17  18
ENDBRANCH   4  17
TORSDOF 3
ENDMDL
MODEL 2
REMARK VINA RESULT:      -6.7      6.802     11.079
REMARK  3 active torsions:
REMARK  status: ('A' for Active; 'I' for Inactive)
REMARK    1  A    between atoms: N_1  and  C_7 
REMARK    2  A    between atoms: C_5  and  C_6 
REMARK    3  A    between atoms: C_5  and  C_7 
ROOT
HETATM    1  C   UNK N   1      35.349  11.987  15.063  0.00  0.00    -0.018 C 
HETATM    2  C   UNK N   1      35.343  12.105  16.579  0.00  0.00    -0.015 A 
HETATM    3  C   UNK N   1      35.304  10.691  14.250  0.00  0.00    -0.015 A 
HETATM    4  C   UNK N   1      35.379  13.200  14.421  0.00  0.00    -0.012 C 
HETATM    5  C   UNK N   1      35.496  11.055  17.529  0.00  0.00    -0.025 A 
HETATM    6  C   UNK N   1      35.444   9.363  14.753  0.00  0.00    -0.025 A 
HETATM    7  C   UNK N   1      35.711   9.646  17.251  0.00  0.00     0.013 C 
HETATM    8  C   UNK N   1      35.689   8.962  16.127  0.00  0.00     0.013 C 
HETATM    9  C   UNK N   1      35.173  13.414  17.105  0.00  0.00     0.013 A 
HETATM   10  C   UNK N   1      35.081  10.805  12.861  0.00  0.00     0.013 A 
HETATM   11  C   UNK N   1      35.474  11.348  18.901  0.00  0.00     0.012 A 
HETATM   12  C   UNK N   1      35.363   8.272  13.873  0.00  0.00     0.012 A 
HETATM   13  C   UNK N   1      35.145  13.680  18.471  0.00  0.00     0.001 A 
HETATM   14  C   UNK N   1      34.995   9.714  12.005  0.00  0.00     0.001 A 
HETATM   15  C   UNK N   1      35.296  12.642  19.372  0.00  0.00     0.001 A 
HETATM   16  C   UNK N   1      35.137   8.438  12.515  0.00  0.00     0.001 A 
ENDROOT
BRANCH   4  17
HETATM   17  C   UNK N   1      35.433  13.531  12.957  0.00  0.00     0.058 C 
BRANCH  17  18
HETATM   18  C   UNK N   1      36.012  14.931  12.734  0.00  0.00     0.275 C 
BRANCH  18  19
HETATM   19  N   UNK N   1      36.163  15.278  11.316  0.00  0.00     0.080 N 
HETATM   20  C   UNK N   1      35.740  14.162  10.486  0.00  0.00     0.309 C 
HETATM   21  C   UNK N   1      35.360  16.444  10.971  0.00  0.00     0.309 C 
ENDBRANCH  18  19
ENDBRANCH  17  18
ENDBRANCH   4  17
TORSDOF 3
ENDMDL
MODEL 3
REMARK VINA RESULT:      -6.7      7.295     12.012
REMARK  3 active torsions:
REMARK  status: ('A' for Active; 'I' for Inactive)
REMARK    1  A    between atoms: N_1  and  C_7 
REMARK    2  A    between atoms: C_5  and  C_6 
REMARK    3  A    between atoms: C_5  and  C_7 
ROOT
HETATM    1  C   UNK N   1      35.933  12.061  15.975  0.00  0.00    -0.018 C 
HETATM    2  C   UNK N   1      35.488  10.992  16.962  0.00  0.00    -0.015 A 
HETATM    3  C   UNK N   1      36.274  13.516  16.303  0.00  0.00    -0.015 A 
HETATM    4  C   UNK N   1      36.040  11.604  14.685  0.00  0.00    -0.012 C 
HETATM    5  C   UNK N   1      35.110  11.174  18.322  0.00  0.00    -0.025 A 
HETATM    6  C   UNK N   1      36.053  14.186  17.543  0.00  0.00    -0.025 A 
HETATM    7  C   UNK N   1      35.050  12.425  19.055  0.00  0.00     0.013 C 
HETATM    8  C   UNK N   1      35.432  13.645  18.739  0.00  0.00     0.013 C 
HETATM    9  C   UNK N   1      35.437   9.662  16.462  0.00  0.00     0.013 A 
HETATM   10  C   UNK N   1      36.890  14.281  15.289  0.00  0.00     0.013 A 
HETATM   11  C   UNK N   1      34.714  10.067  19.089  0.00  0.00     0.012 A 
HETATM   12  C   UNK N   1      36.438  15.529  17.689  0.00  0.00     0.012 A 
HETATM   13  C   UNK N   1      35.050   8.578  17.245  0.00  0.00     0.001 A 
HETATM   14  C   UNK N   1      37.274  15.607  15.453  0.00  0.00     0.001 A 
HETATM   15  C   UNK N   1      34.687   8.783  18.564  0.00  0.00     0.001 A 
HETATM   16  C   UNK N   1      37.045  16.235  16.662  0.00  0.00     0.001 A 
ENDROOT
BRANCH   4  17
HETATM   17  C   UNK N   1      36.403  12.324  13.419  0.00  0.00     0.058 C 
BRANCH  17  18
HETATM   18  C   UNK N   1      35.160  12.588  12.564  0.00  0.00     0.275 C 
BRANCH  18  19
HETATM   19  N   UNK N   1      35.441  13.378  11.359  0.00  0.00     0.080 N 
HETATM   20  C   UNK N   1      34.662  14.605  11.379  0.00  0.00     0.309 C 
HETATM   21  C   UNK N   1      36.854  13.728  11.277  0.00  0.00     0.309 C 
ENDBRANCH  18  19
ENDBRANCH  17  18
ENDBRANCH   4  17
TORSDOF 3
ENDMDL
MODEL 4
REMARK VINA RESULT:      -6.5     12.349     14.675
REMARK  3 active torsions:
REMARK  status: ('A' for Active; 'I' for Inactive)
REMARK    1  A    between atoms: N_1  and  C_7 
REMARK    2  A    between atoms: C_5  and  C_6 
REMARK    3  A    between atoms: C_5  and  C_7 
ROOT
HETATM    1  C   UNK N   1      27.744  24.175  -4.839  0.00  0.00    -0.018 C 
HETATM    2  C   UNK N   1      26.830  25.391  -4.863  0.00  0.00    -0.015 A 
HETATM    3  C   UNK N   1      27.991  23.199  -5.992  0.00  0.00    -0.015 A 
HETATM    4  C   UNK N   1      28.397  24.006  -3.643  0.00  0.00    -0.012 C 
HETATM    5  C   UNK N   1      25.886  25.744  -5.869  0.00  0.00    -0.025 A 
HETATM    6  C   UNK N   1      27.272  23.133  -7.223  0.00  0.00    -0.025 A 
HETATM    7  C   UNK N   1      25.579  25.006  -7.081  0.00  0.00     0.013 C 
HETATM    8  C   UNK N   1      26.141  23.949  -7.628  0.00  0.00     0.013 C 
HETATM    9  C   UNK N   1      26.926  26.268  -3.749  0.00  0.00     0.013 A 
HETATM   10  C   UNK N   1      29.049  22.277  -5.844  0.00  0.00     0.013 A 
HETATM   11  C   UNK N   1      25.114  26.906  -5.722  0.00  0.00     0.012 A 
HETATM   12  C   UNK N   1      27.634  22.183  -8.191  0.00  0.00     0.012 A 
HETATM   13  C   UNK N   1      26.156  27.421  -3.630  0.00  0.00     0.001 A 
HETATM   14  C   UNK N   1      29.400  21.349  -6.817  0.00  0.00     0.001 A 
HETATM   15  C   UNK N   1      25.246  27.741  -4.621  0.00  0.00     0.001 A 
HETATM   16  C   UNK N   1      28.687  21.302  -7.999  0.00  0.00     0.001 A 
ENDROOT
BRANCH   4  17
HETATM   17  C   UNK N   1      29.342  22.932  -3.189  0.00  0.00     0.058 C 
BRANCH  17  18
HETATM   18  C   UNK N   1      30.711  23.522  -2.836  0.00  0.00     0.275 C 
BRANCH  18  19
HETATM   19  N   UNK N   1      31.832  22.650  -3.205  0.00  0.00     0.080 N 
HETATM   20  C   UNK N   1      31.377  21.273  -3.304  0.00  0.00     0.309 C 
HETATM   21  C   UNK N   1      32.404  23.042  -4.487  0.00  0.00     0.309 C 
ENDBRANCH  18  19
ENDBRANCH  17  18
ENDBRANCH   4  17
TORSDOF 3
ENDMDL
MODEL 5
REMARK VINA RESULT:      -6.5      3.455      6.338
REMARK  3 active torsions:
REMARK  status: ('A' for Active; 'I' for Inactive)
REMARK    1  A    between atoms: N_1  and  C_7 
REMARK    2  A    between atoms: C_5  and  C_6 
REMARK    3  A    between atoms: C_5  and  C_7 
ROOT
HETATM    1  C   UNK N   1      29.296  17.368   5.507  0.00  0.00    -0.018 C 
HETATM    2  C   UNK N   1      30.133  16.912   6.693  0.00  0.00    -0.015 A 
HETATM    3  C   UNK N   1      28.337  18.560   5.475  0.00  0.00    -0.015 A 
HETATM    4  C   UNK N   1      29.482  16.605   4.381  0.00  0.00    -0.012 C 
HETATM    5  C   UNK N   1      30.044  17.365   8.039  0.00  0.00    -0.025 A 
HETATM    6  C   UNK N   1      27.904  19.338   6.590  0.00  0.00    -0.025 A 
HETATM    7  C   UNK N   1      29.119  18.348   8.575  0.00  0.00     0.013 C 
HETATM    8  C   UNK N   1      28.253  19.146   7.987  0.00  0.00     0.013 C 
HETATM    9  C   UNK N   1      31.109  15.915   6.423  0.00  0.00     0.013 A 
HETATM   10  C   UNK N   1      27.836  18.955   4.216  0.00  0.00     0.013 A 
HETATM   11  C   UNK N   1      30.896  16.823   9.014  0.00  0.00     0.012 A 
HETATM   12  C   UNK N   1      27.027  20.415   6.391  0.00  0.00     0.012 A 
HETATM   13  C   UNK N   1      31.950  15.399   7.405  0.00  0.00     0.001 A 
HETATM   14  C   UNK N   1      26.975  20.031   4.035  0.00  0.00     0.001 A 
HETATM   15  C   UNK N   1      31.843  15.856   8.706  0.00  0.00     0.001 A 
HETATM   16  C   UNK N   1      26.567  20.766   5.131  0.00  0.00     0.001 A 
ENDROOT
BRANCH   4  17
HETATM   17  C   UNK N   1      28.836  16.685   3.029  0.00  0.00     0.058 C 
BRANCH  17  18
HETATM   18  C   UNK N   1      27.845  15.534   2.827  0.00  0.00     0.275 C 
BRANCH  18  19
HETATM   19  N   UNK N   1      26.451  15.979   2.726  0.00  0.00     0.080 N 
HETATM   20  C   UNK N   1      25.748  15.182   1.733  0.00  0.00     0.309 C 
HETATM   21  C   UNK N   1      25.760  15.843   4.002  0.00  0.00     0.309 C 
ENDBRANCH  18  19
ENDBRANCH  17  18
ENDBRANCH   4  17
TORSDOF 3
ENDMDL
MODEL 6
REMARK VINA RESULT:      -6.3      7.142     10.145
REMARK  3 active torsions:
REMARK  status: ('A' for Active; 'I' for Inactive)
REMARK    1  A    between atoms: N_1  and  C_7 
REMARK    2  A    between atoms: C_5  and  C_6 
REMARK    3  A    between atoms: C_5  and  C_7 
ROOT
HETATM    1  C   UNK N   1      23.368  17.968   4.538  0.00  0.00    -0.018 C 
HETATM    2  C   UNK N   1      24.712  18.643   4.309  0.00  0.00    -0.015 A 
HETATM    3  C   UNK N   1      22.043  18.323   3.860  0.00  0.00    -0.015 A 
HETATM    4  C   UNK N   1      23.423  16.933   5.438  0.00  0.00    -0.012 C 
HETATM    5  C   UNK N   1      24.964  19.845   3.589  0.00  0.00    -0.025 A 
HETATM    6  C   UNK N   1      21.781  19.464   3.045  0.00  0.00    -0.025 A 
HETATM    7  C   UNK N   1      23.987  20.696   2.933  0.00  0.00     0.013 C 
HETATM    8  C   UNK N   1      22.699  20.541   2.713  0.00  0.00     0.013 C 
HETATM    9  C   UNK N   1      25.841  18.004   4.889  0.00  0.00     0.013 A 
HETATM   10  C   UNK N   1      20.966  17.428   4.034  0.00  0.00     0.013 A 
HETATM   11  C   UNK N   1      26.276  20.333   3.485  0.00  0.00     0.012 A 
HETATM   12  C   UNK N   1      20.508  19.641   2.479  0.00  0.00     0.012 A 
HETATM   13  C   UNK N   1      27.135  18.501   4.764  0.00  0.00     0.001 A 
HETATM   14  C   UNK N   1      19.714  17.613   3.459  0.00  0.00     0.001 A 
HETATM   15  C   UNK N   1      27.352  19.671   4.059  0.00  0.00     0.001 A 
HETATM   16  C   UNK N   1      19.484  18.727   2.677  0.00  0.00     0.001 A 
ENDROOT
BRANCH   4  17
HETATM   17  C   UNK N   1      22.339  16.042   5.972  0.00  0.00     0.058 C 
BRANCH  17  18
HETATM   18  C   UNK N   1      22.915  14.991   6.925  0.00  0.00     0.275 C 
BRANCH  18  19
HETATM   19  N   UNK N   1      21.894  14.333   7.749  0.00  0.00     0.080 N 
HETATM   20  C   UNK N   1      21.065  15.332   8.402  0.00  0.00     0.309 C 
HETATM   21  C   UNK N   1      21.036  13.476   6.939  0.00  0.00     0.309 C 
ENDBRANCH  18  19
ENDBRANCH  17  18
ENDBRANCH   4  17
TORSDOF 3
ENDMDL
MODEL 7
REMARK VINA RESULT:      -6.3      9.081     13.392
REMARK  3 active torsions:
REMARK  status: ('A' for Active; 'I' for Inactive)
REMARK    1  A    between atoms: N_1  and  C_7 
REMARK    2  A    between atoms: C_5  and  C_6 
REMARK    3  A    between atoms: C_5  and  C_7 
ROOT
HETATM    1  C   UNK N   1      35.180  10.086  16.146  0.00  0.00    -0.018 C 
HETATM    2  C   UNK N   1      35.628   8.648  16.358  0.00  0.00    -0.015 A 
HETATM    3  C   UNK N   1      35.193  11.207  17.188  0.00  0.00    -0.015 A 
HETATM    4  C   UNK N   1      34.752  10.342  14.867  0.00  0.00    -0.012 C 
HETATM    5  C   UNK N   1      35.950   8.016  17.592  0.00  0.00    -0.025 A 
HETATM    6  C   UNK N   1      35.439  11.069  18.587  0.00  0.00    -0.025 A 
HETATM    7  C   UNK N   1      35.902   8.605  18.918  0.00  0.00     0.013 C 
HETATM    8  C   UNK N   1      35.695   9.841  19.320  0.00  0.00     0.013 C 
HETATM    9  C   UNK N   1      35.726   7.845  15.190  0.00  0.00     0.013 A 
HETATM   10  C   UNK N   1      34.959  12.521  16.729  0.00  0.00     0.013 A 
HETATM   11  C   UNK N   1      36.339   6.668  17.603  0.00  0.00     0.012 A 
HETATM   12  C   UNK N   1      35.430  12.204  19.412  0.00  0.00     0.012 A 
HETATM   13  C   UNK N   1      36.124   6.511  15.224  0.00  0.00     0.001 A 
HETATM   14  C   UNK N   1      34.964  13.636  17.559  0.00  0.00     0.001 A 
HETATM   15  C   UNK N   1      36.432   5.921  16.436  0.00  0.00     0.001 A 
HETATM   16  C   UNK N   1      35.200  13.476  18.910  0.00  0.00     0.001 A 
ENDROOT
BRANCH   4  17
HETATM   17  C   UNK N   1      34.200  11.596  14.253  0.00  0.00     0.058 C 
BRANCH  17  18
HETATM   18  C   UNK N   1      35.015  12.010  13.025  0.00  0.00     0.275 C 
BRANCH  18  19
HETATM   19  N   UNK N   1      36.331  12.565  13.361  0.00  0.00     0.080 N 
HETATM   20  C   UNK N   1      37.282  12.260  12.305  0.00  0.00     0.309 C 
HETATM   21  C   UNK N   1      36.267  14.012  13.522  0.00  0.00     0.309 C 
ENDBRANCH  18  19
ENDBRANCH  17  18
ENDBRANCH   4  17
TORSDOF 3
ENDMDL
MODEL 8
REMARK VINA RESULT:      -6.2      6.545      9.554
REMARK  3 active torsions:
REMARK  status: ('A' for Active; 'I' for Inactive)
REMARK    1  A    between atoms: N_1  and  C_7 
REMARK    2  A    between atoms: C_5  and  C_6 
REMARK    3  A    between atoms: C_5  and  C_7 
ROOT
HETATM    1  C   UNK N   1      23.448  14.028   8.095  0.00  0.00    -0.018 C 
HETATM    2  C   UNK N   1      23.329  13.279   9.414  0.00  0.00    -0.015 A 
HETATM    3  C   UNK N   1      22.393  14.943   7.469  0.00  0.00    -0.015 A 
HETATM    4  C   UNK N   1      24.653  13.839   7.466  0.00  0.00    -0.012 C 
HETATM    5  C   UNK N   1      22.163  13.117  10.214  0.00  0.00    -0.025 A 
HETATM    6  C   UNK N   1      21.042  15.107   7.901  0.00  0.00    -0.025 A 
HETATM    7  C   UNK N   1      20.830  13.618   9.933  0.00  0.00     0.013 C 
HETATM    8  C   UNK N   1      20.377  14.423   8.996  0.00  0.00     0.013 C 
HETATM    9  C   UNK N   1      24.517  12.665   9.894  0.00  0.00     0.013 A 
HETATM   10  C   UNK N   1      22.788  15.726   6.364  0.00  0.00     0.013 A 
HETATM   11  C   UNK N   1      22.234  12.380  11.406  0.00  0.00     0.012 A 
HETATM   12  C   UNK N   1      20.198  16.002   7.224  0.00  0.00     0.012 A 
HETATM   13  C   UNK N   1      24.565  11.946  11.085  0.00  0.00     0.001 A 
HETATM   14  C   UNK N   1      21.942  16.614   5.711  0.00  0.00     0.001 A 
HETATM   15  C   UNK N   1      23.418  11.804  11.844  0.00  0.00     0.001 A 
HETATM   16  C   UNK N   1      20.637  16.753   6.145  0.00  0.00     0.001 A 
ENDROOT
BRANCH   4  17
HETATM   17  C   UNK N   1      25.160  14.352   6.150  0.00  0.00     0.058 C 
BRANCH  17  18
HETATM   18  C   UNK N   1      26.437  15.177   6.339  0.00  0.00     0.275 C 
BRANCH  18  19
HETATM   19  N   UNK N   1      26.936  15.770   5.093  0.00  0.00     0.080 N 
HETATM   20  C   UNK N   1      25.827  16.026   4.188  0.00  0.00     0.309 C 
HETATM   21  C   UNK N   1      27.626  17.028   5.348  0.00  0.00     0.309 C 
ENDBRANCH  18  19
ENDBRANCH  17  18
ENDBRANCH   4  17
TORSDOF 3
ENDMDL
MODEL 9
REMARK VINA RESULT:      -6.0      6.045      8.533
REMARK  3 active torsions:
REMARK  status: ('A' for Active; 'I' for Inactive)
REMARK    1  A    between atoms: N_1  and  C_7 
REMARK    2  A    between atoms: C_5  and  C_6 
REMARK    3  A    between atoms: C_5  and  C_7 
ROOT
HETATM    1  C   UNK N   1      24.239  17.951   4.563  0.00  0.00    -0.018 C 
HETATM    2  C   UNK N   1      23.119  18.780   3.953  0.00  0.00    -0.015 A 
HETATM    3  C   UNK N   1      25.719  18.333   4.636  0.00  0.00    -0.015 A 
HETATM    4  C   UNK N   1      23.809  16.765   5.103  0.00  0.00    -0.012 C 
HETATM    5  C   UNK N   1      23.247  19.958   3.163  0.00  0.00    -0.025 A 
HETATM    6  C   UNK N   1      26.350  19.432   3.980  0.00  0.00    -0.025 A 
HETATM    7  C   UNK N   1      24.478  20.610   2.754  0.00  0.00     0.013 C 
HETATM    8  C   UNK N   1      25.734  20.396   3.085  0.00  0.00     0.013 C 
HETATM    9  C   UNK N   1      21.797  18.320   4.194  0.00  0.00     0.013 A 
HETATM   10  C   UNK N   1      26.555  17.536   5.448  0.00  0.00     0.013 A 
HETATM   11  C   UNK N   1      22.097  20.594   2.670  0.00  0.00     0.012 A 
HETATM   12  C   UNK N   1      27.724  19.658   4.161  0.00  0.00     0.012 A 
HETATM   13  C   UNK N   1      20.670  18.973   3.702  0.00  0.00     0.001 A 
HETATM   14  C   UNK N   1      27.912  17.779   5.623  0.00  0.00     0.001 A 
HETATM   15  C   UNK N   1      20.822  20.115   2.938  0.00  0.00     0.001 A 
HETATM   16  C   UNK N   1      28.500  18.847   4.975  0.00  0.00     0.001 A 
ENDROOT
BRANCH   4  17
HETATM   17  C   UNK N   1      24.576  15.652   5.756  0.00  0.00     0.058 C 
BRANCH  17  18
HETATM   18  C   UNK N   1      23.742  14.369   5.808  0.00  0.00     0.275 C 
BRANCH  18  19
HETATM   19  N   UNK N   1      23.919  13.610   7.052  0.00  0.00     0.080 N 
HETATM   20  C   UNK N   1      25.164  13.999   7.696  0.00  0.00     0.309 C 
HETATM   21  C   UNK N   1      22.822  13.855   7.980  0.00  0.00     0.309 C 
ENDBRANCH  18  19
ENDBRANCH  17  18
ENDBRANCH   4  17
TORSDOF 3
ENDMDL
