REMARK  3 active torsions:
REMARK  status: ('A' for Active; 'I' for Inactive)
REMARK    1  A    between atoms: N_1  and  C_7 
REMARK    2  A    between atoms: C_5  and  C_6 
REMARK    3  A    between atoms: C_5  and  C_7 
ROOT
HETATM    1  C   UNK N   1       4.145   0.453   0.256  0.00  0.00    -0.018 C 
HETATM    2  C   UNK N   1       5.487   1.167   0.194  0.00  0.00    -0.015 A 
HETATM    3  C   UNK N   1       2.766   1.088   0.063  0.00  0.00    -0.015 A 
HETATM    4  C   UNK N   1       4.254  -0.895   0.491  0.00  0.00    -0.012 C 
HETATM    5  C   UNK N   1       5.718   2.571   0.148  0.00  0.00    -0.025 A 
HETATM    6  C   UNK N   1       2.472   2.482  -0.015  0.00  0.00    -0.025 A 
HETATM    7  C   UNK N   1       4.720   3.625   0.170  0.00  0.00     0.013 C 
HETATM    8  C   UNK N   1       3.406   3.588   0.104  0.00  0.00     0.013 C 
HETATM    9  C   UNK N   1       6.639   0.335   0.190  0.00  0.00     0.013 A 
HETATM   10  C   UNK N   1       1.665   0.216  -0.074  0.00  0.00     0.013 A 
HETATM   11  C   UNK N   1       7.033   3.059   0.103  0.00  0.00     0.012 A 
HETATM   12  C   UNK N   1       1.148   2.906  -0.210  0.00  0.00     0.012 A 
HETATM   13  C   UNK N   1       7.934   0.842   0.135  0.00  0.00     0.001 A 
HETATM   14  C   UNK N   1       0.361   0.652  -0.276  0.00  0.00     0.001 A 
HETATM   15  C   UNK N   1       8.131   2.210   0.091  0.00  0.00     0.001 A 
HETATM   16  C   UNK N   1       0.101   2.007  -0.344  0.00  0.00     0.001 A 
ENDROOT
BRANCH   4  17
HETATM   17  C   UNK N   1       3.196  -1.946   0.663  0.00  0.00     0.058 C 
BRANCH  17  18
HETATM   18  C   UNK N   1       2.799  -2.549  -0.688  0.00  0.00     0.275 C 
BRANCH  18  19
HETATM   19  N   UNK N   1       1.680  -3.494  -0.596  0.00  0.00     0.080 N 
HETATM   20  C   UNK N   1       2.086  -4.670   0.156  0.00  0.00     0.309 C 
HETATM   21  C   UNK N   1       0.534  -2.890   0.072  0.00  0.00     0.309 C 
ENDBRANCH  18  19
ENDBRANCH  17  18
ENDBRANCH   4  17
TORSDOF 3
