MODEL 1
REMARK VINA RESULT:      -5.2      0.000      0.000
REMARK  8 active torsions:
REMARK  status: ('A' for Active; 'I' for Inactive)
REMARK    1  A    between atoms: O_2  and  C_7 
REMARK    2  A    between atoms: O_2  and  C_13 
REMARK    3  A    between atoms: N_3  and  C_4 
REMARK    4  A    between atoms: N_3  and  C_5 
REMARK    5  A    between atoms: N_3  and  C_6 
REMARK    6  A    between atoms: C_4  and  C_7 
REMARK    7  A    between atoms: C_5  and  C_9 
REMARK    8  A    between atoms: C_6  and  C_10 
ROOT
HETATM    1  N   UNK N   1      28.548  24.283  -3.788  0.00  0.00     0.100 N 
ENDROOT
BRANCH   1   2
HETATM    2  C   UNK N   1      29.258  23.890  -5.027  0.00  0.00     0.243 C 
HETATM    3  C   UNK N   1      28.343  23.120  -5.975  0.00  0.00     0.045 C 
BRANCH   2   4
HETATM    4  C   UNK N   1      29.791  25.084  -5.828  0.00  0.00     0.211 C 
BRANCH   4   5
HETATM    5  O   UNK N   1      29.880  26.218  -5.052  0.00  0.00    -0.349 OA
BRANCH   5   6
HETATM    6  C   UNK N   1      29.278  27.390  -5.349  0.00  0.00     0.068 A 
HETATM    7  C   UNK N   1      28.596  27.585  -6.562  0.00  0.00     0.037 A 
HETATM    8  C   UNK N   1      27.995  28.817  -6.840  0.00  0.00     0.003 A 
HETATM    9  C   UNK N   1      28.067  29.857  -5.907  0.00  0.00     0.000 A 
HETATM   10  C   UNK N   1      28.741  29.666  -4.698  0.00  0.00     0.003 A 
HETATM   11  C   UNK N   1      29.349  28.437  -4.423  0.00  0.00     0.037 A 
ENDBRANCH   5   6
ENDBRANCH   4   5
ENDBRANCH   2   4
ENDBRANCH   1   2
BRANCH   1  12
HETATM   12  C   UNK N   1      27.101  24.145  -4.020  0.00  0.00     0.311 C 
BRANCH  12  13
HETATM   13  C   UNK N   1      26.367  25.442  -4.264  0.00  0.00    -0.030 A 
HETATM   14  C   UNK N   1      25.627  25.677  -5.434  0.00  0.00     0.009 A 
HETATM   15  C   UNK N   1      24.997  26.907  -5.638  0.00  0.00     0.001 A 
HETATM   16  C   UNK N   1      25.095  27.909  -4.672  0.00  0.00     0.000 A 
HETATM   17  C   UNK N   1      25.821  27.680  -3.500  0.00  0.00     0.001 A 
HETATM   18  C   UNK N   1      26.458  26.451  -3.300  0.00  0.00     0.009 A 
ENDBRANCH  12  13
ENDBRANCH   1  12
BRANCH   1  19
HETATM   19  C   UNK N   1      28.887  23.324  -2.739  0.00  0.00     0.288 C 
BRANCH  19  20
HETATM   20  C   UNK N   1      30.354  22.944  -2.845  0.00  0.00     0.145 C 
HETATM   21 Cl   UNK N   1      30.494  21.228  -3.281  0.00  0.00    -0.129 Cl
ENDBRANCH  19  20
ENDBRANCH   1  19
TORSDOF 8
ENDMDL
MODEL 2
REMARK VINA RESULT:      -5.1     12.412     15.483
REMARK  8 active torsions:
REMARK  status: ('A' for Active; 'I' for Inactive)
REMARK    1  A    between atoms: O_2  and  C_7 
REMARK    2  A    between atoms: O_2  and  C_13 
REMARK    3  A    between atoms: N_3  and  C_4 
REMARK    4  A    between atoms: N_3  and  C_5 
REMARK    5  A    between atoms: N_3  and  C_6 
REMARK    6  A    between atoms: C_4  and  C_7 
REMARK    7  A    between atoms: C_5  and  C_9 
REMARK    8  A    between atoms: C_6  and  C_10 
ROOT
HETATM    1  N   UNK N   1      28.672  18.446   6.728  0.00  0.00     0.100 N 
ENDROOT
BRANCH   1   2
HETATM    2  C   UNK N   1      28.579  18.534   8.204  0.00  0.00     0.243 C 
HETATM    3  C   UNK N   1      28.012  17.252   8.806  0.00  0.00     0.045 C 
BRANCH   2   4
HETATM    4  C   UNK N   1      29.933  18.761   8.887  0.00  0.00     0.211 C 
BRANCH   4   5
HETATM    5  O   UNK N   1      30.590  17.573   9.119  0.00  0.00    -0.349 OA
BRANCH   5   6
HETATM    6  C   UNK N   1      31.756  17.224   8.535  0.00  0.00     0.068 A 
HETATM    7  C   UNK N   1      32.661  18.187   8.055  0.00  0.00     0.037 A 
HETATM    8  C   UNK N   1      33.853  17.787   7.444  0.00  0.00     0.003 A 
HETATM    9  C   UNK N   1      34.152  16.427   7.315  0.00  0.00     0.000 A 
HETATM   10  C   UNK N   1      33.257  15.466   7.795  0.00  0.00     0.003 A 
HETATM   11  C   UNK N   1      32.061  15.865   8.398  0.00  0.00     0.037 A 
ENDBRANCH   5   6
ENDBRANCH   4   5
ENDBRANCH   2   4
ENDBRANCH   1   2
BRANCH   1  12
HETATM   12  C   UNK N   1      28.666  17.025   6.348  0.00  0.00     0.311 C 
BRANCH  12  13
HETATM   13  C   UNK N   1      29.866  16.573   5.552  0.00  0.00    -0.030 A 
HETATM   14  C   UNK N   1      30.179  15.216   5.370  0.00  0.00     0.009 A 
HETATM   15  C   UNK N   1      31.323  14.842   4.661  0.00  0.00     0.001 A 
HETATM   16  C   UNK N   1      32.161  15.820   4.122  0.00  0.00     0.000 A 
HETATM   17  C   UNK N   1      31.851  17.173   4.290  0.00  0.00     0.001 A 
HETATM   18  C   UNK N   1      30.710  17.546   5.006  0.00  0.00     0.009 A 
ENDBRANCH  12  13
ENDBRANCH   1  12
BRANCH   1  19
HETATM   19  C   UNK N   1      27.458  19.028   6.156  0.00  0.00     0.288 C 
BRANCH  19  20
HETATM   20  C   UNK N   1      27.800  20.316   5.428  0.00  0.00     0.145 C 
HETATM   21 Cl   UNK N   1      27.071  21.693   6.282  0.00  0.00    -0.129 Cl
ENDBRANCH  19  20
ENDBRANCH   1  19
TORSDOF 8
ENDMDL
MODEL 3
REMARK VINA RESULT:      -4.9      2.981      5.537
REMARK  8 active torsions:
REMARK  status: ('A' for Active; 'I' for Inactive)
REMARK    1  A    between atoms: O_2  and  C_7 
REMARK    2  A    between atoms: O_2  and  C_13 
REMARK    3  A    between atoms: N_3  and  C_4 
REMARK    4  A    between atoms: N_3  and  C_5 
REMARK    5  A    between atoms: N_3  and  C_6 
REMARK    6  A    between atoms: C_4  and  C_7 
REMARK    7  A    between atoms: C_5  and  C_9 
REMARK    8  A    between atoms: C_6  and  C_10 
ROOT
HETATM    1  N   UNK N   1      29.298  29.882  -3.569  0.00  0.00     0.100 N 
ENDROOT
BRANCH   1   2
HETATM    2  C   UNK N   1      28.087  30.175  -2.770  0.00  0.00     0.243 C 
HETATM    3  C   UNK N   1      27.077  30.999  -3.564  0.00  0.00     0.045 C 
BRANCH   2   4
HETATM    4  C   UNK N   1      27.339  28.915  -2.312  0.00  0.00     0.211 C 
BRANCH   4   5
HETATM    5  O   UNK N   1      26.192  28.711  -3.046  0.00  0.00    -0.349 OA
BRANCH   5   6
HETATM    6  C   UNK N   1      25.964  27.619  -3.808  0.00  0.00     0.068 A 
HETATM    7  C   UNK N   1      25.190  27.683  -4.980  0.00  0.00     0.037 A 
HETATM    8  C   UNK N   1      24.964  26.528  -5.736  0.00  0.00     0.003 A 
HETATM    9  C   UNK N   1      25.514  25.308  -5.331  0.00  0.00     0.000 A 
HETATM   10  C   UNK N   1      26.287  25.241  -4.169  0.00  0.00     0.003 A 
HETATM   11  C   UNK N   1      26.506  26.393  -3.407  0.00  0.00     0.037 A 
ENDBRANCH   5   6
ENDBRANCH   4   5
ENDBRANCH   2   4
ENDBRANCH   1   2
BRANCH   1  12
HETATM   12  C   UNK N   1      28.984  30.114  -4.987  0.00  0.00     0.311 C 
BRANCH  12  13
HETATM   13  C   UNK N   1      28.797  28.864  -5.812  0.00  0.00    -0.030 A 
HETATM   14  C   UNK N   1      28.036  28.849  -6.992  0.00  0.00     0.009 A 
HETATM   15  C   UNK N   1      27.855  27.660  -7.703  0.00  0.00     0.001 A 
HETATM   16  C   UNK N   1      28.439  26.477  -7.245  0.00  0.00     0.000 A 
HETATM   17  C   UNK N   1      29.208  26.485  -6.078  0.00  0.00     0.001 A 
HETATM   18  C   UNK N   1      29.381  27.675  -5.363  0.00  0.00     0.009 A 
ENDBRANCH  12  13
ENDBRANCH   1  12
BRANCH   1  19
HETATM   19  C   UNK N   1      30.329  30.856  -3.214  0.00  0.00     0.288 C 
BRANCH  19  20
HETATM   20  C   UNK N   1      30.762  30.645  -1.774  0.00  0.00     0.145 C 
HETATM   21 Cl   UNK N   1      31.501  29.038  -1.604  0.00  0.00    -0.129 Cl
ENDBRANCH  19  20
ENDBRANCH   1  19
TORSDOF 8
ENDMDL
MODEL 4
REMARK VINA RESULT:      -4.9      3.895      5.518
REMARK  8 active torsions:
REMARK  status: ('A' for Active; 'I' for Inactive)
REMARK    1  A    between atoms: O_2  and  C_7 
REMARK    2  A    between atoms: O_2  and  C_13 
REMARK    3  A    between atoms: N_3  and  C_4 
REMARK    4  A    between atoms: N_3  and  C_5 
REMARK    5  A    between atoms: N_3  and  C_6 
REMARK    6  A    between atoms: C_4  and  C_7 
REMARK    7  A    between atoms: C_5  and  C_9 
REMARK    8  A    between atoms: C_6  and  C_10 
ROOT
HETATM    1  N   UNK N   1      26.331  25.591  -9.215  0.00  0.00     0.100 N 
ENDROOT
BRANCH   1   2
HETATM    2  C   UNK N   1      27.109  24.343  -9.390  0.00  0.00     0.243 C 
HETATM    3  C   UNK N   1      28.610  24.600  -9.289  0.00  0.00     0.045 C 
BRANCH   2   4
HETATM    4  C   UNK N   1      26.790  23.274  -8.337  0.00  0.00     0.211 C 
BRANCH   4   5
HETATM    5  O   UNK N   1      27.735  23.251  -7.334  0.00  0.00    -0.349 OA
BRANCH   5   6
HETATM    6  C   UNK N   1      27.538  23.749  -6.095  0.00  0.00     0.068 A 
HETATM    7  C   UNK N   1      26.303  23.624  -5.434  0.00  0.00     0.037 A 
HETATM    8  C   UNK N   1      26.133  24.165  -4.156  0.00  0.00     0.003 A 
HETATM    9  C   UNK N   1      27.194  24.827  -3.529  0.00  0.00     0.000 A 
HETATM   10  C   UNK N   1      28.424  24.950  -4.181  0.00  0.00     0.003 A 
HETATM   11  C   UNK N   1      28.592  24.417  -5.462  0.00  0.00     0.037 A 
ENDBRANCH   5   6
ENDBRANCH   4   5
ENDBRANCH   2   4
ENDBRANCH   1   2
BRANCH   1  12
HETATM   12  C   UNK N   1      27.166  26.560  -8.488  0.00  0.00     0.311 C 
BRANCH  12  13
HETATM   13  C   UNK N   1      26.597  27.034  -7.173  0.00  0.00    -0.030 A 
HETATM   14  C   UNK N   1      25.299  26.699  -6.752  0.00  0.00     0.009 A 
HETATM   15  C   UNK N   1      24.797  27.194  -5.546  0.00  0.00     0.001 A 
HETATM   16  C   UNK N   1      25.590  28.020  -4.747  0.00  0.00     0.000 A 
HETATM   17  C   UNK N   1      26.886  28.349  -5.153  0.00  0.00     0.001 A 
HETATM   18  C   UNK N   1      27.384  27.860  -6.364  0.00  0.00     0.009 A 
ENDBRANCH  12  13
ENDBRANCH   1  12
BRANCH   1  19
HETATM   19  C   UNK N   1      26.088  26.170 -10.535  0.00  0.00     0.288 C 
BRANCH  19  20
HETATM   20  C   UNK N   1      24.738  25.711 -11.058  0.00  0.00     0.145 C 
HETATM   21 Cl   UNK N   1      23.689  27.121 -11.316  0.00  0.00    -0.129 Cl
ENDBRANCH  19  20
ENDBRANCH   1  19
TORSDOF 8
ENDMDL
MODEL 5
REMARK VINA RESULT:      -4.9      2.724      4.140
REMARK  8 active torsions:
REMARK  status: ('A' for Active; 'I' for Inactive)
REMARK    1  A    between atoms: O_2  and  C_7 
REMARK    2  A    between atoms: O_2  and  C_13 
REMARK    3  A    between atoms: N_3  and  C_4 
REMARK    4  A    between atoms: N_3  and  C_5 
REMARK    5  A    between atoms: N_3  and  C_6 
REMARK    6  A    between atoms: C_4  and  C_7 
REMARK    7  A    between atoms: C_5  and  C_9 
REMARK    8  A    between atoms: C_6  and  C_10 
ROOT
HETATM    1  N   UNK N   1      27.635  23.306  -8.318  0.00  0.00     0.100 N 
ENDROOT
BRANCH   1   2
HETATM    2  C   UNK N   1      26.655  24.057  -9.137  0.00  0.00     0.243 C 
HETATM    3  C   UNK N   1      25.221  23.665  -8.792  0.00  0.00     0.045 C 
BRANCH   2   4
HETATM    4  C   UNK N   1      26.737  25.577  -8.944  0.00  0.00     0.211 C 
BRANCH   4   5
HETATM    5  O   UNK N   1      25.769  26.031  -8.076  0.00  0.00    -0.349 OA
BRANCH   5   6
HETATM    6  C   UNK N   1      26.013  26.841  -7.024  0.00  0.00     0.068 A 
HETATM    7  C   UNK N   1      27.218  27.555  -6.903  0.00  0.00     0.037 A 
HETATM    8  C   UNK N   1      27.441  28.374  -5.792  0.00  0.00     0.003 A 
HETATM    9  C   UNK N   1      26.461  28.491  -4.801  0.00  0.00     0.000 A 
HETATM   10  C   UNK N   1      25.259  27.787  -4.920  0.00  0.00     0.003 A 
HETATM   11  C   UNK N   1      25.040  26.961  -6.025  0.00  0.00     0.037 A 
ENDBRANCH   5   6
ENDBRANCH   4   5
ENDBRANCH   2   4
ENDBRANCH   1   2
BRANCH   1  12
HETATM   12  C   UNK N   1      26.952  22.819  -7.110  0.00  0.00     0.311 C 
BRANCH  12  13
HETATM   13  C   UNK N   1      27.228  23.614  -5.856  0.00  0.00    -0.030 A 
HETATM   14  C   UNK N   1      26.265  23.784  -4.848  0.00  0.00     0.009 A 
HETATM   15  C   UNK N   1      26.549  24.563  -3.723  0.00  0.00     0.001 A 
HETATM   16  C   UNK N   1      27.799  25.171  -3.593  0.00  0.00     0.000 A 
HETATM   17  C   UNK N   1      28.766  24.998  -4.587  0.00  0.00     0.001 A 
HETATM   18  C   UNK N   1      28.478  24.225  -5.716  0.00  0.00     0.009 A 
ENDBRANCH  12  13
ENDBRANCH   1  12
BRANCH   1  19
HETATM   19  C   UNK N   1      28.042  22.117  -9.065  0.00  0.00     0.288 C 
BRANCH  19  20
HETATM   20  C   UNK N   1      27.622  20.868  -8.312  0.00  0.00     0.145 C 
HETATM   21 Cl   UNK N   1      29.062  20.039  -7.684  0.00  0.00    -0.129 Cl
ENDBRANCH  19  20
ENDBRANCH   1  19
TORSDOF 8
ENDMDL
MODEL 6
REMARK VINA RESULT:      -4.9      2.548      3.384
REMARK  8 active torsions:
REMARK  status: ('A' for Active; 'I' for Inactive)
REMARK    1  A    between atoms: O_2  and  C_7 
REMARK    2  A    between atoms: O_2  and  C_13 
REMARK    3  A    between atoms: N_3  and  C_4 
REMARK    4  A    between atoms: N_3  and  C_5 
REMARK    5  A    between atoms: N_3  and  C_6 
REMARK    6  A    between atoms: C_4  and  C_7 
REMARK    7  A    between atoms: C_5  and  C_9 
REMARK    8  A    between atoms: C_6  and  C_10 
ROOT
HETATM    1  N   UNK N   1      27.003  24.509  -7.334  0.00  0.00     0.100 N 
ENDROOT
BRANCH   1   2
HETATM    2  C   UNK N   1      27.224  25.139  -8.656  0.00  0.00     0.243 C 
HETATM    3  C   UNK N   1      25.949  25.789  -9.187  0.00  0.00     0.045 C 
BRANCH   2   4
HETATM    4  C   UNK N   1      28.286  26.247  -8.633  0.00  0.00     0.211 C 
BRANCH   4   5
HETATM    5  O   UNK N   1      28.926  26.311  -7.415  0.00  0.00    -0.349 OA
BRANCH   5   6
HETATM    6  C   UNK N   1      28.863  27.371  -6.581  0.00  0.00     0.068 A 
HETATM    7  C   UNK N   1      29.446  27.342  -5.302  0.00  0.00     0.037 A 
HETATM    8  C   UNK N   1      29.349  28.455  -4.461  0.00  0.00     0.003 A 
HETATM    9  C   UNK N   1      28.678  29.603  -4.893  0.00  0.00     0.000 A 
HETATM   10  C   UNK N   1      28.101  29.638  -6.166  0.00  0.00     0.003 A 
HETATM   11  C   UNK N   1      28.189  28.523  -7.004  0.00  0.00     0.037 A 
ENDBRANCH   5   6
ENDBRANCH   4   5
ENDBRANCH   2   4
ENDBRANCH   1   2
BRANCH   1  12
HETATM   12  C   UNK N   1      25.685  24.931  -6.834  0.00  0.00     0.311 C 
BRANCH  12  13
HETATM   13  C   UNK N   1      25.721  25.859  -5.644  0.00  0.00    -0.030 A 
HETATM   14  C   UNK N   1      25.147  27.140  -5.673  0.00  0.00     0.009 A 
HETATM   15  C   UNK N   1      25.239  27.983  -4.562  0.00  0.00     0.001 A 
HETATM   16  C   UNK N   1      25.899  27.549  -3.411  0.00  0.00     0.000 A 
HETATM   17  C   UNK N   1      26.464  26.271  -3.370  0.00  0.00     0.001 A 
HETATM   18  C   UNK N   1      26.378  25.432  -4.485  0.00  0.00     0.009 A 
ENDBRANCH  12  13
ENDBRANCH   1  12
BRANCH   1  19
HETATM   19  C   UNK N   1      26.924  23.062  -7.523  0.00  0.00     0.288 C 
BRANCH  19  20
HETATM   20  C   UNK N   1      25.699  22.516  -6.811  0.00  0.00     0.145 C 
HETATM   21 Cl   UNK N   1      24.892  21.321  -7.848  0.00  0.00    -0.129 Cl
ENDBRANCH  19  20
ENDBRANCH   1  19
TORSDOF 8
ENDMDL
MODEL 7
REMARK VINA RESULT:      -4.8      1.542      2.856
REMARK  8 active torsions:
REMARK  status: ('A' for Active; 'I' for Inactive)
REMARK    1  A    between atoms: O_2  and  C_7 
REMARK    2  A    between atoms: O_2  and  C_13 
REMARK    3  A    between atoms: N_3  and  C_4 
REMARK    4  A    between atoms: N_3  and  C_5 
REMARK    5  A    between atoms: N_3  and  C_6 
REMARK    6  A    between atoms: C_4  and  C_7 
REMARK    7  A    between atoms: C_5  and  C_9 
REMARK    8  A    between atoms: C_6  and  C_10 
ROOT
HETATM    1  N   UNK N   1      30.567  24.711  -4.104  0.00  0.00     0.100 N 
ENDROOT
BRANCH   1   2
HETATM    2  C   UNK N   1      31.135  26.076  -4.180  0.00  0.00     0.243 C 
HETATM    3  C   UNK N   1      31.337  26.519  -5.627  0.00  0.00     0.045 C 
BRANCH   2   4
HETATM    4  C   UNK N   1      30.245  27.144  -3.530  0.00  0.00     0.211 C 
BRANCH   4   5
HETATM    5  O   UNK N   1      29.532  27.853  -4.472  0.00  0.00    -0.349 OA
BRANCH   5   6
HETATM    6  C   UNK N   1      28.188  27.825  -4.585  0.00  0.00     0.068 A 
HETATM    7  C   UNK N   1      27.551  27.685  -5.831  0.00  0.00     0.037 A 
HETATM    8  C   UNK N   1      26.155  27.673  -5.909  0.00  0.00     0.003 A 
HETATM    9  C   UNK N   1      25.388  27.794  -4.747  0.00  0.00     0.000 A 
HETATM   10  C   UNK N   1      26.016  27.929  -3.506  0.00  0.00     0.003 A 
HETATM   11  C   UNK N   1      27.411  27.950  -3.427  0.00  0.00     0.037 A 
ENDBRANCH   5   6
ENDBRANCH   4   5
ENDBRANCH   2   4
ENDBRANCH   1   2
BRANCH   1  12
HETATM   12  C   UNK N   1      29.915  24.408  -5.387  0.00  0.00     0.311 C 
BRANCH  12  13
HETATM   13  C   UNK N   1      28.416  24.245  -5.320  0.00  0.00    -0.030 A 
HETATM   14  C   UNK N   1      27.631  24.035  -6.464  0.00  0.00     0.009 A 
HETATM   15  C   UNK N   1      26.241  23.930  -6.360  0.00  0.00     0.001 A 
HETATM   16  C   UNK N   1      25.626  24.028  -5.111  0.00  0.00     0.000 A 
HETATM   17  C   UNK N   1      26.401  24.227  -3.965  0.00  0.00     0.001 A 
HETATM   18  C   UNK N   1      27.791  24.339  -4.071  0.00  0.00     0.009 A 
ENDBRANCH  12  13
ENDBRANCH   1  12
BRANCH   1  19
HETATM   19  C   UNK N   1      31.670  23.761  -3.971  0.00  0.00     0.288 C 
BRANCH  19  20
HETATM   20  C   UNK N   1      31.184  22.502  -3.274  0.00  0.00     0.145 C 
HETATM   21 Cl   UNK N   1      30.117  22.944  -1.925  0.00  0.00    -0.129 Cl
ENDBRANCH  19  20
ENDBRANCH   1  19
TORSDOF 8
ENDMDL
MODEL 8
REMARK VINA RESULT:      -4.8     13.630     15.906
REMARK  8 active torsions:
REMARK  status: ('A' for Active; 'I' for Inactive)
REMARK    1  A    between atoms: O_2  and  C_7 
REMARK    2  A    between atoms: O_2  and  C_13 
REMARK    3  A    between atoms: N_3  and  C_4 
REMARK    4  A    between atoms: N_3  and  C_5 
REMARK    5  A    between atoms: N_3  and  C_6 
REMARK    6  A    between atoms: C_4  and  C_7 
REMARK    7  A    between atoms: C_5  and  C_9 
REMARK    8  A    between atoms: C_6  and  C_10 
ROOT
HETATM    1  N   UNK N   1      33.754  16.164   7.889  0.00  0.00     0.100 N 
ENDROOT
BRANCH   1   2
HETATM    2  C   UNK N   1      32.694  16.816   8.691  0.00  0.00     0.243 C 
HETATM    3  C   UNK N   1      32.602  18.309   8.391  0.00  0.00     0.045 C 
BRANCH   2   4
HETATM    4  C   UNK N   1      31.294  16.244   8.430  0.00  0.00     0.211 C 
BRANCH   4   5
HETATM    5  O   UNK N   1      30.589  17.017   7.533  0.00  0.00    -0.349 OA
BRANCH   5   6
HETATM    6  C   UNK N   1      30.177  16.587   6.322  0.00  0.00     0.068 A 
HETATM    7  C   UNK N   1      30.361  15.256   5.906  0.00  0.00     0.037 A 
HETATM    8  C   UNK N   1      29.931  14.851   4.638  0.00  0.00     0.003 A 
HETATM    9  C   UNK N   1      29.312  15.768   3.783  0.00  0.00     0.000 A 
HETATM   10  C   UNK N   1      29.124  17.090   4.194  0.00  0.00     0.003 A 
HETATM   11  C   UNK N   1      29.560  17.499   5.457  0.00  0.00     0.037 A 
ENDBRANCH   5   6
ENDBRANCH   4   5
ENDBRANCH   2   4
ENDBRANCH   1   2
BRANCH   1  12
HETATM   12  C   UNK N   1      34.178  17.098   6.835  0.00  0.00     0.311 C 
BRANCH  12  13
HETATM   13  C   UNK N   1      33.773  16.707   5.434  0.00  0.00    -0.030 A 
HETATM   14  C   UNK N   1      33.125  17.598   4.563  0.00  0.00     0.009 A 
HETATM   15  C   UNK N   1      32.731  17.181   3.289  0.00  0.00     0.001 A 
HETATM   16  C   UNK N   1      32.987  15.873   2.872  0.00  0.00     0.000 A 
HETATM   17  C   UNK N   1      33.641  14.983   3.729  0.00  0.00     0.001 A 
HETATM   18  C   UNK N   1      34.028  15.399   5.007  0.00  0.00     0.009 A 
ENDBRANCH  12  13
ENDBRANCH   1  12
BRANCH   1  19
HETATM   19  C   UNK N   1      34.920  15.960   8.747  0.00  0.00     0.288 C 
BRANCH  19  20
HETATM   20  C   UNK N   1      34.468  15.565  10.142  0.00  0.00     0.145 C 
HETATM   21 Cl   UNK N   1      35.701  16.049  11.326  0.00  0.00    -0.129 Cl
ENDBRANCH  19  20
ENDBRANCH   1  19
TORSDOF 8
ENDMDL
MODEL 9
REMARK VINA RESULT:      -4.8      1.555      3.759
REMARK  8 active torsions:
REMARK  status: ('A' for Active; 'I' for Inactive)
REMARK    1  A    between atoms: O_2  and  C_7 
REMARK    2  A    between atoms: O_2  and  C_13 
REMARK    3  A    between atoms: N_3  and  C_4 
REMARK    4  A    between atoms: N_3  and  C_5 
REMARK    5  A    between atoms: N_3  and  C_6 
REMARK    6  A    between atoms: C_4  and  C_7 
REMARK    7  A    between atoms: C_5  and  C_9 
REMARK    8  A    between atoms: C_6  and  C_10 
ROOT
HETATM    1  N   UNK N   1      29.345  24.170  -5.516  0.00  0.00     0.100 N 
ENDROOT
BRANCH   1   2
HETATM    2  C   UNK N   1      29.280  23.678  -4.121  0.00  0.00     0.243 C 
HETATM    3  C   UNK N   1      30.352  24.324  -3.249  0.00  0.00     0.045 C 
BRANCH   2   4
HETATM    4  C   UNK N   1      27.940  23.973  -3.434  0.00  0.00     0.211 C 
BRANCH   4   5
HETATM    5  O   UNK N   1      26.946  24.234  -4.350  0.00  0.00    -0.349 OA
BRANCH   5   6
HETATM    6  C   UNK N   1      26.318  25.423  -4.469  0.00  0.00     0.068 A 
HETATM    7  C   UNK N   1      25.482  25.713  -5.563  0.00  0.00     0.037 A 
HETATM    8  C   UNK N   1      24.858  26.961  -5.658  0.00  0.00     0.003 A 
HETATM    9  C   UNK N   1      25.059  27.922  -4.662  0.00  0.00     0.000 A 
HETATM   10  C   UNK N   1      25.885  27.636  -3.571  0.00  0.00     0.003 A 
HETATM   11  C   UNK N   1      26.516  26.392  -3.479  0.00  0.00     0.037 A 
ENDBRANCH   5   6
ENDBRANCH   4   5
ENDBRANCH   2   4
ENDBRANCH   1   2
BRANCH   1  12
HETATM   12  C   UNK N   1      30.145  25.404  -5.535  0.00  0.00     0.311 C 
BRANCH  12  13
HETATM   13  C   UNK N   1      29.398  26.643  -5.967  0.00  0.00    -0.030 A 
HETATM   14  C   UNK N   1      29.368  27.811  -5.189  0.00  0.00     0.009 A 
HETATM   15  C   UNK N   1      28.630  28.921  -5.608  0.00  0.00     0.001 A 
HETATM   16  C   UNK N   1      27.922  28.875  -6.811  0.00  0.00     0.000 A 
HETATM   17  C   UNK N   1      27.956  27.720  -7.596  0.00  0.00     0.001 A 
HETATM   18  C   UNK N   1      28.689  26.607  -7.173  0.00  0.00     0.009 A 
ENDBRANCH  12  13
ENDBRANCH   1  12
BRANCH   1  19
HETATM   19  C   UNK N   1      30.083  23.192  -6.314  0.00  0.00     0.288 C 
BRANCH  19  20
HETATM   20  C   UNK N   1      29.204  22.678  -7.441  0.00  0.00     0.145 C 
HETATM   21 Cl   UNK N   1      29.020  20.918  -7.296  0.00  0.00    -0.129 Cl
ENDBRANCH  19  20
ENDBRANCH   1  19
TORSDOF 8
ENDMDL
