REMARK  8 active torsions:
REMARK  status: ('A' for Active; 'I' for Inactive)
REMARK    1  A    between atoms: O_2  and  C_7 
REMARK    2  A    between atoms: O_2  and  C_13 
REMARK    3  A    between atoms: N_3  and  C_4 
REMARK    4  A    between atoms: N_3  and  C_5 
REMARK    5  A    between atoms: N_3  and  C_6 
REMARK    6  A    between atoms: C_4  and  C_7 
REMARK    7  A    between atoms: C_5  and  C_9 
REMARK    8  A    between atoms: C_6  and  C_10 
ROOT
HETATM    1  N   UNK N   1       2.502  -0.297   0.035  0.00  0.00     0.100 N 
ENDROOT
BRANCH   1   2
HETATM    2  C   UNK N   1       2.174   1.115  -0.268  0.00  0.00     0.243 C 
HETATM    3  C   UNK N   1       0.810   1.506   0.294  0.00  0.00     0.045 C 
BRANCH   2   4
HETATM    4  C   UNK N   1       3.178   2.114   0.322  0.00  0.00     0.211 C 
BRANCH   4   5
HETATM    5  O   UNK N   1       4.451   1.897  -0.157  0.00  0.00    -0.349 OA
BRANCH   5   6
HETATM    6  C   UNK N   1       5.463   2.784  -0.050  0.00  0.00     0.068 A 
HETATM    7  C   UNK N   1       5.247   4.106   0.378  0.00  0.00     0.037 A 
HETATM    8  C   UNK N   1       6.319   5.000   0.464  0.00  0.00     0.003 A 
HETATM    9  C   UNK N   1       7.610   4.579   0.131  0.00  0.00     0.000 A 
HETATM   10  C   UNK N   1       7.830   3.265  -0.291  0.00  0.00     0.003 A 
HETATM   11  C   UNK N   1       6.758   2.373  -0.386  0.00  0.00     0.037 A 
ENDBRANCH   5   6
ENDBRANCH   4   5
ENDBRANCH   2   4
ENDBRANCH   1   2
BRANCH   1  12
HETATM   12  C   UNK N   1       1.414  -1.145  -0.476  0.00  0.00     0.311 C 
BRANCH  12  13
HETATM   13  C   UNK N   1       1.512  -2.604  -0.101  0.00  0.00    -0.030 A 
HETATM   14  C   UNK N   1       2.581  -3.116   0.652  0.00  0.00     0.009 A 
HETATM   15  C   UNK N   1       2.653  -4.481   0.942  0.00  0.00     0.001 A 
HETATM   16  C   UNK N   1       1.654  -5.344   0.488  0.00  0.00     0.000 A 
HETATM   17  C   UNK N   1       0.581  -4.841  -0.253  0.00  0.00     0.001 A 
HETATM   18  C   UNK N   1       0.514  -3.476  -0.549  0.00  0.00     0.009 A 
ENDBRANCH  12  13
ENDBRANCH   1  12
BRANCH   1  19
HETATM   19  C   UNK N   1       3.697  -0.664  -0.723  0.00  0.00     0.288 C 
BRANCH  19  20
HETATM   20  C   UNK N   1       4.832  -0.989   0.232  0.00  0.00     0.145 C 
HETATM   21 Cl   UNK N   1       6.223  -1.605  -0.685  0.00  0.00    -0.129 Cl
ENDBRANCH  19  20
ENDBRANCH   1  19
TORSDOF 8
