MODEL 1
REMARK VINA RESULT:      -5.9      0.000      0.000
REMARK  9 active torsions:
REMARK  status: ('A' for Active; 'I' for Inactive)
REMARK    1  A    between atoms: S_1  and  C_17 
REMARK    2  A    between atoms: S_1  and  C_18 
REMARK    3  A    between atoms: S_2  and  N_6 
REMARK    4  A    between atoms: S_2  and  N_13 
REMARK    5  A    between atoms: N_10  and  C_19 
REMARK    6  A    between atoms: N_11  and  C_22 
REMARK       I    between atoms: N_14  and  C_23 
REMARK       I    between atoms: N_15  and  C_23 
REMARK    7  A    between atoms: C_16  and  C_17 
REMARK    8  A    between atoms: C_16  and  C_19 
REMARK    9  A    between atoms: C_18  and  C_20 
ROOT
HETATM    1  C   UNK N   1      20.516  16.065   5.001  0.00  0.00     0.131 C 
ENDROOT
BRANCH   1   2
HETATM    2  S   UNK N   1      22.089  15.362   4.411  0.00  0.00    -0.163 SA
BRANCH   2   3
HETATM    3  C   UNK N   1      21.894  16.115   2.766  0.00  0.00     0.081 C 
BRANCH   3   4
HETATM    4  C   UNK N   1      20.436  16.463   2.501  0.00  0.00     0.087 C 
BRANCH   4   5
HETATM    5  C   UNK N   1      20.205  17.946   2.490  0.00  0.00     0.086 C 
HETATM    6  N   UNK N   1      21.217  18.739   2.531  0.00  0.00    -0.257 N 
ATOM      7  HN  UNK N   1      22.155  18.342   2.592  1.00  0.00     0.181 HD
BRANCH   6   8
HETATM    8  S   UNK N   1      21.032  20.487   2.487  0.00  0.00     0.318 S 
HETATM    9  O   UNK N   1      20.134  20.932   3.649  0.00  0.00    -0.183 OA
HETATM   10  O   UNK N   1      22.399  21.143   2.725  0.00  0.00    -0.183 OA
BRANCH   8  11
HETATM   11  N   UNK N   1      20.365  21.065   0.958  0.00  0.00    -0.311 N 
HETATM   12  H   UNK N   1      20.742  21.277   0.034  0.00  0.00     0.170 HD
HETATM   13  H   UNK N   1      19.359  21.229   1.011  0.00  0.00     0.170 HD
ENDBRANCH   8  11
ENDBRANCH   6   8
BRANCH   5  14
HETATM   14  N   UNK N   1      18.888  18.466   2.407  0.00  0.00    -0.388 N 
HETATM   15  H   UNK N   1      18.616  18.996   1.624  0.00  0.00     0.157 HD
HETATM   16  H   UNK N   1      18.246  18.297   3.134  0.00  0.00     0.157 HD
ENDBRANCH   5  14
ENDBRANCH   4   5
ENDBRANCH   3   4
ENDBRANCH   2   3
ENDBRANCH   1   2
BRANCH   1  17
HETATM   17  C   UNK N   1      20.389  16.037   6.492  0.00  0.00     0.027 A 
HETATM   18  N   UNK N   1      19.764  17.065   7.165  0.00  0.00    -0.339 N 
HETATM   19  C   UNK N   1      19.727  16.850   8.500  0.00  0.00     0.164 A 
ATOM     20  HN  UNK N   1      19.376  17.891   6.709  1.00  0.00     0.168 HD
HETATM   21  S   UNK N   1      20.457  15.405   8.841  0.00  0.00    -0.063 SA
HETATM   22  C   UNK N   1      20.858  14.976   7.296  0.00  0.00     0.079 A 
BRANCH  19  23
HETATM   23  N   UNK N   1      19.146  17.782   9.409  0.00  0.00    -0.171 N 
HETATM   24  C   UNK N   1      17.902  17.834   9.761  0.00  0.00     0.671 C 
HETATM   25  N   UNK N   1      17.493  18.820  10.685  0.00  0.00    -0.235 N 
HETATM   26  N   UNK N   1      16.938  16.944   9.236  0.00  0.00    -0.235 N 
HETATM   27  H   UNK N   1      18.156  19.435  11.075  0.00  0.00     0.174 HD
HETATM   28  H   UNK N   1      16.546  18.893  10.939  0.00  0.00     0.174 HD
HETATM   29  H   UNK N   1      16.003  16.992   9.543  0.00  0.00     0.174 HD
HETATM   30  H   UNK N   1      17.201  16.276   8.563  0.00  0.00     0.174 HD
ATOM     31  HN  UNK N   1      19.770  18.474   9.821  1.00  0.00     0.186 HD
ENDBRANCH  19  23
ENDBRANCH   1  17
TORSDOF 9
ENDMDL
MODEL 2
REMARK VINA RESULT:      -5.7      3.990      4.575
REMARK  9 active torsions:
REMARK  status: ('A' for Active; 'I' for Inactive)
REMARK    1  A    between atoms: S_1  and  C_17 
REMARK    2  A    between atoms: S_1  and  C_18 
REMARK    3  A    between atoms: S_2  and  N_6 
REMARK    4  A    between atoms: S_2  and  N_13 
REMARK    5  A    between atoms: N_10  and  C_19 
REMARK    6  A    between atoms: N_11  and  C_22 
REMARK       I    between atoms: N_14  and  C_23 
REMARK       I    between atoms: N_15  and  C_23 
REMARK    7  A    between atoms: C_16  and  C_17 
REMARK    8  A    between atoms: C_16  and  C_19 
REMARK    9  A    between atoms: C_18  and  C_20 
ROOT
HETATM    1  C   UNK N   1      23.114  14.941   6.951  0.00  0.00     0.131 C 
ENDROOT
BRANCH   1   2
HETATM    2  S   UNK N   1      21.735  14.757   5.777  0.00  0.00    -0.163 SA
BRANCH   2   3
HETATM    3  C   UNK N   1      22.598  15.718   4.496  0.00  0.00     0.081 C 
BRANCH   3   4
HETATM    4  C   UNK N   1      21.605  16.341   3.526  0.00  0.00     0.087 C 
BRANCH   4   5
HETATM    5  C   UNK N   1      21.627  17.841   3.582  0.00  0.00     0.086 C 
HETATM    6  N   UNK N   1      21.135  18.512   2.601  0.00  0.00    -0.257 N 
ATOM      7  HN  UNK N   1      20.759  18.011   1.797  1.00  0.00     0.181 HD
BRANCH   6   8
HETATM    8  S   UNK N   1      21.092  20.270   2.606  0.00  0.00     0.318 S 
HETATM    9  O   UNK N   1      20.280  20.755   3.815  0.00  0.00    -0.183 OA
HETATM   10  O   UNK N   1      22.516  20.807   2.802  0.00  0.00    -0.183 OA
BRANCH   8  11
HETATM   11  N   UNK N   1      20.414  20.941   1.121  0.00  0.00    -0.311 N 
HETATM   12  H   UNK N   1      19.975  21.823   0.856  0.00  0.00     0.170 HD
HETATM   13  H   UNK N   1      20.475  20.289   0.338  0.00  0.00     0.170 HD
ENDBRANCH   8  11
ENDBRANCH   6   8
BRANCH   5  14
HETATM   14  N   UNK N   1      22.159  18.508   4.714  0.00  0.00    -0.388 N 
HETATM   15  H   UNK N   1      23.130  18.506   4.877  0.00  0.00     0.157 HD
HETATM   16  H   UNK N   1      21.557  18.975   5.338  0.00  0.00     0.157 HD
ENDBRANCH   5  14
ENDBRANCH   4   5
ENDBRANCH   3   4
ENDBRANCH   2   3
ENDBRANCH   1   2
BRANCH   1  17
HETATM   17  C   UNK N   1      23.359  13.705   7.760  0.00  0.00     0.027 A 
HETATM   18  N   UNK N   1      23.482  13.775   9.132  0.00  0.00    -0.339 N 
HETATM   19  C   UNK N   1      23.676  12.557   9.687  0.00  0.00     0.164 A 
ATOM     20  HN  UNK N   1      23.433  14.643   9.664  1.00  0.00     0.168 HD
HETATM   21  S   UNK N   1      23.692  11.410   8.495  0.00  0.00    -0.063 SA
HETATM   22  C   UNK N   1      23.450  12.412   7.202  0.00  0.00     0.079 A 
BRANCH  19  23
HETATM   23  N   UNK N   1      23.849  12.374  11.090  0.00  0.00    -0.171 N 
HETATM   24  C   UNK N   1      22.930  12.041  11.937  0.00  0.00     0.671 C 
HETATM   25  N   UNK N   1      23.276  11.893  13.298  0.00  0.00    -0.235 N 
HETATM   26  N   UNK N   1      21.587  11.838  11.545  0.00  0.00    -0.235 N 
HETATM   27  H   UNK N   1      24.210  12.012  13.585  0.00  0.00     0.174 HD
HETATM   28  H   UNK N   1      22.583  11.671  13.960  0.00  0.00     0.174 HD
HETATM   29  H   UNK N   1      20.916  11.560  12.209  0.00  0.00     0.174 HD
HETATM   30  H   UNK N   1      21.324  11.975  10.606  0.00  0.00     0.174 HD
ATOM     31  HN  UNK N   1      24.787  12.520  11.461  1.00  0.00     0.186 HD
ENDBRANCH  19  23
ENDBRANCH   1  17
TORSDOF 9
ENDMDL
MODEL 3
REMARK VINA RESULT:      -5.7      4.271      5.019
REMARK  9 active torsions:
REMARK  status: ('A' for Active; 'I' for Inactive)
REMARK    1  A    between atoms: S_1  and  C_17 
REMARK    2  A    between atoms: S_1  and  C_18 
REMARK    3  A    between atoms: S_2  and  N_6 
REMARK    4  A    between atoms: S_2  and  N_13 
REMARK    5  A    between atoms: N_10  and  C_19 
REMARK    6  A    between atoms: N_11  and  C_22 
REMARK       I    between atoms: N_14  and  C_23 
REMARK       I    between atoms: N_15  and  C_23 
REMARK    7  A    between atoms: C_16  and  C_17 
REMARK    8  A    between atoms: C_16  and  C_19 
REMARK    9  A    between atoms: C_18  and  C_20 
ROOT
HETATM    1  C   UNK N   1      20.987  16.045   7.984  0.00  0.00     0.131 C 
ENDROOT
BRANCH   1   2
HETATM    2  S   UNK N   1      19.750  16.136   6.651  0.00  0.00    -0.163 SA
BRANCH   2   3
HETATM    3  C   UNK N   1      20.991  16.671   5.434  0.00  0.00     0.081 C 
BRANCH   3   4
HETATM    4  C   UNK N   1      20.360  17.561   4.373  0.00  0.00     0.087 C 
BRANCH   4   5
HETATM    5  C   UNK N   1      20.454  16.957   3.002  0.00  0.00     0.086 C 
HETATM    6  N   UNK N   1      19.471  17.101   2.184  0.00  0.00    -0.257 N 
ATOM      7  HN  UNK N   1      18.640  17.604   2.493  1.00  0.00     0.181 HD
BRANCH   6   8
HETATM    8  S   UNK N   1      19.518  16.454   0.551  0.00  0.00     0.318 S 
HETATM    9  O   UNK N   1      20.496  17.280  -0.295  0.00  0.00    -0.183 OA
HETATM   10  O   UNK N   1      20.083  15.027   0.591  0.00  0.00    -0.183 OA
BRANCH   8  11
HETATM   11  N   UNK N   1      17.930  16.430  -0.221  0.00  0.00    -0.311 N 
HETATM   12  H   UNK N   1      17.160  17.092  -0.321  0.00  0.00     0.170 HD
HETATM   13  H   UNK N   1      17.734  15.538  -0.676  0.00  0.00     0.170 HD
ENDBRANCH   8  11
ENDBRANCH   6   8
BRANCH   5  14
HETATM   14  N   UNK N   1      21.623  16.260   2.604  0.00  0.00    -0.388 N 
HETATM   15  H   UNK N   1      21.746  15.318   2.860  0.00  0.00     0.157 HD
HETATM   16  H   UNK N   1      22.312  16.719   2.070  0.00  0.00     0.157 HD
ENDBRANCH   5  14
ENDBRANCH   4   5
ENDBRANCH   3   4
ENDBRANCH   2   3
ENDBRANCH   1   2
BRANCH   1  17
HETATM   17  C   UNK N   1      21.353  14.639   8.343  0.00  0.00     0.027 A 
HETATM   18  N   UNK N   1      21.361  14.228   9.659  0.00  0.00    -0.339 N 
HETATM   19  C   UNK N   1      21.695  12.922   9.782  0.00  0.00     0.164 A 
ATOM     20  HN  UNK N   1      21.143  14.837  10.447  1.00  0.00     0.168 HD
HETATM   21  S   UNK N   1      21.972  12.287   8.280  0.00  0.00    -0.063 SA
HETATM   22  C   UNK N   1      21.679  13.650   7.391  0.00  0.00     0.079 A 
BRANCH  19  23
HETATM   23  N   UNK N   1      21.787  12.272  11.046  0.00  0.00    -0.171 N 
HETATM   24  C   UNK N   1      22.865  12.090  11.737  0.00  0.00     0.671 C 
HETATM   25  N   UNK N   1      22.778  11.430  12.982  0.00  0.00    -0.235 N 
HETATM   26  N   UNK N   1      24.131  12.517  11.275  0.00  0.00    -0.235 N 
HETATM   27  H   UNK N   1      21.901  11.143  13.327  0.00  0.00     0.174 HD
HETATM   28  H   UNK N   1      23.593  11.256  13.505  0.00  0.00     0.174 HD
HETATM   29  H   UNK N   1      24.931  12.387  11.835  0.00  0.00     0.174 HD
HETATM   30  H   UNK N   1      24.214  12.944  10.392  0.00  0.00     0.174 HD
ATOM     31  HN  UNK N   1      20.920  11.915  11.445  1.00  0.00     0.186 HD
ENDBRANCH  19  23
ENDBRANCH   1  17
TORSDOF 9
ENDMDL
MODEL 4
REMARK VINA RESULT:      -5.7     12.855     13.841
REMARK  9 active torsions:
REMARK  status: ('A' for Active; 'I' for Inactive)
REMARK    1  A    between atoms: S_1  and  C_17 
REMARK    2  A    between atoms: S_1  and  C_18 
REMARK    3  A    between atoms: S_2  and  N_6 
REMARK    4  A    between atoms: S_2  and  N_13 
REMARK    5  A    between atoms: N_10  and  C_19 
REMARK    6  A    between atoms: N_11  and  C_22 
REMARK       I    between atoms: N_14  and  C_23 
REMARK       I    between atoms: N_15  and  C_23 
REMARK    7  A    between atoms: C_16  and  C_17 
REMARK    8  A    between atoms: C_16  and  C_19 
REMARK    9  A    between atoms: C_18  and  C_20 
ROOT
HETATM    1  C   UNK N   1      32.231  15.259   8.906  0.00  0.00     0.131 C 
ENDROOT
BRANCH   1   2
HETATM    2  S   UNK N   1      32.627  14.840   7.179  0.00  0.00    -0.163 SA
BRANCH   2   3
HETATM    3  C   UNK N   1      32.015  16.441   6.571  0.00  0.00     0.081 C 
BRANCH   3   4
HETATM    4  C   UNK N   1      30.628  16.293   5.962  0.00  0.00     0.087 C 
BRANCH   4   5
HETATM    5  C   UNK N   1      29.551  16.775   6.890  0.00  0.00     0.086 C 
HETATM    6  N   UNK N   1      29.866  17.551   7.866  0.00  0.00    -0.257 N 
ATOM      7  HN  UNK N   1      30.844  17.805   8.001  1.00  0.00     0.181 HD
BRANCH   6   8
HETATM    8  S   UNK N   1      28.659  18.187   8.976  0.00  0.00     0.318 S 
HETATM    9  O   UNK N   1      27.826  17.027   9.538  0.00  0.00    -0.183 OA
HETATM   10  O   UNK N   1      29.369  18.828  10.177  0.00  0.00    -0.183 OA
BRANCH   8  11
HETATM   11  N   UNK N   1      27.597  19.379   8.221  0.00  0.00    -0.311 N 
HETATM   12  H   UNK N   1      27.421  20.376   8.343  0.00  0.00     0.170 HD
HETATM   13  H   UNK N   1      27.018  18.971   7.487  0.00  0.00     0.170 HD
ENDBRANCH   8  11
ENDBRANCH   6   8
BRANCH   5  14
HETATM   14  N   UNK N   1      28.199  16.402   6.676  0.00  0.00    -0.388 N 
HETATM   15  H   UNK N   1      27.510  16.652   7.332  0.00  0.00     0.157 HD
HETATM   16  H   UNK N   1      27.951  15.893   5.870  0.00  0.00     0.157 HD
ENDBRANCH   5  14
ENDBRANCH   4   5
ENDBRANCH   3   4
ENDBRANCH   2   3
ENDBRANCH   1   2
BRANCH   1  17
HETATM   17  C   UNK N   1      33.449  15.522   9.736  0.00  0.00     0.027 A 
HETATM   18  N   UNK N   1      33.760  14.709  10.805  0.00  0.00    -0.339 N 
HETATM   19  C   UNK N   1      34.905  15.091  11.417  0.00  0.00     0.164 A 
ATOM     20  HN  UNK N   1      33.193  13.915  11.101  1.00  0.00     0.168 HD
HETATM   21  S   UNK N   1      35.523  16.415  10.641  0.00  0.00    -0.063 SA
HETATM   22  C   UNK N   1      34.357  16.570   9.479  0.00  0.00     0.079 A 
BRANCH  19  23
HETATM   23  N   UNK N   1      35.425  14.415  12.559  0.00  0.00    -0.171 N 
HETATM   24  C   UNK N   1      36.556  13.791  12.630  0.00  0.00     0.671 C 
HETATM   25  N   UNK N   1      36.924  13.179  13.848  0.00  0.00    -0.235 N 
HETATM   26  N   UNK N   1      37.426  13.688  11.521  0.00  0.00    -0.235 N 
HETATM   27  H   UNK N   1      36.339  13.257  14.635  0.00  0.00     0.174 HD
HETATM   28  H   UNK N   1      37.766  12.674  13.910  0.00  0.00     0.174 HD
HETATM   29  H   UNK N   1      38.292  13.229  11.613  0.00  0.00     0.174 HD
HETATM   30  H   UNK N   1      37.165  14.077  10.654  0.00  0.00     0.174 HD
ATOM     31  HN  UNK N   1      34.850  14.423  13.400  1.00  0.00     0.186 HD
ENDBRANCH  19  23
ENDBRANCH   1  17
TORSDOF 9
ENDMDL
MODEL 5
REMARK VINA RESULT:      -5.6     10.085     11.882
REMARK  9 active torsions:
REMARK  status: ('A' for Active; 'I' for Inactive)
REMARK    1  A    between atoms: S_1  and  C_17 
REMARK    2  A    between atoms: S_1  and  C_18 
REMARK    3  A    between atoms: S_2  and  N_6 
REMARK    4  A    between atoms: S_2  and  N_13 
REMARK    5  A    between atoms: N_10  and  C_19 
REMARK    6  A    between atoms: N_11  and  C_22 
REMARK       I    between atoms: N_14  and  C_23 
REMARK       I    between atoms: N_15  and  C_23 
REMARK    7  A    between atoms: C_16  and  C_17 
REMARK    8  A    between atoms: C_16  and  C_19 
REMARK    9  A    between atoms: C_18  and  C_20 
ROOT
HETATM    1  C   UNK N   1      28.327  19.192   7.636  0.00  0.00     0.131 C 
ENDROOT
BRANCH   1   2
HETATM    2  S   UNK N   1      28.674  17.858   8.827  0.00  0.00    -0.163 SA
BRANCH   2   3
HETATM    3  C   UNK N   1      30.434  18.308   8.933  0.00  0.00     0.081 C 
BRANCH   3   4
HETATM    4  C   UNK N   1      31.245  17.568   7.878  0.00  0.00     0.087 C 
BRANCH   4   5
HETATM    5  C   UNK N   1      32.681  17.407   8.284  0.00  0.00     0.086 C 
HETATM    6  N   UNK N   1      32.969  16.660   9.291  0.00  0.00    -0.257 N 
ATOM      7  HN  UNK N   1      32.212  16.211   9.806  1.00  0.00     0.181 HD
BRANCH   6   8
HETATM    8  S   UNK N   1      34.628  16.393   9.808  0.00  0.00     0.318 S 
HETATM    9  O   UNK N   1      35.366  15.572   8.742  0.00  0.00    -0.183 OA
HETATM   10  O   UNK N   1      35.353  17.744   9.888  0.00  0.00    -0.183 OA
BRANCH   8  11
HETATM   11  N   UNK N   1      34.734  15.580  11.372  0.00  0.00    -0.311 N 
HETATM   12  H   UNK N   1      34.116  15.466  12.175  0.00  0.00     0.170 HD
HETATM   13  H   UNK N   1      35.631  15.112  11.504  0.00  0.00     0.170 HD
ENDBRANCH   8  11
ENDBRANCH   6   8
BRANCH   5  14
HETATM   14  N   UNK N   1      33.711  18.049   7.549  0.00  0.00    -0.388 N 
HETATM   15  H   UNK N   1      33.492  18.788   6.938  0.00  0.00     0.157 HD
HETATM   16  H   UNK N   1      34.645  17.753   7.650  0.00  0.00     0.157 HD
ENDBRANCH   5  14
ENDBRANCH   4   5
ENDBRANCH   3   4
ENDBRANCH   2   3
ENDBRANCH   1   2
BRANCH   1  17
HETATM   17  C   UNK N   1      27.561  18.720   6.440  0.00  0.00     0.027 A 
HETATM   18  N   UNK N   1      26.421  19.379   6.030  0.00  0.00    -0.339 N 
HETATM   19  C   UNK N   1      25.883  18.821   4.922  0.00  0.00     0.164 A 
ATOM     20  HN  UNK N   1      26.030  20.192   6.507  1.00  0.00     0.168 HD
HETATM   21  S   UNK N   1      26.807  17.531   4.456  0.00  0.00    -0.063 SA
HETATM   22  C   UNK N   1      27.949  17.619   5.649  0.00  0.00     0.079 A 
BRANCH  19  23
HETATM   23  N   UNK N   1      24.690  19.316   4.318  0.00  0.00    -0.171 N 
HETATM   24  C   UNK N   1      24.621  20.135   3.319  0.00  0.00     0.671 C 
HETATM   25  N   UNK N   1      23.352  20.519   2.836  0.00  0.00    -0.235 N 
HETATM   26  N   UNK N   1      25.778  20.669   2.707  0.00  0.00    -0.235 N 
HETATM   27  H   UNK N   1      22.536  20.141   3.238  0.00  0.00     0.174 HD
HETATM   28  H   UNK N   1      23.281  21.165   2.097  0.00  0.00     0.174 HD
HETATM   29  H   UNK N   1      25.693  21.270   1.932  0.00  0.00     0.174 HD
HETATM   30  H   UNK N   1      26.669  20.440   3.057  0.00  0.00     0.174 HD
ATOM     31  HN  UNK N   1      23.807  18.995   4.712  1.00  0.00     0.186 HD
ENDBRANCH  19  23
ENDBRANCH   1  17
TORSDOF 9
ENDMDL
MODEL 6
REMARK VINA RESULT:      -5.6     10.643     12.671
REMARK  9 active torsions:
REMARK  status: ('A' for Active; 'I' for Inactive)
REMARK    1  A    between atoms: S_1  and  C_17 
REMARK    2  A    between atoms: S_1  and  C_18 
REMARK    3  A    between atoms: S_2  and  N_6 
REMARK    4  A    between atoms: S_2  and  N_13 
REMARK    5  A    between atoms: N_10  and  C_19 
REMARK    6  A    between atoms: N_11  and  C_22 
REMARK       I    between atoms: N_14  and  C_23 
REMARK       I    between atoms: N_15  and  C_23 
REMARK    7  A    between atoms: C_16  and  C_17 
REMARK    8  A    between atoms: C_16  and  C_19 
REMARK    9  A    between atoms: C_18  and  C_20 
ROOT
HETATM    1  C   UNK N   1      28.158  19.148   8.048  0.00  0.00     0.131 C 
ENDROOT
BRANCH   1   2
HETATM    2  S   UNK N   1      28.683  17.570   8.788  0.00  0.00    -0.163 SA
BRANCH   2   3
HETATM    3  C   UNK N   1      30.406  18.130   8.944  0.00  0.00     0.081 C 
BRANCH   3   4
HETATM    4  C   UNK N   1      31.245  17.632   7.776  0.00  0.00     0.087 C 
BRANCH   4   5
HETATM    5  C   UNK N   1      32.680  17.421   8.163  0.00  0.00     0.086 C 
HETATM    6  N   UNK N   1      32.951  16.759   9.232  0.00  0.00    -0.257 N 
ATOM      7  HN  UNK N   1      32.183  16.409   9.805  1.00  0.00     0.181 HD
BRANCH   6   8
HETATM    8  S   UNK N   1      34.605  16.439   9.734  0.00  0.00     0.318 S 
HETATM    9  O   UNK N   1      35.309  15.600   8.659  0.00  0.00    -0.183 OA
HETATM   10  O   UNK N   1      35.372  17.767   9.813  0.00  0.00    -0.183 OA
BRANCH   8  11
HETATM   11  N   UNK N   1      34.699  15.617  11.294  0.00  0.00    -0.311 N 
HETATM   12  H   UNK N   1      34.084  15.519  12.102  0.00  0.00     0.170 HD
HETATM   13  H   UNK N   1      35.582  15.121  11.418  0.00  0.00     0.170 HD
ENDBRANCH   8  11
ENDBRANCH   6   8
BRANCH   5  14
HETATM   14  N   UNK N   1      33.725  17.923   7.345  0.00  0.00    -0.388 N 
HETATM   15  H   UNK N   1      33.534  18.613   6.670  0.00  0.00     0.157 HD
HETATM   16  H   UNK N   1      34.642  17.580   7.453  0.00  0.00     0.157 HD
ENDBRANCH   5  14
ENDBRANCH   4   5
ENDBRANCH   3   4
ENDBRANCH   2   3
ENDBRANCH   1   2
BRANCH   1  17
HETATM   17  C   UNK N   1      27.939  19.055   6.570  0.00  0.00     0.027 A 
HETATM   18  N   UNK N   1      28.033  17.843   5.920  0.00  0.00    -0.339 N 
HETATM   19  C   UNK N   1      27.782  17.955   4.595  0.00  0.00     0.164 A 
ATOM     20  HN  UNK N   1      28.266  16.964   6.383  1.00  0.00     0.168 HD
HETATM   21  S   UNK N   1      27.445  19.535   4.236  0.00  0.00    -0.063 SA
HETATM   22  C   UNK N   1      27.602  20.159   5.759  0.00  0.00     0.079 A 
BRANCH  19  23
HETATM   23  N   UNK N   1      27.835  16.841   3.709  0.00  0.00    -0.171 N 
HETATM   24  C   UNK N   1      28.878  16.417   3.073  0.00  0.00     0.671 C 
HETATM   25  N   UNK N   1      28.758  15.286   2.237  0.00  0.00    -0.235 N 
HETATM   26  N   UNK N   1      30.132  17.062   3.177  0.00  0.00    -0.235 N 
HETATM   27  H   UNK N   1      27.897  14.813   2.168  0.00  0.00     0.174 HD
HETATM   28  H   UNK N   1      29.534  14.969   1.722  0.00  0.00     0.174 HD
HETATM   29  H   UNK N   1      30.914  16.701   2.701  0.00  0.00     0.174 HD
HETATM   30  H   UNK N   1      30.222  17.874   3.726  0.00  0.00     0.174 HD
ATOM     31  HN  UNK N   1      26.966  16.328   3.561  1.00  0.00     0.186 HD
ENDBRANCH  19  23
ENDBRANCH   1  17
TORSDOF 9
ENDMDL
MODEL 7
REMARK VINA RESULT:      -5.6     14.677     16.385
REMARK  9 active torsions:
REMARK  status: ('A' for Active; 'I' for Inactive)
REMARK    1  A    between atoms: S_1  and  C_17 
REMARK    2  A    between atoms: S_1  and  C_18 
REMARK    3  A    between atoms: S_2  and  N_6 
REMARK    4  A    between atoms: S_2  and  N_13 
REMARK    5  A    between atoms: N_10  and  C_19 
REMARK    6  A    between atoms: N_11  and  C_22 
REMARK       I    between atoms: N_14  and  C_23 
REMARK       I    between atoms: N_15  and  C_23 
REMARK    7  A    between atoms: C_16  and  C_17 
REMARK    8  A    between atoms: C_16  and  C_19 
REMARK    9  A    between atoms: C_18  and  C_20 
ROOT
HETATM    1  C   UNK N   1      33.892  14.929   9.906  0.00  0.00     0.131 C 
ENDROOT
BRANCH   1   2
HETATM    2  S   UNK N   1      35.583  14.726   9.261  0.00  0.00    -0.163 SA
BRANCH   2   3
HETATM    3  C   UNK N   1      36.197  14.104  10.857  0.00  0.00     0.081 C 
BRANCH   3   4
HETATM    4  C   UNK N   1      35.319  14.592  12.001  0.00  0.00     0.087 C 
BRANCH   4   5
HETATM    5  C   UNK N   1      35.745  14.019  13.321  0.00  0.00     0.086 C 
HETATM    6  N   UNK N   1      35.145  12.975  13.774  0.00  0.00    -0.257 N 
ATOM      7  HN  UNK N   1      34.379  12.572  13.236  1.00  0.00     0.181 HD
BRANCH   6   8
HETATM    8  S   UNK N   1      35.607  12.223  15.295  0.00  0.00     0.318 S 
HETATM    9  O   UNK N   1      37.078  11.790  15.221  0.00  0.00    -0.183 OA
HETATM   10  O   UNK N   1      35.523  13.266  16.418  0.00  0.00    -0.183 OA
BRANCH   8  11
HETATM   11  N   UNK N   1      34.594  10.838  15.708  0.00  0.00    -0.311 N 
HETATM   12  H   UNK N   1      34.551  10.174  16.481  0.00  0.00     0.170 HD
HETATM   13  H   UNK N   1      33.880  10.656  15.003  0.00  0.00     0.170 HD
ENDBRANCH   8  11
ENDBRANCH   6   8
BRANCH   5  14
HETATM   14  N   UNK N   1      36.814  14.605  14.047  0.00  0.00    -0.388 N 
HETATM   15  H   UNK N   1      37.745  14.407  13.798  0.00  0.00     0.157 HD
HETATM   16  H   UNK N   1      36.623  15.210  14.800  0.00  0.00     0.157 HD
ENDBRANCH   5  14
ENDBRANCH   4   5
ENDBRANCH   3   4
ENDBRANCH   2   3
ENDBRANCH   1   2
BRANCH   1  17
HETATM   17  C   UNK N   1      33.051  15.835   9.062  0.00  0.00     0.027 A 
HETATM   18  N   UNK N   1      31.700  15.965   9.299  0.00  0.00    -0.339 N 
HETATM   19  C   UNK N   1      31.117  16.843   8.450  0.00  0.00     0.164 A 
ATOM     20  HN  UNK N   1      31.198  15.458  10.029  1.00  0.00     0.168 HD
HETATM   21  S   UNK N   1      32.262  17.450   7.422  0.00  0.00    -0.063 SA
HETATM   22  C   UNK N   1      33.567  16.622   8.011  0.00  0.00     0.079 A 
BRANCH  19  23
HETATM   23  N   UNK N   1      29.722  17.133   8.489  0.00  0.00    -0.171 N 
HETATM   24  C   UNK N   1      29.146  18.026   9.225  0.00  0.00     0.671 C 
HETATM   25  N   UNK N   1      27.747  18.191   9.133  0.00  0.00    -0.235 N 
HETATM   26  N   UNK N   1      29.872  18.830  10.133  0.00  0.00    -0.235 N 
HETATM   27  H   UNK N   1      27.228  17.652   8.492  0.00  0.00     0.174 HD
HETATM   28  H   UNK N   1      27.289  18.844   9.709  0.00  0.00     0.174 HD
HETATM   29  H   UNK N   1      29.409  19.520  10.662  0.00  0.00     0.174 HD
HETATM   30  H   UNK N   1      30.843  18.701  10.236  0.00  0.00     0.174 HD
ATOM     31  HN  UNK N   1      29.121  16.583   7.876  1.00  0.00     0.186 HD
ENDBRANCH  19  23
ENDBRANCH   1  17
TORSDOF 9
ENDMDL
MODEL 8
REMARK VINA RESULT:      -5.5     12.832     14.732
REMARK  9 active torsions:
REMARK  status: ('A' for Active; 'I' for Inactive)
REMARK    1  A    between atoms: S_1  and  C_17 
REMARK    2  A    between atoms: S_1  and  C_18 
REMARK    3  A    between atoms: S_2  and  N_6 
REMARK    4  A    between atoms: S_2  and  N_13 
REMARK    5  A    between atoms: N_10  and  C_19 
REMARK    6  A    between atoms: N_11  and  C_22 
REMARK       I    between atoms: N_14  and  C_23 
REMARK       I    between atoms: N_15  and  C_23 
REMARK    7  A    between atoms: C_16  and  C_17 
REMARK    8  A    between atoms: C_16  and  C_19 
REMARK    9  A    between atoms: C_18  and  C_20 
ROOT
HETATM    1  C   UNK N   1      33.490  12.447   7.305  0.00  0.00     0.131 C 
ENDROOT
BRANCH   1   2
HETATM    2  S   UNK N   1      35.020  12.419   8.292  0.00  0.00    -0.163 SA
BRANCH   2   3
HETATM    3  C   UNK N   1      34.360  13.621   9.487  0.00  0.00     0.081 C 
BRANCH   3   4
HETATM    4  C   UNK N   1      35.422  14.641   9.872  0.00  0.00     0.087 C 
BRANCH   4   5
HETATM    5  C   UNK N   1      35.010  16.041   9.523  0.00  0.00     0.086 C 
HETATM    6  N   UNK N   1      34.700  16.319   8.306  0.00  0.00    -0.257 N 
ATOM      7  HN  UNK N   1      34.761  15.585   7.600  1.00  0.00     0.181 HD
BRANCH   6   8
HETATM    8  S   UNK N   1      34.175  17.925   7.823  0.00  0.00     0.318 S 
HETATM    9  O   UNK N   1      35.149  18.969   8.386  0.00  0.00    -0.183 OA
HETATM   10  O   UNK N   1      34.255  18.043   6.295  0.00  0.00    -0.183 OA
BRANCH   8  11
HETATM   11  N   UNK N   1      32.530  18.295   8.350  0.00  0.00    -0.311 N 
HETATM   12  H   UNK N   1      31.875  19.062   8.203  0.00  0.00     0.170 HD
HETATM   13  H   UNK N   1      32.143  17.565   8.949  0.00  0.00     0.170 HD
ENDBRANCH   8  11
ENDBRANCH   6   8
BRANCH   5  14
HETATM   14  N   UNK N   1      34.938  17.039  10.528  0.00  0.00    -0.388 N 
HETATM   15  H   UNK N   1      34.104  17.170  11.033  0.00  0.00     0.157 HD
HETATM   16  H   UNK N   1      35.724  17.602  10.721  0.00  0.00     0.157 HD
ENDBRANCH   5  14
ENDBRANCH   4   5
ENDBRANCH   3   4
ENDBRANCH   2   3
ENDBRANCH   1   2
BRANCH   1  17
HETATM   17  C   UNK N   1      33.560  13.394   6.148  0.00  0.00     0.027 A 
HETATM   18  N   UNK N   1      32.413  13.800   5.500  0.00  0.00    -0.339 N 
HETATM   19  C   UNK N   1      32.676  14.671   4.499  0.00  0.00     0.164 A 
ATOM     20  HN  UNK N   1      31.476  13.479   5.746  1.00  0.00     0.168 HD
HETATM   21  S   UNK N   1      34.306  14.936   4.420  0.00  0.00    -0.063 SA
HETATM   22  C   UNK N   1      34.764  13.950   5.666  0.00  0.00     0.079 A 
BRANCH  19  23
HETATM   23  N   UNK N   1      31.652  15.218   3.672  0.00  0.00    -0.171 N 
HETATM   24  C   UNK N   1      31.165  16.415   3.747  0.00  0.00     0.671 C 
HETATM   25  N   UNK N   1      30.155  16.800   2.840  0.00  0.00    -0.235 N 
HETATM   26  N   UNK N   1      31.603  17.341   4.720  0.00  0.00    -0.235 N 
HETATM   27  H   UNK N   1      29.852  16.173   2.144  0.00  0.00     0.174 HD
HETATM   28  H   UNK N   1      29.752  17.696   2.903  0.00  0.00     0.174 HD
HETATM   29  H   UNK N   1      31.232  18.253   4.736  0.00  0.00     0.174 HD
HETATM   30  H   UNK N   1      32.279  17.074   5.384  0.00  0.00     0.174 HD
ATOM     31  HN  UNK N   1      31.265  14.608   2.953  1.00  0.00     0.186 HD
ENDBRANCH  19  23
ENDBRANCH   1  17
TORSDOF 9
ENDMDL
MODEL 9
REMARK VINA RESULT:      -5.4      7.848      8.803
REMARK  9 active torsions:
REMARK  status: ('A' for Active; 'I' for Inactive)
REMARK    1  A    between atoms: S_1  and  C_17 
REMARK    2  A    between atoms: S_1  and  C_18 
REMARK    3  A    between atoms: S_2  and  N_6 
REMARK    4  A    between atoms: S_2  and  N_13 
REMARK    5  A    between atoms: N_10  and  C_19 
REMARK    6  A    between atoms: N_11  and  C_22 
REMARK       I    between atoms: N_14  and  C_23 
REMARK       I    between atoms: N_15  and  C_23 
REMARK    7  A    between atoms: C_16  and  C_17 
REMARK    8  A    between atoms: C_16  and  C_19 
REMARK    9  A    between atoms: C_18  and  C_20 
ROOT
HETATM    1  C   UNK N   1      27.924  17.790   5.504  0.00  0.00     0.131 C 
ENDROOT
BRANCH   1   2
HETATM    2  S   UNK N   1      27.562  19.410   4.754  0.00  0.00    -0.163 SA
BRANCH   2   3
HETATM    3  C   UNK N   1      25.798  19.009   4.561  0.00  0.00     0.081 C 
BRANCH   3   4
HETATM    4  C   UNK N   1      25.125  19.980   3.602  0.00  0.00     0.087 C 
BRANCH   4   5
HETATM    5  C   UNK N   1      23.641  19.767   3.533  0.00  0.00     0.086 C 
HETATM    6  N   UNK N   1      22.942  20.476   2.718  0.00  0.00    -0.257 N 
ATOM      7  HN  UNK N   1      23.409  21.184   2.152  1.00  0.00     0.181 HD
BRANCH   6   8
HETATM    8  S   UNK N   1      21.205  20.263   2.554  0.00  0.00     0.318 S 
HETATM    9  O   UNK N   1      20.530  20.531   3.906  0.00  0.00    -0.183 OA
HETATM   10  O   UNK N   1      20.658  21.320   1.584  0.00  0.00    -0.183 OA
BRANCH   8  11
HETATM   11  N   UNK N   1      20.766  18.655   1.972  0.00  0.00    -0.311 N 
HETATM   12  H   UNK N   1      21.084  18.041   1.222  0.00  0.00     0.170 HD
HETATM   13  H   UNK N   1      20.010  18.239   2.518  0.00  0.00     0.170 HD
ENDBRANCH   8  11
ENDBRANCH   6   8
BRANCH   5  14
HETATM   14  N   UNK N   1      23.021  18.776   4.336  0.00  0.00    -0.388 N 
HETATM   15  H   UNK N   1      23.488  18.416   5.123  0.00  0.00     0.157 HD
HETATM   16  H   UNK N   1      22.121  18.448   4.105  0.00  0.00     0.157 HD
ENDBRANCH   5  14
ENDBRANCH   4   5
ENDBRANCH   3   4
ENDBRANCH   2   3
ENDBRANCH   1   2
BRANCH   1  17
HETATM   17  C   UNK N   1      28.604  17.903   6.833  0.00  0.00     0.027 A 
HETATM   18  N   UNK N   1      29.707  17.131   7.127  0.00  0.00    -0.339 N 
HETATM   19  C   UNK N   1      30.194  17.390   8.363  0.00  0.00     0.164 A 
ATOM     20  HN  UNK N   1      30.109  16.445   6.488  1.00  0.00     0.168 HD
HETATM   21  S   UNK N   1      29.271  18.561   9.079  0.00  0.00    -0.063 SA
HETATM   22  C   UNK N   1      28.198  18.801   7.843  0.00  0.00     0.079 A 
BRANCH  19  23
HETATM   23  N   UNK N   1      31.322  16.705   8.900  0.00  0.00    -0.171 N 
HETATM   24  C   UNK N   1      32.560  17.065   8.790  0.00  0.00     0.671 C 
HETATM   25  N   UNK N   1      33.559  16.271   9.394  0.00  0.00    -0.235 N 
HETATM   26  N   UNK N   1      32.943  18.219   8.070  0.00  0.00    -0.235 N 
HETATM   27  H   UNK N   1      33.308  15.475   9.916  0.00  0.00     0.174 HD
HETATM   28  H   UNK N   1      34.508  16.513   9.294  0.00  0.00     0.174 HD
HETATM   29  H   UNK N   1      33.891  18.481   8.026  0.00  0.00     0.174 HD
HETATM   30  H   UNK N   1      32.261  18.761   7.611  0.00  0.00     0.174 HD
ATOM     31  HN  UNK N   1      31.136  15.848   9.420  1.00  0.00     0.186 HD
ENDBRANCH  19  23
ENDBRANCH   1  17
TORSDOF 9
ENDMDL
