MODEL 1
REMARK VINA RESULT:      -5.7      0.000      0.000
REMARK  5 active torsions:
REMARK  status: ('A' for Active; 'I' for Inactive)
REMARK    1  A    between atoms: C_12  and  O_2 
REMARK    2  A    between atoms: C_13  and  O_3 
REMARK    3  A    between atoms: O_4  and  C_16 
REMARK    4  A    between atoms: C_15  and  N_6 
REMARK       I    between atoms: N_11  and  C_19 
REMARK    5  A    between atoms: C_14  and  C_16 
ROOT
HETATM    1  O   UNK N   1      24.696  20.916   2.088  0.00  0.00    -0.246 OA
HETATM    2  N   UNK N   1      24.028  19.490   3.712  0.00  0.00    -0.265 N 
HETATM    3  N   UNK N   1      26.146  20.577   3.752  0.00  0.00    -0.141 N 
ATOM      4  HN  UNK N   1      26.817  21.220   3.332  1.00  0.00     0.189 HD
HETATM    5  N   UNK N   1      25.559  19.096   5.474  0.00  0.00    -0.188 N 
ATOM      6  HN  UNK N   1      25.789  18.627   6.349  1.00  0.00     0.185 HD
HETATM    7  N   UNK N   1      27.703  20.155   5.520  0.00  0.00    -0.234 N 
HETATM    8  C   UNK N   1      24.941  20.357   3.144  0.00  0.00     0.343 A 
HETATM    9  C   UNK N   1      24.361  18.869   4.882  0.00  0.00     0.208 A 
HETATM   10  C   UNK N   1      26.452  19.945   4.911  0.00  0.00     0.680 A 
HETATM   11  H   UNK N   1      27.981  19.617   6.297  0.00  0.00     0.174 HD
HETATM   12  H   UNK N   1      28.308  20.847   5.165  0.00  0.00     0.174 HD
ENDROOT
BRANCH   2  13
HETATM   13  C   UNK N   1      22.743  19.166   3.059  0.00  0.00     0.265 C 
HETATM   14  O   UNK N   1      22.305  17.881   3.417  0.00  0.00    -0.353 OA
HETATM   15  C   UNK N   1      20.951  17.856   3.048  0.00  0.00     0.179 C 
HETATM   16  C   UNK N   1      20.386  19.261   3.173  0.00  0.00     0.182 C 
HETATM   17  C   UNK N   1      21.616  20.098   3.455  0.00  0.00     0.198 C 
BRANCH  15  18
HETATM   18  C   UNK N   1      20.182  16.902   3.942  0.00  0.00     0.198 C 
BRANCH  18  19
HETATM   19  O   UNK N   1      18.810  17.078   3.752  0.00  0.00    -0.398 OA
HETATM   20  H   UNK N   1      18.335  17.923   3.743  0.00  0.00     0.209 HD
ENDBRANCH  18  19
ENDBRANCH  15  18
BRANCH  16  21
HETATM   21  O   UNK N   1      19.784  19.604   1.959  0.00  0.00    -0.390 OA
HETATM   22  H   UNK N   1      20.147  19.720   1.067  0.00  0.00     0.210 HD
ENDBRANCH  16  21
BRANCH  17  23
HETATM   23  O   UNK N   1      21.624  21.282   2.711  0.00  0.00    -0.388 OA
HETATM   24  H   UNK N   1      22.084  22.077   3.022  0.00  0.00     0.210 HD
ENDBRANCH  17  23
ENDBRANCH   2  13
TORSDOF 5
ENDMDL
MODEL 2
REMARK VINA RESULT:      -5.6     13.188     15.540
REMARK  5 active torsions:
REMARK  status: ('A' for Active; 'I' for Inactive)
REMARK    1  A    between atoms: C_12  and  O_2 
REMARK    2  A    between atoms: C_13  and  O_3 
REMARK    3  A    between atoms: O_4  and  C_16 
REMARK    4  A    between atoms: C_15  and  N_6 
REMARK       I    between atoms: N_11  and  C_19 
REMARK    5  A    between atoms: C_14  and  C_16 
ROOT
HETATM    1  O   UNK N   1      36.363  16.896  10.724  0.00  0.00    -0.246 OA
HETATM    2  N   UNK N   1      34.743  15.321  10.819  0.00  0.00    -0.265 N 
HETATM    3  N   UNK N   1      34.545  17.283   9.485  0.00  0.00    -0.141 N 
ATOM      4  HN  UNK N   1      34.936  18.160   9.140  1.00  0.00     0.189 HD
HETATM    5  N   UNK N   1      32.796  15.722   9.534  0.00  0.00    -0.188 N 
ATOM      6  HN  UNK N   1      31.871  15.425   9.224  1.00  0.00     0.185 HD
HETATM    7  N   UNK N   1      32.564  17.699   8.209  0.00  0.00    -0.234 N 
HETATM    8  C   UNK N   1      35.267  16.511  10.352  0.00  0.00     0.343 A 
HETATM    9  C   UNK N   1      33.500  14.947  10.394  0.00  0.00     0.208 A 
HETATM   10  C   UNK N   1      33.313  16.889   9.082  0.00  0.00     0.680 A 
HETATM   11  H   UNK N   1      31.627  17.481   8.000  0.00  0.00     0.174 HD
HETATM   12  H   UNK N   1      32.981  18.494   7.802  0.00  0.00     0.174 HD
ENDROOT
BRANCH   2  13
HETATM   13  C   UNK N   1      35.453  14.486  11.810  0.00  0.00     0.265 C 
HETATM   14  O   UNK N   1      34.549  13.725  12.568  0.00  0.00    -0.353 OA
HETATM   15  C   UNK N   1      35.344  12.741  13.178  0.00  0.00     0.179 C 
HETATM   16  C   UNK N   1      36.516  12.428  12.264  0.00  0.00     0.182 C 
HETATM   17  C   UNK N   1      36.396  13.481  11.183  0.00  0.00     0.198 C 
BRANCH  15  18
HETATM   18  C   UNK N   1      34.526  11.488  13.429  0.00  0.00     0.198 C 
BRANCH  18  19
HETATM   19  O   UNK N   1      33.937  11.062  12.238  0.00  0.00    -0.398 OA
HETATM   20  H   UNK N   1      34.249  11.255  11.340  0.00  0.00     0.209 HD
ENDBRANCH  18  19
ENDBRANCH  15  18
BRANCH  16  21
HETATM   21  O   UNK N   1      37.697  12.563  13.001  0.00  0.00    -0.390 OA
HETATM   22  H   UNK N   1      38.026  13.275  13.572  0.00  0.00     0.210 HD
ENDBRANCH  16  21
BRANCH  17  23
HETATM   23  O   UNK N   1      37.635  14.047  10.866  0.00  0.00    -0.388 OA
HETATM   24  H   UNK N   1      38.257  14.331  11.554  0.00  0.00     0.210 HD
ENDBRANCH  17  23
ENDBRANCH   2  13
TORSDOF 5
ENDMDL
MODEL 3
REMARK VINA RESULT:      -5.6      2.702      5.289
REMARK  5 active torsions:
REMARK  status: ('A' for Active; 'I' for Inactive)
REMARK    1  A    between atoms: C_12  and  O_2 
REMARK    2  A    between atoms: C_13  and  O_3 
REMARK    3  A    between atoms: O_4  and  C_16 
REMARK    4  A    between atoms: C_15  and  N_6 
REMARK       I    between atoms: N_11  and  C_19 
REMARK    5  A    between atoms: C_14  and  C_16 
ROOT
HETATM    1  O   UNK N   1      22.208  21.515   2.715  0.00  0.00    -0.246 OA
HETATM    2  N   UNK N   1      22.586  19.403   3.433  0.00  0.00    -0.265 N 
HETATM    3  N   UNK N   1      20.509  20.083   2.490  0.00  0.00    -0.141 N 
ATOM      4  HN  UNK N   1      19.924  20.805   2.068  1.00  0.00     0.189 HD
HETATM    5  N   UNK N   1      20.790  17.875   3.227  0.00  0.00    -0.188 N 
ATOM      6  HN  UNK N   1      20.416  16.936   3.359  1.00  0.00     0.185 HD
HETATM    7  N   UNK N   1      18.685  18.544   2.309  0.00  0.00    -0.234 N 
HETATM    8  C   UNK N   1      21.790  20.379   2.865  0.00  0.00     0.343 A 
HETATM    9  C   UNK N   1      22.062  18.154   3.604  0.00  0.00     0.208 A 
HETATM   10  C   UNK N   1      20.013  18.836   2.674  0.00  0.00     0.680 A 
HETATM   11  H   UNK N   1      18.279  17.677   2.542  0.00  0.00     0.174 HD
HETATM   12  H   UNK N   1      18.157  19.213   1.816  0.00  0.00     0.174 HD
ENDROOT
BRANCH   2  13
HETATM   13  C   UNK N   1      23.952  19.690   3.918  0.00  0.00     0.265 C 
HETATM   14  O   UNK N   1      24.366  18.731   4.855  0.00  0.00    -0.353 OA
HETATM   15  C   UNK N   1      25.757  18.900   4.941  0.00  0.00     0.179 C 
HETATM   16  C   UNK N   1      26.271  19.386   3.596  0.00  0.00     0.182 C 
HETATM   17  C   UNK N   1      24.998  19.658   2.823  0.00  0.00     0.198 C 
BRANCH  15  18
HETATM   18  C   UNK N   1      26.423  17.588   5.312  0.00  0.00     0.198 C 
BRANCH  18  19
HETATM   19  O   UNK N   1      25.503  16.754   5.949  0.00  0.00    -0.398 OA
HETATM   20  H   UNK N   1      25.311  16.728   6.899  0.00  0.00     0.209 HD
ENDBRANCH  18  19
ENDBRANCH  15  18
BRANCH  16  21
HETATM   21  O   UNK N   1      27.019  20.549   3.805  0.00  0.00    -0.390 OA
HETATM   22  H   UNK N   1      27.943  20.768   3.609  0.00  0.00     0.210 HD
ENDBRANCH  16  21
BRANCH  17  23
HETATM   23  O   UNK N   1      25.062  20.865   2.120  0.00  0.00    -0.388 OA
HETATM   24  H   UNK N   1      24.471  21.607   2.325  0.00  0.00     0.210 HD
ENDBRANCH  17  23
ENDBRANCH   2  13
TORSDOF 5
ENDMDL
MODEL 4
REMARK VINA RESULT:      -5.4      9.795     11.293
REMARK  5 active torsions:
REMARK  status: ('A' for Active; 'I' for Inactive)
REMARK    1  A    between atoms: C_12  and  O_2 
REMARK    2  A    between atoms: C_13  and  O_3 
REMARK    3  A    between atoms: O_4  and  C_16 
REMARK    4  A    between atoms: C_15  and  N_6 
REMARK       I    between atoms: N_11  and  C_19 
REMARK    5  A    between atoms: C_14  and  C_16 
ROOT
HETATM    1  O   UNK N   1      30.488  23.096  -1.537  0.00  0.00    -0.246 OA
HETATM    2  N   UNK N   1      29.688  23.084  -3.653  0.00  0.00    -0.265 N 
HETATM    3  N   UNK N   1      31.196  21.429  -2.844  0.00  0.00    -0.141 N 
ATOM      4  HN  UNK N   1      31.756  21.039  -2.086  1.00  0.00     0.189 HD
HETATM    5  N   UNK N   1      30.446  21.342  -5.064  0.00  0.00    -0.188 N 
ATOM      6  HN  UNK N   1      30.441  20.884  -5.976  1.00  0.00     0.185 HD
HETATM    7  N   UNK N   1      31.982  19.684  -4.282  0.00  0.00    -0.234 N 
HETATM    8  C   UNK N   1      30.451  22.555  -2.630  0.00  0.00     0.343 A 
HETATM    9  C   UNK N   1      29.702  22.457  -4.866  0.00  0.00     0.208 A 
HETATM   10  C   UNK N   1      31.194  20.829  -4.059  0.00  0.00     0.680 A 
HETATM   11  H   UNK N   1      32.077  19.308  -5.186  0.00  0.00     0.174 HD
HETATM   12  H   UNK N   1      32.444  19.256  -3.525  0.00  0.00     0.174 HD
ENDROOT
BRANCH   2  13
HETATM   13  C   UNK N   1      28.921  24.337  -3.492  0.00  0.00     0.265 C 
HETATM   14  O   UNK N   1      29.300  25.287  -4.454  0.00  0.00    -0.353 OA
HETATM   15  C   UNK N   1      28.271  26.242  -4.428  0.00  0.00     0.179 C 
HETATM   16  C   UNK N   1      26.973  25.550  -4.049  0.00  0.00     0.182 C 
HETATM   17  C   UNK N   1      27.428  24.155  -3.674  0.00  0.00     0.198 C 
BRANCH  15  18
HETATM   18  C   UNK N   1      28.134  26.903  -5.787  0.00  0.00     0.198 C 
BRANCH  18  19
HETATM   19  O   UNK N   1      26.841  27.404  -5.941  0.00  0.00    -0.398 OA
HETATM   20  H   UNK N   1      26.249  27.697  -5.231  0.00  0.00     0.209 HD
ENDBRANCH  18  19
ENDBRANCH  15  18
BRANCH  16  21
HETATM   21  O   UNK N   1      26.412  26.229  -2.963  0.00  0.00    -0.390 OA
HETATM   22  H   UNK N   1      26.439  27.162  -2.700  0.00  0.00     0.210 HD
ENDBRANCH  16  21
BRANCH  17  23
HETATM   23  O   UNK N   1      26.807  23.699  -2.508  0.00  0.00    -0.388 OA
HETATM   24  H   UNK N   1      27.231  23.777  -1.640  0.00  0.00     0.210 HD
ENDBRANCH  17  23
ENDBRANCH   2  13
TORSDOF 5
ENDMDL
MODEL 5
REMARK VINA RESULT:      -5.4     12.404     14.532
REMARK  5 active torsions:
REMARK  status: ('A' for Active; 'I' for Inactive)
REMARK    1  A    between atoms: C_12  and  O_2 
REMARK    2  A    between atoms: C_13  and  O_3 
REMARK    3  A    between atoms: O_4  and  C_16 
REMARK    4  A    between atoms: C_15  and  N_6 
REMARK       I    between atoms: N_11  and  C_19 
REMARK    5  A    between atoms: C_14  and  C_16 
ROOT
HETATM    1  O   UNK N   1      35.214  17.971   9.624  0.00  0.00    -0.246 OA
HETATM    2  N   UNK N   1      34.611  15.885   8.991  0.00  0.00    -0.265 N 
HETATM    3  N   UNK N   1      34.340  17.782   7.577  0.00  0.00    -0.141 N 
ATOM      4  HN  UNK N   1      34.446  18.783   7.412  1.00  0.00     0.189 HD
HETATM    5  N   UNK N   1      33.659  15.664   6.835  0.00  0.00    -0.188 N 
ATOM      6  HN  UNK N   1      33.254  15.072   6.110  1.00  0.00     0.185 HD
HETATM    7  N   UNK N   1      33.351  17.560   5.409  0.00  0.00    -0.234 N 
HETATM    8  C   UNK N   1      34.750  17.241   8.764  0.00  0.00     0.343 A 
HETATM    9  C   UNK N   1      34.061  15.114   8.006  0.00  0.00     0.208 A 
HETATM   10  C   UNK N   1      33.794  16.994   6.620  0.00  0.00     0.680 A 
HETATM   11  H   UNK N   1      32.851  17.019   4.755  0.00  0.00     0.174 HD
HETATM   12  H   UNK N   1      33.543  18.506   5.215  0.00  0.00     0.174 HD
ENDROOT
BRANCH   2  13
HETATM   13  C   UNK N   1      34.974  15.264  10.281  0.00  0.00     0.265 C 
HETATM   14  O   UNK N   1      34.306  14.042  10.459  0.00  0.00    -0.353 OA
HETATM   15  C   UNK N   1      35.003  13.408  11.499  0.00  0.00     0.179 C 
HETATM   16  C   UNK N   1      36.458  13.844  11.447  0.00  0.00     0.182 C 
HETATM   17  C   UNK N   1      36.448  14.935  10.397  0.00  0.00     0.198 C 
BRANCH  15  18
HETATM   18  C   UNK N   1      34.903  11.901  11.355  0.00  0.00     0.198 C 
BRANCH  18  19
HETATM   19  O   UNK N   1      33.846  11.577  10.505  0.00  0.00    -0.398 OA
HETATM   20  H   UNK N   1      33.508  12.117   9.774  0.00  0.00     0.209 HD
ENDBRANCH  18  19
ENDBRANCH  15  18
BRANCH  16  21
HETATM   21  O   UNK N   1      36.818  14.330  12.707  0.00  0.00    -0.390 OA
HETATM   22  H   UNK N   1      37.678  14.409  13.148  0.00  0.00     0.210 HD
ENDBRANCH  16  21
BRANCH  17  23
HETATM   23  O   UNK N   1      37.207  16.043  10.788  0.00  0.00    -0.388 OA
HETATM   24  H   UNK N   1      37.030  16.930  10.439  0.00  0.00     0.210 HD
ENDBRANCH  17  23
ENDBRANCH   2  13
TORSDOF 5
ENDMDL
MODEL 6
REMARK VINA RESULT:      -5.4     11.413     13.812
REMARK  5 active torsions:
REMARK  status: ('A' for Active; 'I' for Inactive)
REMARK    1  A    between atoms: C_12  and  O_2 
REMARK    2  A    between atoms: C_13  and  O_3 
REMARK    3  A    between atoms: O_4  and  C_16 
REMARK    4  A    between atoms: C_15  and  N_6 
REMARK       I    between atoms: N_11  and  C_19 
REMARK    5  A    between atoms: C_14  and  C_16 
ROOT
HETATM    1  O   UNK N   1      36.820  16.453  10.754  0.00  0.00    -0.246 OA
HETATM    2  N   UNK N   1      35.086  15.124  10.166  0.00  0.00    -0.265 N 
HETATM    3  N   UNK N   1      36.214  14.910  12.252  0.00  0.00    -0.141 N 
ATOM      4  HN  UNK N   1      36.936  15.221  12.902  1.00  0.00     0.189 HD
HETATM    5  N   UNK N   1      34.442  13.466  11.727  0.00  0.00    -0.188 N 
ATOM      6  HN  UNK N   1      33.832  12.690  11.985  1.00  0.00     0.185 HD
HETATM    7  N   UNK N   1      35.580  13.214  13.817  0.00  0.00    -0.234 N 
HETATM    8  C   UNK N   1      36.065  15.540  11.048  0.00  0.00     0.343 A 
HETATM    9  C   UNK N   1      34.283  14.080  10.531  0.00  0.00     0.208 A 
HETATM   10  C   UNK N   1      35.406  13.875  12.586  0.00  0.00     0.680 A 
HETATM   11  H   UNK N   1      35.077  12.392  14.021  0.00  0.00     0.174 HD
HETATM   12  H   UNK N   1      36.211  13.576  14.480  0.00  0.00     0.174 HD
ENDROOT
BRANCH   2  13
HETATM   13  C   UNK N   1      34.930  15.726   8.826  0.00  0.00     0.265 C 
HETATM   14  O   UNK N   1      34.159  14.903   7.990  0.00  0.00    -0.353 OA
HETATM   15  C   UNK N   1      33.787  15.735   6.923  0.00  0.00     0.179 C 
HETATM   16  C   UNK N   1      33.672  17.161   7.435  0.00  0.00     0.182 C 
HETATM   17  C   UNK N   1      34.212  17.061   8.846  0.00  0.00     0.198 C 
BRANCH  15  18
HETATM   18  C   UNK N   1      32.463  15.281   6.340  0.00  0.00     0.198 C 
BRANCH  18  19
HETATM   19  O   UNK N   1      31.446  16.149   6.742  0.00  0.00    -0.398 OA
HETATM   20  H   UNK N   1      30.880  16.679   6.161  0.00  0.00     0.209 HD
ENDBRANCH  18  19
ENDBRANCH  15  18
BRANCH  16  21
HETATM   21  O   UNK N   1      34.462  17.985   6.627  0.00  0.00    -0.390 OA
HETATM   22  H   UNK N   1      35.422  18.046   6.509  0.00  0.00     0.210 HD
ENDBRANCH  16  21
BRANCH  17  23
HETATM   23  O   UNK N   1      35.074  18.118   9.151  0.00  0.00    -0.388 OA
HETATM   24  H   UNK N   1      34.784  19.042   9.105  0.00  0.00     0.210 HD
ENDBRANCH  17  23
ENDBRANCH   2  13
TORSDOF 5
ENDMDL
MODEL 7
REMARK VINA RESULT:      -5.4      2.660      4.230
REMARK  5 active torsions:
REMARK  status: ('A' for Active; 'I' for Inactive)
REMARK    1  A    between atoms: C_12  and  O_2 
REMARK    2  A    between atoms: C_13  and  O_3 
REMARK    3  A    between atoms: O_4  and  C_16 
REMARK    4  A    between atoms: C_15  and  N_6 
REMARK       I    between atoms: N_11  and  C_19 
REMARK    5  A    between atoms: C_14  and  C_16 
ROOT
HETATM    1  O   UNK N   1      20.540  15.921   5.864  0.00  0.00    -0.246 OA
HETATM    2  N   UNK N   1      21.931  17.401   4.868  0.00  0.00    -0.265 N 
HETATM    3  N   UNK N   1      22.717  15.660   6.290  0.00  0.00    -0.141 N 
ATOM      4  HN  UNK N   1      22.531  14.851   6.882  1.00  0.00     0.189 HD
HETATM    5  N   UNK N   1      24.241  17.160   5.325  0.00  0.00    -0.188 N 
ATOM      6  HN  UNK N   1      25.201  17.477   5.191  1.00  0.00     0.185 HD
HETATM    7  N   UNK N   1      25.051  15.437   6.772  0.00  0.00    -0.234 N 
HETATM    8  C   UNK N   1      21.682  16.307   5.674  0.00  0.00     0.343 A 
HETATM    9  C   UNK N   1      23.224  17.810   4.709  0.00  0.00     0.208 A 
HETATM   10  C   UNK N   1      23.990  16.090   6.116  0.00  0.00     0.680 A 
HETATM   11  H   UNK N   1      25.963  15.807   6.745  0.00  0.00     0.174 HD
HETATM   12  H   UNK N   1      24.879  14.600   7.263  0.00  0.00     0.174 HD
ENDROOT
BRANCH   2  13
HETATM   13  C   UNK N   1      20.841  18.175   4.238  0.00  0.00     0.265 C 
HETATM   14  O   UNK N   1      21.280  19.456   3.870  0.00  0.00    -0.353 OA
HETATM   15  C   UNK N   1      20.300  19.922   2.979  0.00  0.00     0.179 C 
HETATM   16  C   UNK N   1      19.709  18.732   2.242  0.00  0.00     0.182 C 
HETATM   17  C   UNK N   1      20.321  17.548   2.960  0.00  0.00     0.198 C 
BRANCH  15  18
HETATM   18  C   UNK N   1      20.910  20.898   1.992  0.00  0.00     0.198 C 
BRANCH  18  19
HETATM   19  O   UNK N   1      20.181  20.886   0.803  0.00  0.00    -0.398 OA
HETATM   20  H   UNK N   1      20.244  21.532   0.082  0.00  0.00     0.209 HD
ENDBRANCH  18  19
ENDBRANCH  15  18
BRANCH  16  21
HETATM   21  O   UNK N   1      18.319  18.772   2.384  0.00  0.00    -0.390 OA
HETATM   22  H   UNK N   1      17.752  18.979   3.144  0.00  0.00     0.210 HD
ENDBRANCH  16  21
BRANCH  17  23
HETATM   23  O   UNK N   1      19.379  16.546   3.210  0.00  0.00    -0.388 OA
HETATM   24  H   UNK N   1      19.616  15.727   3.674  0.00  0.00     0.210 HD
ENDBRANCH  17  23
ENDBRANCH   2  13
TORSDOF 5
ENDMDL
MODEL 8
REMARK VINA RESULT:      -5.3     11.669     13.978
REMARK  5 active torsions:
REMARK  status: ('A' for Active; 'I' for Inactive)
REMARK    1  A    between atoms: C_12  and  O_2 
REMARK    2  A    between atoms: C_13  and  O_3 
REMARK    3  A    between atoms: O_4  and  C_16 
REMARK    4  A    between atoms: C_15  and  N_6 
REMARK       I    between atoms: N_11  and  C_19 
REMARK    5  A    between atoms: C_14  and  C_16 
ROOT
HETATM    1  O   UNK N   1      34.866  15.230  12.285  0.00  0.00    -0.246 OA
HETATM    2  N   UNK N   1      35.330  15.250  10.071  0.00  0.00    -0.265 N 
HETATM    3  N   UNK N   1      36.709  14.134  11.659  0.00  0.00    -0.141 N 
ATOM      4  HN  UNK N   1      36.903  13.860  12.622  1.00  0.00     0.189 HD
HETATM    5  N   UNK N   1      37.292  14.116   9.388  0.00  0.00    -0.188 N 
ATOM      6  HN  UNK N   1      37.926  13.826   8.643  1.00  0.00     0.185 HD
HETATM    7  N   UNK N   1      38.708  13.013  10.969  0.00  0.00    -0.234 N 
HETATM    8  C   UNK N   1      35.599  14.879  11.374  0.00  0.00     0.343 A 
HETATM    9  C   UNK N   1      36.196  14.855   9.091  0.00  0.00     0.208 A 
HETATM   10  C   UNK N   1      37.552  13.759  10.667  0.00  0.00     0.680 A 
HETATM   11  H   UNK N   1      39.384  12.833  10.277  0.00  0.00     0.174 HD
HETATM   12  H   UNK N   1      38.841  12.668  11.882  0.00  0.00     0.174 HD
ENDROOT
BRANCH   2  13
HETATM   13  C   UNK N   1      34.182  16.112   9.721  0.00  0.00     0.265 C 
HETATM   14  O   UNK N   1      34.418  16.804   8.523  0.00  0.00    -0.353 OA
HETATM   15  C   UNK N   1      33.153  17.268   8.130  0.00  0.00     0.179 C 
HETATM   16  C   UNK N   1      32.101  16.286   8.619  0.00  0.00     0.182 C 
HETATM   17  C   UNK N   1      32.899  15.340   9.493  0.00  0.00     0.198 C 
BRANCH  15  18
HETATM   18  C   UNK N   1      33.087  17.395   6.620  0.00  0.00     0.198 C 
BRANCH  18  19
HETATM   19  O   UNK N   1      34.273  17.953   6.140  0.00  0.00    -0.398 OA
HETATM   20  H   UNK N   1      34.578  18.862   6.279  0.00  0.00     0.209 HD
ENDBRANCH  18  19
ENDBRANCH  15  18
BRANCH  16  21
HETATM   21  O   UNK N   1      31.143  16.995   9.349  0.00  0.00    -0.390 OA
HETATM   22  H   UNK N   1      31.081  17.930   9.599  0.00  0.00     0.210 HD
ENDBRANCH  16  21
BRANCH  17  23
HETATM   23  O   UNK N   1      32.237  15.052  10.690  0.00  0.00    -0.388 OA
HETATM   24  H   UNK N   1      32.290  14.177  11.104  0.00  0.00     0.210 HD
ENDBRANCH  17  23
ENDBRANCH   2  13
TORSDOF 5
ENDMDL
MODEL 9
REMARK VINA RESULT:      -5.3     13.898     16.305
REMARK  5 active torsions:
REMARK  status: ('A' for Active; 'I' for Inactive)
REMARK    1  A    between atoms: C_12  and  O_2 
REMARK    2  A    between atoms: C_13  and  O_3 
REMARK    3  A    between atoms: O_4  and  C_16 
REMARK    4  A    between atoms: C_15  and  N_6 
REMARK       I    between atoms: N_11  and  C_19 
REMARK    5  A    between atoms: C_14  and  C_16 
ROOT
HETATM    1  O   UNK N   1      35.460  13.656   9.003  0.00  0.00    -0.246 OA
HETATM    2  N   UNK N   1      35.531  14.894  10.894  0.00  0.00    -0.265 N 
HETATM    3  N   UNK N   1      34.995  15.828   8.771  0.00  0.00    -0.141 N 
ATOM      4  HN  UNK N   1      34.841  15.714   7.769  1.00  0.00     0.189 HD
HETATM    5  N   UNK N   1      35.066  17.204  10.669  0.00  0.00    -0.188 N 
ATOM      6  HN  UNK N   1      34.964  18.126  11.093  1.00  0.00     0.185 HD
HETATM    7  N   UNK N   1      34.553  18.169   8.541  0.00  0.00    -0.234 N 
HETATM    8  C   UNK N   1      35.326  14.745   9.537  0.00  0.00     0.343 A 
HETATM    9  C   UNK N   1      35.395  16.139  11.439  0.00  0.00     0.208 A 
HETATM   10  C   UNK N   1      34.869  17.052   9.338  0.00  0.00     0.680 A 
HETATM   11  H   UNK N   1      34.571  19.077   8.920  0.00  0.00     0.174 HD
HETATM   12  H   UNK N   1      34.311  18.040   7.595  0.00  0.00     0.174 HD
ENDROOT
BRANCH   2  13
HETATM   13  C   UNK N   1      35.958  13.769  11.752  0.00  0.00     0.265 C 
HETATM   14  O   UNK N   1      36.589  14.234  12.916  0.00  0.00    -0.353 OA
HETATM   15  C   UNK N   1      36.598  13.125  13.778  0.00  0.00     0.179 C 
HETATM   16  C   UNK N   1      35.379  12.268  13.481  0.00  0.00     0.182 C 
HETATM   17  C   UNK N   1      34.806  12.911  12.235  0.00  0.00     0.198 C 
BRANCH  15  18
HETATM   18  C   UNK N   1      36.575  13.584  15.223  0.00  0.00     0.198 C 
BRANCH  18  19
HETATM   19  O   UNK N   1      37.623  14.477  15.453  0.00  0.00    -0.398 OA
HETATM   20  H   UNK N   1      37.563  15.327  15.914  0.00  0.00     0.209 HD
ENDBRANCH  18  19
ENDBRANCH  15  18
BRANCH  16  21
HETATM   21  O   UNK N   1      35.808  10.958  13.246  0.00  0.00    -0.390 OA
HETATM   22  H   UNK N   1      36.028  10.232  13.850  0.00  0.00     0.210 HD
ENDBRANCH  16  21
BRANCH  17  23
HETATM   23  O   UNK N   1      34.423  11.959  11.285  0.00  0.00    -0.388 OA
HETATM   24  H   UNK N   1      34.715  12.015  10.361  0.00  0.00     0.210 HD
ENDBRANCH  17  23
ENDBRANCH   2  13
TORSDOF 5
ENDMDL
