MODEL 1
REMARK VINA RESULT:      -5.3      0.000      0.000
REMARK  16 active torsions:
REMARK  status: ('A' for Active; 'I' for Inactive)
REMARK    1  A    between atoms: C_8  and  O_1 
REMARK    2  A    between atoms: O_3  and  C_16 
REMARK    3  A    between atoms: O_4  and  C_26 
REMARK    4  A    between atoms: C_6  and  C_10 
REMARK    5  A    between atoms: C_7  and  C_12 
REMARK    6  A    between atoms: C_10  and  C_13 
REMARK    7  A    between atoms: C_13  and  C_14 
REMARK    8  A    between atoms: C_14  and  C_18 
REMARK    9  A    between atoms: C_15  and  C_17 
REMARK   10  A    between atoms: C_16  and  C_17 
REMARK   11  A    between atoms: C_16  and  C_19 
REMARK   12  A    between atoms: C_18  and  C_21 
REMARK   13  A    between atoms: C_19  and  C_22 
REMARK   14  A    between atoms: C_21  and  C_24 
REMARK   15  A    between atoms: C_22  and  C_23 
REMARK   16  A    between atoms: C_24  and  C_26 
ROOT
HETATM    1  O   UNK N   1      32.192  21.363  -5.190  0.00  0.00    -0.297 OA
HETATM    2  C   UNK N   1      30.459  22.980  -4.979  0.00  0.00     0.065 C 
HETATM    3  C   UNK N   1      29.949  23.593  -3.669  0.00  0.00     0.048 C 
HETATM    4  C   UNK N   1      30.173  22.537  -2.599  0.00  0.00     0.133 C 
HETATM    5  C   UNK N   1      31.462  21.838  -2.987  0.00  0.00     0.111 C 
HETATM    6  C   UNK N   1      31.457  22.007  -4.459  0.00  0.00     0.134 C 
ENDROOT
BRANCH   3   7
HETATM    7  C   UNK N   1      28.525  24.042  -3.663  0.00  0.00    -0.023 C 
HETATM    8  C   UNK N   1      28.149  25.281  -3.960  0.00  0.00    -0.027 C 
BRANCH   8   9
HETATM    9  C   UNK N   1      26.683  25.565  -3.947  0.00  0.00     0.064 C 
BRANCH   9  10
HETATM   10  C   UNK N   1      26.273  27.027  -4.165  0.00  0.00     0.057 C 
HETATM   11  C   UNK N   1      25.093  27.205  -5.115  0.00  0.00     0.046 C 
BRANCH  10  12
HETATM   12  O   UNK N   1      25.948  27.588  -2.927  0.00  0.00    -0.390 OA
HETATM   13  H   UNK N   1      25.211  27.658  -2.300  0.00  0.00     0.210 HD
ENDBRANCH  10  12
BRANCH  10  14
HETATM   14  C   UNK N   1      27.499  27.705  -4.786  0.00  0.00     0.038 C 
BRANCH  14  15
HETATM   15  C   UNK N   1      27.213  28.717  -5.887  0.00  0.00     0.002 C 
BRANCH  15  16
HETATM   16  C   UNK N   1      28.196  28.622  -7.033  0.00  0.00    -0.004 C 
HETATM   17  C   UNK N   1      28.916  27.293  -6.930  0.00  0.00     0.005 C 
ENDBRANCH  15  16
ENDBRANCH  14  15
ENDBRANCH  10  14
ENDBRANCH   9  10
ENDBRANCH   8   9
ENDBRANCH   3   7
BRANCH   2  18
HETATM   18  C   UNK N   1      29.410  22.202  -5.771  0.00  0.00     0.013 C 
BRANCH  18  19
HETATM   19  C   UNK N   1      29.322  22.680  -7.220  0.00  0.00     0.001 C 
BRANCH  19  20
HETATM   20  C   UNK N   1      28.140  23.618  -7.520  0.00  0.00     0.000 C 
BRANCH  20  21
HETATM   21  C   UNK N   1      26.790  23.208  -6.925  0.00  0.00     0.000 C 
BRANCH  21  22
HETATM   22  C   UNK N   1      25.703  24.238  -7.191  0.00  0.00     0.010 C 
BRANCH  22  23
HETATM   23  C   UNK N   1      26.168  25.247  -8.225  0.00  0.00     0.111 C 
BRANCH  23  24
HETATM   24  C   UNK N   1      25.385  25.157  -9.504  0.00  0.00     0.258 C 
HETATM   25  O   UNK N   1      24.998  24.075  -9.924  0.00  0.00    -0.265 OA
BRANCH  24  26
HETATM   26  O   UNK N   1      25.127  26.295 -10.192  0.00  0.00    -0.326 OA
HETATM   27  C   UNK N   1      24.350  26.305 -11.326  0.00  0.00     0.213 C 
ENDBRANCH  24  26
ENDBRANCH  23  24
ENDBRANCH  22  23
ENDBRANCH  21  22
ENDBRANCH  20  21
ENDBRANCH  19  20
ENDBRANCH  18  19
ENDBRANCH   2  18
BRANCH   4  28
HETATM   28  O   UNK N   1      30.284  23.124  -1.339  0.00  0.00    -0.394 OA
HETATM   29  H   UNK N   1      29.513  23.407  -0.822  0.00  0.00     0.210 HD
ENDBRANCH   4  28
TORSDOF 16
ENDMDL
MODEL 2
REMARK VINA RESULT:      -5.3      1.826      6.249
REMARK  16 active torsions:
REMARK  status: ('A' for Active; 'I' for Inactive)
REMARK    1  A    between atoms: C_8  and  O_1 
REMARK    2  A    between atoms: O_3  and  C_16 
REMARK    3  A    between atoms: O_4  and  C_26 
REMARK    4  A    between atoms: C_6  and  C_10 
REMARK    5  A    between atoms: C_7  and  C_12 
REMARK    6  A    between atoms: C_10  and  C_13 
REMARK    7  A    between atoms: C_13  and  C_14 
REMARK    8  A    between atoms: C_14  and  C_18 
REMARK    9  A    between atoms: C_15  and  C_17 
REMARK   10  A    between atoms: C_16  and  C_17 
REMARK   11  A    between atoms: C_16  and  C_19 
REMARK   12  A    between atoms: C_18  and  C_21 
REMARK   13  A    between atoms: C_19  and  C_22 
REMARK   14  A    between atoms: C_21  and  C_24 
REMARK   15  A    between atoms: C_22  and  C_23 
REMARK   16  A    between atoms: C_24  and  C_26 
ROOT
HETATM    1  O   UNK N   1      25.410  22.023  -7.222  0.00  0.00    -0.297 OA
HETATM    2  C   UNK N   1      25.659  24.224  -6.352  0.00  0.00     0.065 C 
HETATM    3  C   UNK N   1      25.676  25.522  -7.168  0.00  0.00     0.048 C 
HETATM    4  C   UNK N   1      26.232  25.149  -8.533  0.00  0.00     0.133 C 
HETATM    5  C   UNK N   1      25.711  23.753  -8.812  0.00  0.00     0.111 C 
HETATM    6  C   UNK N   1      25.562  23.215  -7.439  0.00  0.00     0.134 C 
ENDROOT
BRANCH   3   7
HETATM    7  C   UNK N   1      26.453  26.656  -6.585  0.00  0.00    -0.023 C 
HETATM    8  C   UNK N   1      25.931  27.544  -5.746  0.00  0.00    -0.027 C 
BRANCH   8   9
HETATM    9  C   UNK N   1      26.848  28.598  -5.218  0.00  0.00     0.064 C 
BRANCH   9  10
HETATM   10  C   UNK N   1      26.557  29.101  -3.798  0.00  0.00     0.057 C 
HETATM   11  C   UNK N   1      26.446  30.618  -3.690  0.00  0.00     0.046 C 
BRANCH  10  12
HETATM   12  O   UNK N   1      25.363  28.524  -3.357  0.00  0.00    -0.390 OA
HETATM   13  H   UNK N   1      24.812  27.737  -3.488  0.00  0.00     0.210 HD
ENDBRANCH  10  12
BRANCH  10  14
HETATM   14  C   UNK N   1      27.750  28.643  -2.952  0.00  0.00     0.038 C 
BRANCH  14  15
HETATM   15  C   UNK N   1      28.986  29.531  -3.009  0.00  0.00     0.002 C 
BRANCH  15  16
HETATM   16  C   UNK N   1      30.263  28.738  -3.171  0.00  0.00    -0.004 C 
HETATM   17  C   UNK N   1      30.543  28.587  -4.652  0.00  0.00     0.005 C 
ENDBRANCH  15  16
ENDBRANCH  14  15
ENDBRANCH  10  14
ENDBRANCH   9  10
ENDBRANCH   8   9
ENDBRANCH   3   7
BRANCH   2  18
HETATM   18  C   UNK N   1      26.937  23.947  -5.564  0.00  0.00     0.013 C 
BRANCH  18  19
HETATM   19  C   UNK N   1      26.745  24.183  -4.067  0.00  0.00     0.001 C 
BRANCH  19  20
HETATM   20  C   UNK N   1      27.870  24.984  -3.389  0.00  0.00     0.000 C 
BRANCH  20  21
HETATM   21  C   UNK N   1      29.119  25.237  -4.238  0.00  0.00     0.000 C 
BRANCH  21  22
HETATM   22  C   UNK N   1      30.405  25.000  -3.461  0.00  0.00     0.010 C 
BRANCH  22  23
HETATM   23  C   UNK N   1      30.976  23.630  -3.782  0.00  0.00     0.111 C 
BRANCH  23  24
HETATM   24  C   UNK N   1      30.726  22.636  -2.684  0.00  0.00     0.258 C 
HETATM   25  O   UNK N   1      30.516  23.010  -1.539  0.00  0.00    -0.265 OA
BRANCH  24  26
HETATM   26  O   UNK N   1      30.752  21.315  -2.983  0.00  0.00    -0.326 OA
HETATM   27  C   UNK N   1      31.155  20.849  -4.212  0.00  0.00     0.213 C 
ENDBRANCH  24  26
ENDBRANCH  23  24
ENDBRANCH  22  23
ENDBRANCH  21  22
ENDBRANCH  20  21
ENDBRANCH  19  20
ENDBRANCH  18  19
ENDBRANCH   2  18
BRANCH   4  28
HETATM   28  O   UNK N   1      25.798  26.048  -9.507  0.00  0.00    -0.394 OA
HETATM   29  H   UNK N   1      25.169  25.805 -10.204  0.00  0.00     0.210 HD
ENDBRANCH   4  28
TORSDOF 16
ENDMDL
MODEL 3
REMARK VINA RESULT:      -5.1      2.012      2.885
REMARK  16 active torsions:
REMARK  status: ('A' for Active; 'I' for Inactive)
REMARK    1  A    between atoms: C_8  and  O_1 
REMARK    2  A    between atoms: O_3  and  C_16 
REMARK    3  A    between atoms: O_4  and  C_26 
REMARK    4  A    between atoms: C_6  and  C_10 
REMARK    5  A    between atoms: C_7  and  C_12 
REMARK    6  A    between atoms: C_10  and  C_13 
REMARK    7  A    between atoms: C_13  and  C_14 
REMARK    8  A    between atoms: C_14  and  C_18 
REMARK    9  A    between atoms: C_15  and  C_17 
REMARK   10  A    between atoms: C_16  and  C_17 
REMARK   11  A    between atoms: C_16  and  C_19 
REMARK   12  A    between atoms: C_18  and  C_21 
REMARK   13  A    between atoms: C_19  and  C_22 
REMARK   14  A    between atoms: C_21  and  C_24 
REMARK   15  A    between atoms: C_22  and  C_23 
REMARK   16  A    between atoms: C_24  and  C_26 
ROOT
HETATM    1  O   UNK N   1      33.492  20.434  -4.817  0.00  0.00    -0.297 OA
HETATM    2  C   UNK N   1      31.523  21.678  -5.303  0.00  0.00     0.065 C 
HETATM    3  C   UNK N   1      30.744  22.560  -4.319  0.00  0.00     0.048 C 
HETATM    4  C   UNK N   1      30.969  21.949  -2.945  0.00  0.00     0.133 C 
HETATM    5  C   UNK N   1      32.390  21.420  -2.967  0.00  0.00     0.111 C 
HETATM    6  C   UNK N   1      32.571  21.122  -4.407  0.00  0.00     0.134 C 
ENDROOT
BRANCH   3   7
HETATM    7  C   UNK N   1      29.283  22.711  -4.585  0.00  0.00    -0.023 C 
HETATM    8  C   UNK N   1      28.781  23.625  -5.408  0.00  0.00    -0.027 C 
BRANCH   8   9
HETATM    9  C   UNK N   1      27.300  23.625  -5.600  0.00  0.00     0.064 C 
BRANCH   9  10
HETATM   10  C   UNK N   1      26.607  24.992  -5.536  0.00  0.00     0.057 C 
HETATM   11  C   UNK N   1      27.191  26.026  -6.493  0.00  0.00     0.046 C 
BRANCH  10  12
HETATM   12  O   UNK N   1      25.251  24.819  -5.825  0.00  0.00    -0.390 OA
HETATM   13  H   UNK N   1      24.651  24.220  -6.296  0.00  0.00     0.210 HD
ENDBRANCH  10  12
BRANCH  10  14
HETATM   14  C   UNK N   1      26.819  25.489  -4.102  0.00  0.00     0.038 C 
BRANCH  14  15
HETATM   15  C   UNK N   1      27.550  26.817  -3.959  0.00  0.00     0.002 C 
BRANCH  15  16
HETATM   16  C   UNK N   1      26.746  27.842  -3.190  0.00  0.00    -0.004 C 
HETATM   17  C   UNK N   1      25.592  28.291  -4.063  0.00  0.00     0.005 C 
ENDBRANCH  15  16
ENDBRANCH  14  15
ENDBRANCH  10  14
ENDBRANCH   9  10
ENDBRANCH   8   9
ENDBRANCH   3   7
BRANCH   2  18
HETATM   18  C   UNK N   1      30.728  20.510  -5.882  0.00  0.00     0.013 C 
BRANCH  18  19
HETATM   19  C   UNK N   1      30.471  20.684  -7.378  0.00  0.00     0.001 C 
BRANCH  19  20
HETATM   20  C   UNK N   1      29.197  19.996  -7.899  0.00  0.00     0.000 C 
BRANCH  20  21
HETATM   21  C   UNK N   1      27.871  20.655  -7.510  0.00  0.00     0.000 C 
BRANCH  21  22
HETATM   22  C   UNK N   1      27.166  21.287  -8.701  0.00  0.00     0.010 C 
BRANCH  22  23
HETATM   23  C   UNK N   1      25.678  20.985  -8.659  0.00  0.00     0.111 C 
BRANCH  23  24
HETATM   24  C   UNK N   1      24.901  22.045  -7.932  0.00  0.00     0.258 C 
HETATM   25  O   UNK N   1      24.560  21.881  -6.768  0.00  0.00    -0.265 OA
BRANCH  24  26
HETATM   26  O   UNK N   1      24.572  23.181  -8.592  0.00  0.00    -0.326 OA
HETATM   27  C   UNK N   1      25.521  24.015  -9.133  0.00  0.00     0.213 C 
ENDBRANCH  24  26
ENDBRANCH  23  24
ENDBRANCH  22  23
ENDBRANCH  21  22
ENDBRANCH  20  21
ENDBRANCH  19  20
ENDBRANCH  18  19
ENDBRANCH   2  18
BRANCH   4  28
HETATM   28  O   UNK N   1      30.808  22.907  -1.944  0.00  0.00    -0.394 OA
HETATM   29  H   UNK N   1      29.938  23.181  -1.614  0.00  0.00     0.210 HD
ENDBRANCH   4  28
TORSDOF 16
ENDMDL
MODEL 4
REMARK VINA RESULT:      -5.1     13.339     15.736
REMARK  16 active torsions:
REMARK  status: ('A' for Active; 'I' for Inactive)
REMARK    1  A    between atoms: C_8  and  O_1 
REMARK    2  A    between atoms: O_3  and  C_16 
REMARK    3  A    between atoms: O_4  and  C_26 
REMARK    4  A    between atoms: C_6  and  C_10 
REMARK    5  A    between atoms: C_7  and  C_12 
REMARK    6  A    between atoms: C_10  and  C_13 
REMARK    7  A    between atoms: C_13  and  C_14 
REMARK    8  A    between atoms: C_14  and  C_18 
REMARK    9  A    between atoms: C_15  and  C_17 
REMARK   10  A    between atoms: C_16  and  C_17 
REMARK   11  A    between atoms: C_16  and  C_19 
REMARK   12  A    between atoms: C_18  and  C_21 
REMARK   13  A    between atoms: C_19  and  C_22 
REMARK   14  A    between atoms: C_21  and  C_24 
REMARK   15  A    between atoms: C_22  and  C_23 
REMARK   16  A    between atoms: C_24  and  C_26 
ROOT
HETATM    1  O   UNK N   1      35.117  15.721   5.672  0.00  0.00    -0.297 OA
HETATM    2  C   UNK N   1      33.784  17.491   6.540  0.00  0.00     0.065 C 
HETATM    3  C   UNK N   1      33.496  17.763   8.022  0.00  0.00     0.048 C 
HETATM    4  C   UNK N   1      33.553  16.410   8.712  0.00  0.00     0.133 C 
HETATM    5  C   UNK N   1      34.637  15.634   7.990  0.00  0.00     0.111 C 
HETATM    6  C   UNK N   1      34.580  16.239   6.638  0.00  0.00     0.134 C 
ENDROOT
BRANCH   3   7
HETATM    7  C   UNK N   1      32.203  18.446   8.326  0.00  0.00    -0.023 C 
HETATM    8  C   UNK N   1      31.110  17.799   8.719  0.00  0.00    -0.027 C 
BRANCH   8   9
HETATM    9  C   UNK N   1      29.906  18.627   9.024  0.00  0.00     0.064 C 
BRANCH   9  10
HETATM   10  C   UNK N   1      28.566  18.092   8.503  0.00  0.00     0.057 C 
HETATM   11  C   UNK N   1      27.923  17.048   9.411  0.00  0.00     0.046 C 
BRANCH  10  12
HETATM   12  O   UNK N   1      27.686  19.167   8.351  0.00  0.00    -0.390 OA
HETATM   13  H   UNK N   1      27.650  20.068   7.993  0.00  0.00     0.210 HD
ENDBRANCH  10  12
BRANCH  10  14
HETATM   14  C   UNK N   1      28.886  17.431   7.159  0.00  0.00     0.038 C 
BRANCH  14  15
HETATM   15  C   UNK N   1      28.680  18.299   5.925  0.00  0.00     0.002 C 
BRANCH  15  16
HETATM   16  C   UNK N   1      27.715  17.683   4.937  0.00  0.00    -0.004 C 
HETATM   17  C   UNK N   1      28.506  17.195   3.742  0.00  0.00     0.005 C 
ENDBRANCH  15  16
ENDBRANCH  14  15
ENDBRANCH  10  14
ENDBRANCH   9  10
ENDBRANCH   8   9
ENDBRANCH   3   7
BRANCH   2  18
HETATM   18  C   UNK N   1      32.548  17.199   5.692  0.00  0.00     0.013 C 
BRANCH  18  19
HETATM   19  C   UNK N   1      32.669  17.790   4.288  0.00  0.00     0.001 C 
BRANCH  19  20
HETATM   20  C   UNK N   1      32.199  16.864   3.153  0.00  0.00     0.000 C 
BRANCH  20  21
HETATM   21  C   UNK N   1      32.885  15.497   3.076  0.00  0.00     0.000 C 
BRANCH  21  22
HETATM   22  C   UNK N   1      31.888  14.350   3.008  0.00  0.00     0.010 C 
BRANCH  22  23
HETATM   23  C   UNK N   1      30.940  14.400   4.193  0.00  0.00     0.111 C 
BRANCH  23  24
HETATM   24  C   UNK N   1      31.345  13.455   5.288  0.00  0.00     0.258 C 
HETATM   25  O   UNK N   1      31.780  13.880   6.350  0.00  0.00    -0.265 OA
BRANCH  24  26
HETATM   26  O   UNK N   1      31.232  12.122   5.074  0.00  0.00    -0.326 OA
HETATM   27  C   UNK N   1      32.284  11.258   5.267  0.00  0.00     0.213 C 
ENDBRANCH  24  26
ENDBRANCH  23  24
ENDBRANCH  22  23
ENDBRANCH  21  22
ENDBRANCH  20  21
ENDBRANCH  19  20
ENDBRANCH  18  19
ENDBRANCH   2  18
BRANCH   4  28
HETATM   28  O   UNK N   1      33.861  16.557  10.065  0.00  0.00    -0.394 OA
HETATM   29  H   UNK N   1      34.527  16.014  10.514  0.00  0.00     0.210 HD
ENDBRANCH   4  28
TORSDOF 16
ENDMDL
MODEL 5
REMARK VINA RESULT:      -5.0     12.348     15.839
REMARK  16 active torsions:
REMARK  status: ('A' for Active; 'I' for Inactive)
REMARK    1  A    between atoms: C_8  and  O_1 
REMARK    2  A    between atoms: O_3  and  C_16 
REMARK    3  A    between atoms: O_4  and  C_26 
REMARK    4  A    between atoms: C_6  and  C_10 
REMARK    5  A    between atoms: C_7  and  C_12 
REMARK    6  A    between atoms: C_10  and  C_13 
REMARK    7  A    between atoms: C_13  and  C_14 
REMARK    8  A    between atoms: C_14  and  C_18 
REMARK    9  A    between atoms: C_15  and  C_17 
REMARK   10  A    between atoms: C_16  and  C_17 
REMARK   11  A    between atoms: C_16  and  C_19 
REMARK   12  A    between atoms: C_18  and  C_21 
REMARK   13  A    between atoms: C_19  and  C_22 
REMARK   14  A    between atoms: C_21  and  C_24 
REMARK   15  A    between atoms: C_22  and  C_23 
REMARK   16  A    between atoms: C_24  and  C_26 
ROOT
HETATM    1  O   UNK N   1      19.290  17.598   3.701  0.00  0.00    -0.297 OA
HETATM    2  C   UNK N   1      21.582  18.099   4.096  0.00  0.00     0.065 C 
HETATM    3  C   UNK N   1      22.285  19.427   3.787  0.00  0.00     0.048 C 
HETATM    4  C   UNK N   1      21.542  20.025   2.602  0.00  0.00     0.133 C 
HETATM    5  C   UNK N   1      20.090  19.639   2.800  0.00  0.00     0.111 C 
HETATM    6  C   UNK N   1      20.223  18.374   3.561  0.00  0.00     0.134 C 
ENDROOT
BRANCH   3   7
HETATM    7  C   UNK N   1      23.746  19.346   3.494  0.00  0.00    -0.023 C 
HETATM    8  C   UNK N   1      24.682  19.351   4.438  0.00  0.00    -0.027 C 
BRANCH   8   9
HETATM    9  C   UNK N   1      26.100  19.225   3.988  0.00  0.00     0.064 C 
BRANCH   9  10
HETATM   10  C   UNK N   1      26.951  18.175   4.714  0.00  0.00     0.057 C 
HETATM   11  C   UNK N   1      28.274  18.714   5.247  0.00  0.00     0.046 C 
BRANCH  10  12
HETATM   12  O   UNK N   1      26.208  17.658   5.778  0.00  0.00    -0.390 OA
HETATM   13  H   UNK N   1      26.227  17.581   6.745  0.00  0.00     0.210 HD
ENDBRANCH  10  12
BRANCH  10  14
HETATM   14  C   UNK N   1      27.255  17.101   3.664  0.00  0.00     0.038 C 
BRANCH  14  15
HETATM   15  C   UNK N   1      26.097  16.183   3.298  0.00  0.00     0.002 C 
BRANCH  15  16
HETATM   16  C   UNK N   1      26.314  15.473   1.979  0.00  0.00    -0.004 C 
HETATM   17  C   UNK N   1      25.026  14.772   1.600  0.00  0.00     0.005 C 
ENDBRANCH  15  16
ENDBRANCH  14  15
ENDBRANCH  10  14
ENDBRANCH   9  10
ENDBRANCH   8   9
ENDBRANCH   3   7
BRANCH   2  18
HETATM   18  C   UNK N   1      22.147  16.890   3.353  0.00  0.00     0.013 C 
BRANCH  18  19
HETATM   19  C   UNK N   1      22.581  15.784   4.314  0.00  0.00     0.001 C 
BRANCH  19  20
HETATM   20  C   UNK N   1      22.985  16.269   5.717  0.00  0.00     0.000 C 
BRANCH  20  21
HETATM   21  C   UNK N   1      23.158  15.179   6.779  0.00  0.00     0.000 C 
BRANCH  21  22
HETATM   22  C   UNK N   1      21.845  14.497   7.129  0.00  0.00     0.010 C 
BRANCH  22  23
HETATM   23  C   UNK N   1      21.063  15.329   8.130  0.00  0.00     0.111 C 
BRANCH  23  24
HETATM   24  C   UNK N   1      20.594  14.519   9.305  0.00  0.00     0.258 C 
HETATM   25  O   UNK N   1      19.402  14.435   9.569  0.00  0.00    -0.265 OA
BRANCH  24  26
HETATM   26  O   UNK N   1      21.516  13.895  10.076  0.00  0.00    -0.326 OA
HETATM   27  C   UNK N   1      21.436  12.555  10.373  0.00  0.00     0.213 C 
ENDBRANCH  24  26
ENDBRANCH  23  24
ENDBRANCH  22  23
ENDBRANCH  21  22
ENDBRANCH  20  21
ENDBRANCH  19  20
ENDBRANCH  18  19
ENDBRANCH   2  18
BRANCH   4  28
HETATM   28  O   UNK N   1      21.691  21.411   2.573  0.00  0.00    -0.394 OA
HETATM   29  H   UNK N   1      20.946  22.022   2.687  0.00  0.00     0.210 HD
ENDBRANCH   4  28
TORSDOF 16
ENDMDL
MODEL 6
REMARK VINA RESULT:      -5.0     13.231     18.289
REMARK  16 active torsions:
REMARK  status: ('A' for Active; 'I' for Inactive)
REMARK    1  A    between atoms: C_8  and  O_1 
REMARK    2  A    between atoms: O_3  and  C_16 
REMARK    3  A    between atoms: O_4  and  C_26 
REMARK    4  A    between atoms: C_6  and  C_10 
REMARK    5  A    between atoms: C_7  and  C_12 
REMARK    6  A    between atoms: C_10  and  C_13 
REMARK    7  A    between atoms: C_13  and  C_14 
REMARK    8  A    between atoms: C_14  and  C_18 
REMARK    9  A    between atoms: C_15  and  C_17 
REMARK   10  A    between atoms: C_16  and  C_17 
REMARK   11  A    between atoms: C_16  and  C_19 
REMARK   12  A    between atoms: C_18  and  C_21 
REMARK   13  A    between atoms: C_19  and  C_22 
REMARK   14  A    between atoms: C_21  and  C_24 
REMARK   15  A    between atoms: C_22  and  C_23 
REMARK   16  A    between atoms: C_24  and  C_26 
ROOT
HETATM    1  O   UNK N   1      35.558  15.466   5.740  0.00  0.00    -0.297 OA
HETATM    2  C   UNK N   1      33.572  16.081   6.897  0.00  0.00     0.065 C 
HETATM    3  C   UNK N   1      32.208  16.372   6.260  0.00  0.00     0.048 C 
HETATM    4  C   UNK N   1      32.504  16.906   4.868  0.00  0.00     0.133 C 
HETATM    5  C   UNK N   1      33.730  16.147   4.397  0.00  0.00     0.111 C 
HETATM    6  C   UNK N   1      34.399  15.844   5.684  0.00  0.00     0.134 C 
ENDROOT
BRANCH   3   7
HETATM    7  C   UNK N   1      31.324  17.321   7.001  0.00  0.00    -0.023 C 
HETATM    8  C   UNK N   1      30.464  16.937   7.938  0.00  0.00    -0.027 C 
BRANCH   8   9
HETATM    9  C   UNK N   1      29.678  18.011   8.616  0.00  0.00     0.064 C 
BRANCH   9  10
HETATM   10  C   UNK N   1      28.192  18.101   8.245  0.00  0.00     0.057 C 
HETATM   11  C   UNK N   1      27.698  16.940   7.388  0.00  0.00     0.046 C 
BRANCH  10  12
HETATM   12  O   UNK N   1      27.442  18.149   9.423  0.00  0.00    -0.390 OA
HETATM   13  H   UNK N   1      27.545  18.104  10.386  0.00  0.00     0.210 HD
ENDBRANCH  10  12
BRANCH  10  14
HETATM   14  C   UNK N   1      28.053  19.393   7.434  0.00  0.00     0.038 C 
BRANCH  14  15
HETATM   15  C   UNK N   1      27.992  19.226   5.922  0.00  0.00     0.002 C 
BRANCH  15  16
HETATM   16  C   UNK N   1      27.506  20.474   5.219  0.00  0.00    -0.004 C 
HETATM   17  C   UNK N   1      27.241  21.535   6.267  0.00  0.00     0.005 C 
ENDBRANCH  15  16
ENDBRANCH  14  15
ENDBRANCH  10  14
ENDBRANCH   9  10
ENDBRANCH   8   9
ENDBRANCH   3   7
BRANCH   2  18
HETATM   18  C   UNK N   1      34.183  17.252   7.663  0.00  0.00     0.013 C 
BRANCH  18  19
HETATM   19  C   UNK N   1      34.363  16.929   9.146  0.00  0.00     0.001 C 
BRANCH  19  20
HETATM   20  C   UNK N   1      33.613  15.676   9.630  0.00  0.00     0.000 C 
BRANCH  20  21
HETATM   21  C   UNK N   1      34.245  14.930  10.809  0.00  0.00     0.000 C 
BRANCH  21  22
HETATM   22  C   UNK N   1      35.592  15.512  11.209  0.00  0.00     0.010 C 
BRANCH  22  23
HETATM   23  C   UNK N   1      35.970  15.064  12.609  0.00  0.00     0.111 C 
BRANCH  23  24
HETATM   24  C   UNK N   1      36.588  13.695  12.624  0.00  0.00     0.258 C 
HETATM   25  O   UNK N   1      37.266  13.306  11.683  0.00  0.00    -0.265 OA
BRANCH  24  26
HETATM   26  O   UNK N   1      36.369  12.893  13.693  0.00  0.00    -0.326 OA
HETATM   27  C   UNK N   1      35.976  13.389  14.913  0.00  0.00     0.213 C 
ENDBRANCH  24  26
ENDBRANCH  23  24
ENDBRANCH  22  23
ENDBRANCH  21  22
ENDBRANCH  20  21
ENDBRANCH  19  20
ENDBRANCH  18  19
ENDBRANCH   2  18
BRANCH   4  28
HETATM   28  O   UNK N   1      31.423  16.687   4.013  0.00  0.00    -0.394 OA
HETATM   29  H   UNK N   1      30.509  16.902   4.257  0.00  0.00     0.210 HD
ENDBRANCH   4  28
TORSDOF 16
ENDMDL
MODEL 7
REMARK VINA RESULT:      -5.0      1.992      7.020
REMARK  16 active torsions:
REMARK  status: ('A' for Active; 'I' for Inactive)
REMARK    1  A    between atoms: C_8  and  O_1 
REMARK    2  A    between atoms: O_3  and  C_16 
REMARK    3  A    between atoms: O_4  and  C_26 
REMARK    4  A    between atoms: C_6  and  C_10 
REMARK    5  A    between atoms: C_7  and  C_12 
REMARK    6  A    between atoms: C_10  and  C_13 
REMARK    7  A    between atoms: C_13  and  C_14 
REMARK    8  A    between atoms: C_14  and  C_18 
REMARK    9  A    between atoms: C_15  and  C_17 
REMARK   10  A    between atoms: C_16  and  C_17 
REMARK   11  A    between atoms: C_16  and  C_19 
REMARK   12  A    between atoms: C_18  and  C_21 
REMARK   13  A    between atoms: C_19  and  C_22 
REMARK   14  A    between atoms: C_21  and  C_24 
REMARK   15  A    between atoms: C_22  and  C_23 
REMARK   16  A    between atoms: C_24  and  C_26 
ROOT
HETATM    1  O   UNK N   1      25.548  27.677  -2.645  0.00  0.00    -0.297 OA
HETATM    2  C   UNK N   1      26.714  27.398  -4.701  0.00  0.00     0.065 C 
HETATM    3  C   UNK N   1      27.607  28.441  -5.383  0.00  0.00     0.048 C 
HETATM    4  C   UNK N   1      27.054  29.796  -4.971  0.00  0.00     0.133 C 
HETATM    5  C   UNK N   1      26.568  29.616  -3.546  0.00  0.00     0.111 C 
HETATM    6  C   UNK N   1      26.222  28.175  -3.533  0.00  0.00     0.134 C 
ENDROOT
BRANCH   3   7
HETATM    7  C   UNK N   1      27.704  28.353  -6.871  0.00  0.00    -0.023 C 
HETATM    8  C   UNK N   1      28.266  27.331  -7.507  0.00  0.00    -0.027 C 
BRANCH   8   9
HETATM    9  C   UNK N   1      28.251  27.371  -8.999  0.00  0.00     0.064 C 
BRANCH   9  10
HETATM   10  C   UNK N   1      28.311  26.015  -9.714  0.00  0.00     0.057 C 
HETATM   11  C   UNK N   1      27.345  25.892 -10.888  0.00  0.00     0.046 C 
BRANCH  10  12
HETATM   12  O   UNK N   1      29.615  25.812 -10.174  0.00  0.00    -0.390 OA
HETATM   13  H   UNK N   1      30.418  25.307  -9.969  0.00  0.00     0.210 HD
ENDBRANCH  10  12
BRANCH  10  14
HETATM   14  C   UNK N   1      27.919  24.979  -8.656  0.00  0.00     0.038 C 
BRANCH  14  15
HETATM   15  C   UNK N   1      26.575  24.293  -8.863  0.00  0.00     0.002 C 
BRANCH  15  16
HETATM   16  C   UNK N   1      26.605  22.831  -8.475  0.00  0.00    -0.004 C 
HETATM   17  C   UNK N   1      25.218  22.435  -8.014  0.00  0.00     0.005 C 
ENDBRANCH  15  16
ENDBRANCH  14  15
ENDBRANCH  10  14
ENDBRANCH   9  10
ENDBRANCH   8   9
ENDBRANCH   3   7
BRANCH   2  18
HETATM   18  C   UNK N   1      25.502  26.960  -5.521  0.00  0.00     0.013 C 
BRANCH  18  19
HETATM   19  C   UNK N   1      25.440  25.442  -5.677  0.00  0.00     0.001 C 
BRANCH  19  20
HETATM   20  C   UNK N   1      26.207  24.649  -4.604  0.00  0.00     0.000 C 
BRANCH  20  21
HETATM   21  C   UNK N   1      27.461  23.912  -5.082  0.00  0.00     0.000 C 
BRANCH  21  22
HETATM   22  C   UNK N   1      28.687  24.253  -4.250  0.00  0.00     0.010 C 
BRANCH  22  23
HETATM   23  C   UNK N   1      28.644  23.527  -2.918  0.00  0.00     0.111 C 
BRANCH  23  24
HETATM   24  C   UNK N   1      29.981  22.959  -2.533  0.00  0.00     0.258 C 
HETATM   25  O   UNK N   1      30.391  23.052  -1.384  0.00  0.00    -0.265 OA
BRANCH  24  26
HETATM   26  O   UNK N   1      30.731  22.356  -3.485  0.00  0.00    -0.326 OA
HETATM   27  C   UNK N   1      30.550  21.038  -3.835  0.00  0.00     0.213 C 
ENDBRANCH  24  26
ENDBRANCH  23  24
ENDBRANCH  22  23
ENDBRANCH  21  22
ENDBRANCH  20  21
ENDBRANCH  19  20
ENDBRANCH  18  19
ENDBRANCH   2  18
BRANCH   4  28
HETATM   28  O   UNK N   1      28.043  30.777  -5.041  0.00  0.00    -0.394 OA
HETATM   29  H   UNK N   1      27.947  31.584  -5.571  0.00  0.00     0.210 HD
ENDBRANCH   4  28
TORSDOF 16
ENDMDL
MODEL 8
REMARK VINA RESULT:      -5.0      1.977      5.651
REMARK  16 active torsions:
REMARK  status: ('A' for Active; 'I' for Inactive)
REMARK    1  A    between atoms: C_8  and  O_1 
REMARK    2  A    between atoms: O_3  and  C_16 
REMARK    3  A    between atoms: O_4  and  C_26 
REMARK    4  A    between atoms: C_6  and  C_10 
REMARK    5  A    between atoms: C_7  and  C_12 
REMARK    6  A    between atoms: C_10  and  C_13 
REMARK    7  A    between atoms: C_13  and  C_14 
REMARK    8  A    between atoms: C_14  and  C_18 
REMARK    9  A    between atoms: C_15  and  C_17 
REMARK   10  A    between atoms: C_16  and  C_17 
REMARK   11  A    between atoms: C_16  and  C_19 
REMARK   12  A    between atoms: C_18  and  C_21 
REMARK   13  A    between atoms: C_19  and  C_22 
REMARK   14  A    between atoms: C_21  and  C_24 
REMARK   15  A    between atoms: C_22  and  C_23 
REMARK   16  A    between atoms: C_24  and  C_26 
ROOT
HETATM    1  O   UNK N   1      27.602  28.638  -6.920  0.00  0.00    -0.297 OA
HETATM    2  C   UNK N   1      27.681  26.682  -5.568  0.00  0.00     0.065 C 
HETATM    3  C   UNK N   1      26.861  26.427  -4.297  0.00  0.00     0.048 C 
HETATM    4  C   UNK N   1      26.603  27.796  -3.687  0.00  0.00     0.133 C 
HETATM    5  C   UNK N   1      26.432  28.736  -4.863  0.00  0.00     0.111 C 
HETATM    6  C   UNK N   1      27.260  28.070  -5.896  0.00  0.00     0.134 C 
ENDROOT
BRANCH   3   7
HETATM    7  C   UNK N   1      27.477  25.517  -3.287  0.00  0.00    -0.023 C 
HETATM    8  C   UNK N   1      27.799  24.253  -3.541  0.00  0.00    -0.027 C 
BRANCH   8   9
HETATM    9  C   UNK N   1      28.445  23.483  -2.438  0.00  0.00     0.064 C 
BRANCH   9  10
HETATM   10  C   UNK N   1      29.924  23.128  -2.634  0.00  0.00     0.057 C 
HETATM   11  C   UNK N   1      30.731  24.211  -3.342  0.00  0.00     0.046 C 
BRANCH  10  12
HETATM   12  O   UNK N   1      30.493  22.881  -1.382  0.00  0.00    -0.390 OA
HETATM   13  H   UNK N   1      30.625  23.300  -0.517  0.00  0.00     0.210 HD
ENDBRANCH  10  12
BRANCH  10  14
HETATM   14  C   UNK N   1      29.928  21.872  -3.512  0.00  0.00     0.038 C 
BRANCH  14  15
HETATM   15  C   UNK N   1      31.256  21.134  -3.610  0.00  0.00     0.002 C 
BRANCH  15  16
HETATM   16  C   UNK N   1      31.855  21.200  -4.998  0.00  0.00    -0.004 C 
HETATM   17  C   UNK N   1      31.175  20.157  -5.858  0.00  0.00     0.005 C 
ENDBRANCH  15  16
ENDBRANCH  14  15
ENDBRANCH  10  14
ENDBRANCH   9  10
ENDBRANCH   8   9
ENDBRANCH   3   7
BRANCH   2  18
HETATM   18  C   UNK N   1      29.194  26.684  -5.362  0.00  0.00     0.013 C 
BRANCH  18  19
HETATM   19  C   UNK N   1      29.923  25.961  -6.494  0.00  0.00     0.001 C 
BRANCH  19  20
HETATM   20  C   UNK N   1      29.102  24.865  -7.196  0.00  0.00     0.000 C 
BRANCH  20  21
HETATM   21  C   UNK N   1      29.427  23.423  -6.794  0.00  0.00     0.000 C 
BRANCH  21  22
HETATM   22  C   UNK N   1      28.207  22.516  -6.854  0.00  0.00     0.010 C 
BRANCH  22  23
HETATM   23  C   UNK N   1      26.932  23.339  -6.839  0.00  0.00     0.111 C 
BRANCH  23  24
HETATM   24  C   UNK N   1      25.932  22.862  -7.854  0.00  0.00     0.258 C 
HETATM   25  O   UNK N   1      24.934  23.524  -8.106  0.00  0.00    -0.265 OA
BRANCH  24  26
HETATM   26  O   UNK N   1      26.149  21.679  -8.476  0.00  0.00    -0.326 OA
HETATM   27  C   UNK N   1      25.457  20.539  -8.143  0.00  0.00     0.213 C 
ENDBRANCH  24  26
ENDBRANCH  23  24
ENDBRANCH  22  23
ENDBRANCH  21  22
ENDBRANCH  20  21
ENDBRANCH  19  20
ENDBRANCH  18  19
ENDBRANCH   2  18
BRANCH   4  28
HETATM   28  O   UNK N   1      25.457  27.776  -2.892  0.00  0.00    -0.394 OA
HETATM   29  H   UNK N   1      25.440  28.123  -1.986  0.00  0.00     0.210 HD
ENDBRANCH   4  28
TORSDOF 16
ENDMDL
MODEL 9
REMARK VINA RESULT:      -5.0      1.928      6.993
REMARK  16 active torsions:
REMARK  status: ('A' for Active; 'I' for Inactive)
REMARK    1  A    between atoms: C_8  and  O_1 
REMARK    2  A    between atoms: O_3  and  C_16 
REMARK    3  A    between atoms: O_4  and  C_26 
REMARK    4  A    between atoms: C_6  and  C_10 
REMARK    5  A    between atoms: C_7  and  C_12 
REMARK    6  A    between atoms: C_10  and  C_13 
REMARK    7  A    between atoms: C_13  and  C_14 
REMARK    8  A    between atoms: C_14  and  C_18 
REMARK    9  A    between atoms: C_15  and  C_17 
REMARK   10  A    between atoms: C_16  and  C_17 
REMARK   11  A    between atoms: C_16  and  C_19 
REMARK   12  A    between atoms: C_18  and  C_21 
REMARK   13  A    between atoms: C_19  and  C_22 
REMARK   14  A    between atoms: C_21  and  C_24 
REMARK   15  A    between atoms: C_22  and  C_23 
REMARK   16  A    between atoms: C_24  and  C_26 
ROOT
HETATM    1  O   UNK N   1      27.431  30.336  -5.206  0.00  0.00    -0.297 OA
HETATM    2  C   UNK N   1      26.783  28.095  -5.674  0.00  0.00     0.065 C 
HETATM    3  C   UNK N   1      26.148  27.112  -4.682  0.00  0.00     0.048 C 
HETATM    4  C   UNK N   1      26.667  27.510  -3.310  0.00  0.00     0.133 C 
HETATM    5  C   UNK N   1      26.782  29.021  -3.346  0.00  0.00     0.111 C 
HETATM    6  C   UNK N   1      27.025  29.264  -4.787  0.00  0.00     0.134 C 
ENDROOT
BRANCH   3   7
HETATM    7  C   UNK N   1      26.409  25.663  -4.934  0.00  0.00    -0.023 C 
HETATM    8  C   UNK N   1      25.566  24.873  -5.591  0.00  0.00    -0.027 C 
BRANCH   8   9
HETATM    9  C   UNK N   1      25.987  23.455  -5.795  0.00  0.00     0.064 C 
BRANCH   9  10
HETATM   10  C   UNK N   1      25.703  22.856  -7.179  0.00  0.00     0.057 C 
HETATM   11  C   UNK N   1      24.846  21.594  -7.142  0.00  0.00     0.046 C 
BRANCH  10  12
HETATM   12  O   UNK N   1      25.058  23.821  -7.958  0.00  0.00    -0.390 OA
HETATM   13  H   UNK N   1      24.317  24.446  -7.924  0.00  0.00     0.210 HD
ENDBRANCH  10  12
BRANCH  10  14
HETATM   14  C   UNK N   1      27.075  22.491  -7.754  0.00  0.00     0.038 C 
BRANCH  14  15
HETATM   15  C   UNK N   1      28.247  22.581  -6.787  0.00  0.00     0.002 C 
BRANCH  15  16
HETATM   16  C   UNK N   1      29.132  21.355  -6.833  0.00  0.00    -0.004 C 
HETATM   17  C   UNK N   1      28.620  20.442  -7.928  0.00  0.00     0.005 C 
ENDBRANCH  15  16
ENDBRANCH  14  15
ENDBRANCH  10  14
ENDBRANCH   9  10
ENDBRANCH   8   9
ENDBRANCH   3   7
BRANCH   2  18
HETATM   18  C   UNK N   1      28.128  27.649  -6.243  0.00  0.00     0.013 C 
BRANCH  18  19
HETATM   19  C   UNK N   1      29.277  27.932  -5.276  0.00  0.00     0.001 C 
BRANCH  19  20
HETATM   20  C   UNK N   1      30.240  26.752  -5.054  0.00  0.00     0.000 C 
BRANCH  20  21
HETATM   21  C   UNK N   1      29.997  25.915  -3.796  0.00  0.00     0.000 C 
BRANCH  21  22
HETATM   22  C   UNK N   1      29.905  24.427  -4.098  0.00  0.00     0.010 C 
BRANCH  22  23
HETATM   23  C   UNK N   1      31.153  23.709  -3.617  0.00  0.00     0.111 C 
BRANCH  23  24
HETATM   24  C   UNK N   1      30.859  22.724  -2.522  0.00  0.00     0.258 C 
HETATM   25  O   UNK N   1      30.426  23.102  -1.442  0.00  0.00    -0.265 OA
BRANCH  24  26
HETATM   26  O   UNK N   1      31.095  21.409  -2.746  0.00  0.00    -0.326 OA
HETATM   27  C   UNK N   1      31.474  20.933  -3.979  0.00  0.00     0.213 C 
ENDBRANCH  24  26
ENDBRANCH  23  24
ENDBRANCH  22  23
ENDBRANCH  21  22
ENDBRANCH  20  21
ENDBRANCH  19  20
ENDBRANCH  18  19
ENDBRANCH   2  18
BRANCH   4  28
HETATM   28  O   UNK N   1      25.787  27.099  -2.309  0.00  0.00    -0.394 OA
HETATM   29  H   UNK N   1      25.222  26.315  -2.396  0.00  0.00     0.210 HD
ENDBRANCH   4  28
TORSDOF 16
ENDMDL
