REMARK  4 active torsions:
REMARK  status: ('A' for Active; 'I' for Inactive)
REMARK    1  A    between atoms: S_2  and  C_21 
REMARK    2  A    between atoms: N_5  and  C_12 
REMARK    3  A    between atoms: C_6  and  C_8 
REMARK    4  A    between atoms: C_8  and  C_12 
ROOT
HETATM    1  S   UNK N   1       3.458  -4.291   0.648  0.00  0.00    -0.086 SA
HETATM    2  N   UNK N   1       3.291  -1.294  -0.489  0.00  0.00    -0.345 N 
HETATM    3  C   UNK N   1       4.587  -1.842  -0.214  0.00  0.00     0.053 A 
HETATM    4  C   UNK N   1       2.059  -1.999  -0.252  0.00  0.00     0.052 A 
HETATM    5  C   UNK N   1       4.778  -3.144   0.300  0.00  0.00     0.032 A 
HETATM    6  C   UNK N   1       2.015  -3.314   0.264  0.00  0.00     0.032 A 
HETATM    7  C   UNK N   1       5.728  -1.048  -0.454  0.00  0.00     0.052 A 
HETATM    8  C   UNK N   1       0.833  -1.354  -0.525  0.00  0.00     0.031 A 
HETATM    9  C   UNK N   1       6.076  -3.604   0.557  0.00  0.00     0.023 A 
HETATM   10  C   UNK N   1       7.018  -1.510  -0.193  0.00  0.00     0.033 A 
HETATM   11  C   UNK N   1       0.778  -3.927   0.500  0.00  0.00     0.021 A 
HETATM   12  C   UNK N   1       7.187  -2.800   0.312  0.00  0.00     0.022 A 
HETATM   13  C   UNK N   1      -0.390  -1.974  -0.283  0.00  0.00     0.002 A 
HETATM   14  C   UNK N   1      -0.418  -3.263   0.235  0.00  0.00     0.002 A 
ENDROOT
BRANCH   2  15
HETATM   15  C   UNK N   1       3.233   0.075  -0.987  0.00  0.00     0.131 C 
BRANCH  15  16
HETATM   16  C   UNK N   1       2.564   0.973   0.042  0.00  0.00     0.056 C 
BRANCH  16  17
HETATM   17  C   UNK N   1       2.912   2.433  -0.159  0.00  0.00     0.224 C 
HETATM   18  N   UNK N   1       4.029   2.797   0.735  0.00  0.00     0.088 N 
HETATM   19  C   UNK N   1       4.125   4.233   1.050  0.00  0.00     0.272 C 
HETATM   20  C   UNK N   1       5.282   2.403   0.110  0.00  0.00     0.310 C 
HETATM   21  C   UNK N   1       3.366   5.119   0.062  0.00  0.00     0.030 C 
HETATM   22  C   UNK N   1       1.886   4.743   0.044  0.00  0.00     0.004 C 
HETATM   23  C   UNK N   1       1.656   3.237   0.174  0.00  0.00     0.036 C 
ENDBRANCH  16  17
ENDBRANCH  15  16
ENDBRANCH   2  15
BRANCH  10  24
HETATM   24  S   UNK N   1       8.424  -0.440  -0.572  0.00  0.00     0.045 S 
HETATM   25  O   UNK N   1       8.145   0.474   0.631  0.00  0.00    -0.253 OA
HETATM   26  C   UNK N   1       9.690  -1.362   0.355  0.00  0.00     0.133 C 
ENDBRANCH  10  24
TORSDOF 4
