MODEL 1
REMARK VINA RESULT:      -6.7      0.000      0.000
REMARK  4 active torsions:
REMARK  status: ('A' for Active; 'I' for Inactive)
REMARK    1  A    between atoms: S_2  and  C_21 
REMARK    2  A    between atoms: N_5  and  C_12 
REMARK    3  A    between atoms: C_6  and  C_8 
REMARK    4  A    between atoms: C_8  and  C_12 
ROOT
HETATM    1  S   UNK N   1      30.476  20.529  -6.608  0.00  0.00    -0.086 SA
HETATM    2  N   UNK N   1      28.653  22.924  -5.493  0.00  0.00    -0.345 N 
HETATM    3  C   UNK N   1      28.380  22.422  -6.808  0.00  0.00     0.053 A 
HETATM    4  C   UNK N   1      29.719  22.438  -4.658  0.00  0.00     0.052 A 
HETATM    5  C   UNK N   1      29.126  21.380  -7.403  0.00  0.00     0.032 A 
HETATM    6  C   UNK N   1      30.594  21.402  -5.056  0.00  0.00     0.032 A 
HETATM    7  C   UNK N   1      27.328  22.996  -7.553  0.00  0.00     0.052 A 
HETATM    8  C   UNK N   1      29.924  23.027  -3.391  0.00  0.00     0.031 A 
HETATM    9  C   UNK N   1      28.808  20.953  -8.699  0.00  0.00     0.023 A 
HETATM   10  C   UNK N   1      27.019  22.569  -8.844  0.00  0.00     0.033 A 
HETATM   11  C   UNK N   1      31.631  21.001  -4.204  0.00  0.00     0.021 A 
HETATM   12  C   UNK N   1      27.765  21.537  -9.414  0.00  0.00     0.022 A 
HETATM   13  C   UNK N   1      30.961  22.621  -2.555  0.00  0.00     0.002 A 
HETATM   14  C   UNK N   1      31.820  21.608  -2.964  0.00  0.00     0.002 A 
ENDROOT
BRANCH   2  15
HETATM   15  C   UNK N   1      27.828  24.025  -5.010  0.00  0.00     0.131 C 
BRANCH  15  16
HETATM   16  C   UNK N   1      28.339  25.342  -5.573  0.00  0.00     0.056 C 
BRANCH  16  17
HETATM   17  C   UNK N   1      27.361  26.477  -5.354  0.00  0.00     0.224 C 
HETATM   18  N   UNK N   1      27.395  26.886  -3.936  0.00  0.00     0.088 N 
HETATM   19  C   UNK N   1      26.178  27.566  -3.460  0.00  0.00     0.272 C 
HETATM   20  C   UNK N   1      28.511  27.797  -3.734  0.00  0.00     0.310 C 
HETATM   21  C   UNK N   1      25.317  28.123  -4.593  0.00  0.00     0.030 C 
HETATM   22  C   UNK N   1      24.886  26.998  -5.532  0.00  0.00     0.004 C 
HETATM   23  C   UNK N   1      25.980  25.951  -5.742  0.00  0.00     0.036 C 
ENDBRANCH  16  17
ENDBRANCH  15  16
ENDBRANCH   2  15
BRANCH  10  24
HETATM   24  S   UNK N   1      25.626  23.332  -9.707  0.00  0.00     0.045 S 
HETATM   25  O   UNK N   1      24.721  23.251  -8.468  0.00  0.00    -0.253 OA
HETATM   26  C   UNK N   1      26.042  25.069  -9.355  0.00  0.00     0.133 C 
ENDBRANCH  10  24
TORSDOF 4
ENDMDL
MODEL 2
REMARK VINA RESULT:      -6.6      1.933      5.751
REMARK  4 active torsions:
REMARK  status: ('A' for Active; 'I' for Inactive)
REMARK    1  A    between atoms: S_2  and  C_21 
REMARK    2  A    between atoms: N_5  and  C_12 
REMARK    3  A    between atoms: C_6  and  C_8 
REMARK    4  A    between atoms: C_8  and  C_12 
ROOT
HETATM    1  S   UNK N   1      26.044  25.091  -7.632  0.00  0.00    -0.086 SA
HETATM    2  N   UNK N   1      27.765  24.304  -5.039  0.00  0.00    -0.345 N 
HETATM    3  C   UNK N   1      27.872  23.470  -6.201  0.00  0.00     0.053 A 
HETATM    4  C   UNK N   1      26.904  25.454  -4.958  0.00  0.00     0.052 A 
HETATM    5  C   UNK N   1      27.151  23.714  -7.391  0.00  0.00     0.032 A 
HETATM    6  C   UNK N   1      26.089  25.879  -6.032  0.00  0.00     0.032 A 
HETATM    7  C   UNK N   1      28.724  22.347  -6.157  0.00  0.00     0.052 A 
HETATM    8  C   UNK N   1      26.847  26.188  -3.754  0.00  0.00     0.031 A 
HETATM    9  C   UNK N   1      27.298  22.845  -8.480  0.00  0.00     0.023 A 
HETATM   10  C   UNK N   1      28.863  21.482  -7.243  0.00  0.00     0.033 A 
HETATM   11  C   UNK N   1      25.251  26.990  -5.871  0.00  0.00     0.021 A 
HETATM   12  C   UNK N   1      28.145  21.741  -8.412  0.00  0.00     0.022 A 
HETATM   13  C   UNK N   1      26.007  27.289  -3.606  0.00  0.00     0.002 A 
HETATM   14  C   UNK N   1      25.203  27.689  -4.667  0.00  0.00     0.002 A 
ENDROOT
BRANCH   2  15
HETATM   15  C   UNK N   1      28.539  23.921  -3.864  0.00  0.00     0.131 C 
BRANCH  15  16
HETATM   16  C   UNK N   1      29.831  24.721  -3.812  0.00  0.00     0.056 C 
BRANCH  16  17
HETATM   17  C   UNK N   1      31.047  23.835  -3.637  0.00  0.00     0.224 C 
HETATM   18  N   UNK N   1      31.723  23.671  -4.939  0.00  0.00     0.088 N 
HETATM   19  C   UNK N   1      32.559  22.463  -5.053  0.00  0.00     0.272 C 
HETATM   20  C   UNK N   1      32.583  24.820  -5.173  0.00  0.00     0.310 C 
HETATM   21  C   UNK N   1      32.937  21.862  -3.699  0.00  0.00     0.030 C 
HETATM   22  C   UNK N   1      31.679  21.487  -2.918  0.00  0.00     0.004 C 
HETATM   23  C   UNK N   1      30.544  22.493  -3.106  0.00  0.00     0.036 C 
ENDBRANCH  16  17
ENDBRANCH  15  16
ENDBRANCH   2  15
BRANCH  10  24
HETATM   24  S   UNK N   1      30.010  20.092  -7.114  0.00  0.00     0.045 S 
HETATM   25  O   UNK N   1      28.969  19.091  -7.637  0.00  0.00    -0.253 OA
HETATM   26  C   UNK N   1      30.768  20.246  -8.762  0.00  0.00     0.133 C 
ENDBRANCH  10  24
TORSDOF 4
ENDMDL
MODEL 3
REMARK VINA RESULT:      -6.6     11.710     13.283
REMARK  4 active torsions:
REMARK  status: ('A' for Active; 'I' for Inactive)
REMARK    1  A    between atoms: S_2  and  C_21 
REMARK    2  A    between atoms: N_5  and  C_12 
REMARK    3  A    between atoms: C_6  and  C_8 
REMARK    4  A    between atoms: C_8  and  C_12 
ROOT
HETATM    1  S   UNK N   1      26.932  19.767   3.840  0.00  0.00    -0.086 SA
HETATM    2  N   UNK N   1      24.940  17.480   4.892  0.00  0.00    -0.345 N 
HETATM    3  C   UNK N   1      24.383  18.574   4.151  0.00  0.00     0.053 A 
HETATM    4  C   UNK N   1      26.337  17.367   5.220  0.00  0.00     0.052 A 
HETATM    5  C   UNK N   1      25.163  19.641   3.652  0.00  0.00     0.032 A 
HETATM    6  C   UNK N   1      27.298  18.325   4.825  0.00  0.00     0.032 A 
HETATM    7  C   UNK N   1      22.993  18.600   3.915  0.00  0.00     0.052 A 
HETATM    8  C   UNK N   1      26.777  16.265   5.985  0.00  0.00     0.031 A 
HETATM    9  C   UNK N   1      24.544  20.683   2.949  0.00  0.00     0.023 A 
HETATM   10  C   UNK N   1      22.381  19.641   3.217  0.00  0.00     0.033 A 
HETATM   11  C   UNK N   1      28.636  18.167   5.208  0.00  0.00     0.021 A 
HETATM   12  C   UNK N   1      23.168  20.685   2.730  0.00  0.00     0.022 A 
HETATM   13  C   UNK N   1      28.110  16.121   6.361  0.00  0.00     0.002 A 
HETATM   14  C   UNK N   1      29.042  17.077   5.975  0.00  0.00     0.002 A 
ENDROOT
BRANCH   2  15
HETATM   15  C   UNK N   1      24.019  16.460   5.378  0.00  0.00     0.131 C 
BRANCH  15  16
HETATM   16  C   UNK N   1      23.977  15.293   4.404  0.00  0.00     0.056 C 
BRANCH  16  17
HETATM   17  C   UNK N   1      22.560  14.913   4.026  0.00  0.00     0.224 C 
HETATM   18  N   UNK N   1      22.239  15.481   2.702  0.00  0.00     0.088 N 
HETATM   19  C   UNK N   1      20.800  15.663   2.441  0.00  0.00     0.272 C 
HETATM   20  C   UNK N   1      22.761  14.598   1.670  0.00  0.00     0.310 C 
HETATM   21  C   UNK N   1      19.910  14.831   3.364  0.00  0.00     0.030 C 
HETATM   22  C   UNK N   1      20.170  15.200   4.823  0.00  0.00     0.004 C 
HETATM   23  C   UNK N   1      21.645  15.486   5.107  0.00  0.00     0.036 C 
ENDBRANCH  16  17
ENDBRANCH  15  16
ENDBRANCH   2  15
BRANCH  10  24
HETATM   24  S   UNK N   1      20.599  19.569   2.924  0.00  0.00     0.045 S 
HETATM   25  O   UNK N   1      20.323  20.746   3.873  0.00  0.00    -0.253 OA
HETATM   26  C   UNK N   1      20.547  20.662   1.469  0.00  0.00     0.133 C 
ENDBRANCH  10  24
TORSDOF 4
ENDMDL
MODEL 4
REMARK VINA RESULT:      -6.5      2.569      6.203
REMARK  4 active torsions:
REMARK  status: ('A' for Active; 'I' for Inactive)
REMARK    1  A    between atoms: S_2  and  C_21 
REMARK    2  A    between atoms: N_5  and  C_12 
REMARK    3  A    between atoms: C_6  and  C_8 
REMARK    4  A    between atoms: C_8  and  C_12 
ROOT
HETATM    1  S   UNK N   1      30.033  27.360  -3.823  0.00  0.00    -0.086 SA
HETATM    2  N   UNK N   1      27.637  25.239  -4.076  0.00  0.00    -0.345 N 
HETATM    3  C   UNK N   1      28.982  24.742  -4.060  0.00  0.00     0.053 A 
HETATM    4  C   UNK N   1      27.302  26.638  -4.020  0.00  0.00     0.052 A 
HETATM    5  C   UNK N   1      30.112  25.585  -3.965  0.00  0.00     0.032 A 
HETATM    6  C   UNK N   1      28.276  27.657  -3.927  0.00  0.00     0.032 A 
HETATM    7  C   UNK N   1      29.196  23.351  -4.153  0.00  0.00     0.052 A 
HETATM    8  C   UNK N   1      25.945  27.023  -4.078  0.00  0.00     0.031 A 
HETATM    9  C   UNK N   1      31.396  25.025  -3.969  0.00  0.00     0.023 A 
HETATM   10  C   UNK N   1      30.477  22.799  -4.161  0.00  0.00     0.033 A 
HETATM   11  C   UNK N   1      27.878  29.000  -3.910  0.00  0.00     0.021 A 
HETATM   12  C   UNK N   1      31.581  23.647  -4.063  0.00  0.00     0.022 A 
HETATM   13  C   UNK N   1      25.563  28.362  -4.063  0.00  0.00     0.002 A 
HETATM   14  C   UNK N   1      26.533  29.354  -3.982  0.00  0.00     0.002 A 
ENDROOT
BRANCH   2  15
HETATM   15  C   UNK N   1      26.562  24.263  -4.211  0.00  0.00     0.131 C 
BRANCH  15  16
HETATM   16  C   UNK N   1      25.922  24.383  -5.585  0.00  0.00     0.056 C 
BRANCH  16  17
HETATM   17  C   UNK N   1      26.384  23.294  -6.530  0.00  0.00     0.224 C 
HETATM   18  N   UNK N   1      26.838  23.903  -7.795  0.00  0.00     0.088 N 
HETATM   19  C   UNK N   1      26.805  23.003  -8.961  0.00  0.00     0.272 C 
HETATM   20  C   UNK N   1      28.210  24.358  -7.635  0.00  0.00     0.310 C 
HETATM   21  C   UNK N   1      26.753  21.524  -8.579  0.00  0.00     0.030 C 
HETATM   22  C   UNK N   1      25.514  21.239  -7.734  0.00  0.00     0.004 C 
HETATM   23  C   UNK N   1      25.187  22.372  -6.761  0.00  0.00     0.036 C 
ENDBRANCH  16  17
ENDBRANCH  15  16
ENDBRANCH   2  15
BRANCH  10  24
HETATM   24  S   UNK N   1      30.655  21.003  -4.240  0.00  0.00     0.045 S 
HETATM   25  O   UNK N   1      30.062  20.934  -5.655  0.00  0.00    -0.253 OA
HETATM   26  C   UNK N   1      32.354  20.954  -4.892  0.00  0.00     0.133 C 
ENDBRANCH  10  24
TORSDOF 4
ENDMDL
MODEL 5
REMARK VINA RESULT:      -6.5     13.089     15.228
REMARK  4 active torsions:
REMARK  status: ('A' for Active; 'I' for Inactive)
REMARK    1  A    between atoms: S_2  and  C_21 
REMARK    2  A    between atoms: N_5  and  C_12 
REMARK    3  A    between atoms: C_6  and  C_8 
REMARK    4  A    between atoms: C_8  and  C_12 
ROOT
HETATM    1  S   UNK N   1      24.166  20.561   3.013  0.00  0.00    -0.086 SA
HETATM    2  N   UNK N   1      23.179  17.820   4.362  0.00  0.00    -0.345 N 
HETATM    3  C   UNK N   1      24.574  18.144   4.430  0.00  0.00     0.053 A 
HETATM    4  C   UNK N   1      22.201  18.638   3.693  0.00  0.00     0.052 A 
HETATM    5  C   UNK N   1      25.120  19.315   3.860  0.00  0.00     0.032 A 
HETATM    6  C   UNK N   1      22.528  19.853   3.050  0.00  0.00     0.032 A 
HETATM    7  C   UNK N   1      25.449  17.251   5.083  0.00  0.00     0.052 A 
HETATM    8  C   UNK N   1      20.856  18.210   3.654  0.00  0.00     0.031 A 
HETATM    9  C   UNK N   1      26.497  19.555   3.956  0.00  0.00     0.023 A 
HETATM   10  C   UNK N   1      26.820  17.493   5.172  0.00  0.00     0.033 A 
HETATM   11  C   UNK N   1      21.530  20.582   2.391  0.00  0.00     0.021 A 
HETATM   12  C   UNK N   1      27.341  18.657   4.606  0.00  0.00     0.022 A 
HETATM   13  C   UNK N   1      19.874  18.943   2.993  0.00  0.00     0.002 A 
HETATM   14  C   UNK N   1      20.212  20.130   2.356  0.00  0.00     0.002 A 
ENDROOT
BRANCH   2  15
HETATM   15  C   UNK N   1      22.751  16.563   4.963  0.00  0.00     0.131 C 
BRANCH  15  16
HETATM   16  C   UNK N   1      22.123  16.826   6.323  0.00  0.00     0.056 C 
BRANCH  16  17
HETATM   17  C   UNK N   1      21.638  15.553   6.985  0.00  0.00     0.224 C 
HETATM   18  N   UNK N   1      21.023  15.883   8.286  0.00  0.00     0.088 N 
HETATM   19  C   UNK N   1      20.996  14.774   9.255  0.00  0.00     0.272 C 
HETATM   20  C   UNK N   1      19.648  16.304   8.066  0.00  0.00     0.310 C 
HETATM   21  C   UNK N   1      21.176  13.402   8.606  0.00  0.00     0.030 C 
HETATM   22  C   UNK N   1      22.509  13.340   7.863  0.00  0.00     0.004 C 
HETATM   23  C   UNK N   1      22.860  14.655   7.166  0.00  0.00     0.036 C 
ENDBRANCH  16  17
ENDBRANCH  15  16
ENDBRANCH   2  15
BRANCH  10  24
HETATM   24  S   UNK N   1      27.860  16.317   6.066  0.00  0.00     0.045 S 
HETATM   25  O   UNK N   1      29.139  16.810   5.373  0.00  0.00    -0.253 OA
HETATM   26  C   UNK N   1      28.193  17.347   7.529  0.00  0.00     0.133 C 
ENDBRANCH  10  24
TORSDOF 4
ENDMDL
MODEL 6
REMARK VINA RESULT:      -6.4     12.307     14.924
REMARK  4 active torsions:
REMARK  status: ('A' for Active; 'I' for Inactive)
REMARK    1  A    between atoms: S_2  and  C_21 
REMARK    2  A    between atoms: N_5  and  C_12 
REMARK    3  A    between atoms: C_6  and  C_8 
REMARK    4  A    between atoms: C_8  and  C_12 
ROOT
HETATM    1  S   UNK N   1      28.636  18.919   8.173  0.00  0.00    -0.086 SA
HETATM    2  N   UNK N   1      29.285  17.627   5.307  0.00  0.00    -0.345 N 
HETATM    3  C   UNK N   1      30.027  17.162   6.443  0.00  0.00     0.053 A 
HETATM    4  C   UNK N   1      28.290  18.664   5.374  0.00  0.00     0.052 A 
HETATM    5  C   UNK N   1      29.834  17.669   7.747  0.00  0.00     0.032 A 
HETATM    6  C   UNK N   1      27.939  19.315   6.579  0.00  0.00     0.032 A 
HETATM    7  C   UNK N   1      31.003  16.161   6.256  0.00  0.00     0.052 A 
HETATM    8  C   UNK N   1      27.641  19.073   4.188  0.00  0.00     0.031 A 
HETATM    9  C   UNK N   1      30.608  17.174   8.804  0.00  0.00     0.023 A 
HETATM   10  C   UNK N   1      31.774  15.675   7.312  0.00  0.00     0.033 A 
HETATM   11  C   UNK N   1      26.984  20.339   6.563  0.00  0.00     0.021 A 
HETATM   12  C   UNK N   1      31.567  16.186   8.594  0.00  0.00     0.022 A 
HETATM   13  C   UNK N   1      26.695  20.095   4.187  0.00  0.00     0.002 A 
HETATM   14  C   UNK N   1      26.369  20.733   5.377  0.00  0.00     0.002 A 
ENDROOT
BRANCH   2  15
HETATM   15  C   UNK N   1      29.605  17.042   4.011  0.00  0.00     0.131 C 
BRANCH  15  16
HETATM   16  C   UNK N   1      29.018  15.643   3.914  0.00  0.00     0.056 C 
BRANCH  16  17
HETATM   17  C   UNK N   1      27.530  15.664   3.632  0.00  0.00     0.224 C 
HETATM   18  N   UNK N   1      26.856  14.668   4.488  0.00  0.00     0.088 N 
HETATM   19  C   UNK N   1      25.557  14.195   3.981  0.00  0.00     0.272 C 
HETATM   20  C   UNK N   1      26.626  15.252   5.801  0.00  0.00     0.310 C 
HETATM   21  C   UNK N   1      24.942  15.128   2.937  0.00  0.00     0.030 C 
HETATM   22  C   UNK N   1      25.883  15.279   1.743  0.00  0.00     0.004 C 
HETATM   23  C   UNK N   1      27.355  15.326   2.152  0.00  0.00     0.036 C 
ENDBRANCH  16  17
ENDBRANCH  15  16
ENDBRANCH   2  15
BRANCH  10  24
HETATM   24  S   UNK N   1      32.972  14.361   6.988  0.00  0.00     0.045 S 
HETATM   25  O   UNK N   1      32.318  13.414   8.005  0.00  0.00    -0.253 OA
HETATM   26  C   UNK N   1      32.096  13.566   5.605  0.00  0.00     0.133 C 
ENDBRANCH  10  24
TORSDOF 4
ENDMDL
MODEL 7
REMARK VINA RESULT:      -6.4      2.733      6.420
REMARK  4 active torsions:
REMARK  status: ('A' for Active; 'I' for Inactive)
REMARK    1  A    between atoms: S_2  and  C_21 
REMARK    2  A    between atoms: N_5  and  C_12 
REMARK    3  A    between atoms: C_6  and  C_8 
REMARK    4  A    between atoms: C_8  and  C_12 
ROOT
HETATM    1  S   UNK N   1      27.097  29.522  -3.212  0.00  0.00    -0.086 SA
HETATM    2  N   UNK N   1      29.215  27.319  -4.194  0.00  0.00    -0.345 N 
HETATM    3  C   UNK N   1      27.872  27.234  -4.688  0.00  0.00     0.053 A 
HETATM    4  C   UNK N   1      29.659  28.316  -3.256  0.00  0.00     0.052 A 
HETATM    5  C   UNK N   1      26.855  28.141  -4.313  0.00  0.00     0.032 A 
HETATM    6  C   UNK N   1      28.807  29.321  -2.744  0.00  0.00     0.032 A 
HETATM    7  C   UNK N   1      27.538  26.193  -5.580  0.00  0.00     0.052 A 
HETATM    8  C   UNK N   1      30.997  28.290  -2.806  0.00  0.00     0.031 A 
HETATM    9  C   UNK N   1      25.562  27.984  -4.828  0.00  0.00     0.023 A 
HETATM   10  C   UNK N   1      26.247  26.039  -6.087  0.00  0.00     0.033 A 
HETATM   11  C   UNK N   1      29.300  30.239  -1.809  0.00  0.00     0.021 A 
HETATM   12  C   UNK N   1      25.257  26.947  -5.707  0.00  0.00     0.022 A 
HETATM   13  C   UNK N   1      31.473  29.208  -1.873  0.00  0.00     0.002 A 
HETATM   14  C   UNK N   1      30.621  30.183  -1.370  0.00  0.00     0.002 A 
ENDROOT
BRANCH   2  15
HETATM   15  C   UNK N   1      30.158  26.299  -4.636  0.00  0.00     0.131 C 
BRANCH  15  16
HETATM   16  C   UNK N   1      30.384  25.286  -3.524  0.00  0.00     0.056 C 
BRANCH  16  17
HETATM   17  C   UNK N   1      30.166  23.863  -3.993  0.00  0.00     0.224 C 
HETATM   18  N   UNK N   1      30.404  22.936  -2.869  0.00  0.00     0.088 N 
HETATM   19  C   UNK N   1      30.754  21.561  -3.267  0.00  0.00     0.272 C 
HETATM   20  C   UNK N   1      29.202  22.861  -2.055  0.00  0.00     0.310 C 
HETATM   21  C   UNK N   1      30.366  21.233  -4.708  0.00  0.00     0.030 C 
HETATM   22  C   UNK N   1      31.062  22.189  -5.674  0.00  0.00     0.004 C 
HETATM   23  C   UNK N   1      31.156  23.615  -5.131  0.00  0.00     0.036 C 
ENDBRANCH  16  17
ENDBRANCH  15  16
ENDBRANCH   2  15
BRANCH  10  24
HETATM   24  S   UNK N   1      25.921  24.703  -7.259  0.00  0.00     0.045 S 
HETATM   25  O   UNK N   1      27.407  24.561  -7.621  0.00  0.00    -0.253 OA
HETATM   26  C   UNK N   1      26.020  23.317  -6.084  0.00  0.00     0.133 C 
ENDBRANCH  10  24
TORSDOF 4
ENDMDL
MODEL 8
REMARK VINA RESULT:      -6.3     12.502     14.580
REMARK  4 active torsions:
REMARK  status: ('A' for Active; 'I' for Inactive)
REMARK    1  A    between atoms: S_2  and  C_21 
REMARK    2  A    between atoms: N_5  and  C_12 
REMARK    3  A    between atoms: C_6  and  C_8 
REMARK    4  A    between atoms: C_8  and  C_12 
ROOT
HETATM    1  S   UNK N   1      32.696  17.430   8.093  0.00  0.00    -0.086 SA
HETATM    2  N   UNK N   1      30.408  16.363   6.111  0.00  0.00    -0.345 N 
HETATM    3  C   UNK N   1      31.774  16.074   5.785  0.00  0.00     0.053 A 
HETATM    4  C   UNK N   1      30.006  17.134   7.258  0.00  0.00     0.052 A 
HETATM    5  C   UNK N   1      32.861  16.504   6.578  0.00  0.00     0.032 A 
HETATM    6  C   UNK N   1      30.930  17.668   8.184  0.00  0.00     0.032 A 
HETATM    7  C   UNK N   1      32.054  15.336   4.616  0.00  0.00     0.052 A 
HETATM    8  C   UNK N   1      28.634  17.391   7.468  0.00  0.00     0.031 A 
HETATM    9  C   UNK N   1      34.170  16.195   6.186  0.00  0.00     0.023 A 
HETATM   10  C   UNK N   1      33.360  15.033   4.229  0.00  0.00     0.033 A 
HETATM   11  C   UNK N   1      30.469  18.437   9.261  0.00  0.00     0.021 A 
HETATM   12  C   UNK N   1      34.421  15.465   5.026  0.00  0.00     0.022 A 
HETATM   13  C   UNK N   1      28.189  18.159   8.541  0.00  0.00     0.002 A 
HETATM   14  C   UNK N   1      29.110  18.688   9.438  0.00  0.00     0.002 A 
ENDROOT
BRANCH   2  15
HETATM   15  C   UNK N   1      29.383  15.887   5.190  0.00  0.00     0.131 C 
BRANCH  15  16
HETATM   16  C   UNK N   1      29.063  16.966   4.167  0.00  0.00     0.056 C 
BRANCH  16  17
HETATM   17  C   UNK N   1      27.768  16.693   3.431  0.00  0.00     0.224 C 
HETATM   18  N   UNK N   1      26.659  16.620   4.403  0.00  0.00     0.088 N 
HETATM   19  C   UNK N   1      25.485  15.858   3.944  0.00  0.00     0.272 C 
HETATM   20  C   UNK N   1      26.211  17.969   4.709  0.00  0.00     0.310 C 
HETATM   21  C   UNK N   1      25.437  15.680   2.426  0.00  0.00     0.030 C 
HETATM   22  C   UNK N   1      26.687  14.950   1.939  0.00  0.00     0.004 C 
HETATM   23  C   UNK N   1      27.948  15.363   2.700  0.00  0.00     0.036 C 
ENDBRANCH  16  17
ENDBRANCH  15  16
ENDBRANCH   2  15
BRANCH  10  24
HETATM   24  S   UNK N   1      33.624  14.046   2.739  0.00  0.00     0.045 S 
HETATM   25  O   UNK N   1      34.187  15.243   1.958  0.00  0.00    -0.253 OA
HETATM   26  C   UNK N   1      35.297  13.448   3.134  0.00  0.00     0.133 C 
ENDBRANCH  10  24
TORSDOF 4
ENDMDL
MODEL 9
REMARK VINA RESULT:      -6.3     14.901     16.737
REMARK  4 active torsions:
REMARK  status: ('A' for Active; 'I' for Inactive)
REMARK    1  A    between atoms: S_2  and  C_21 
REMARK    2  A    between atoms: N_5  and  C_12 
REMARK    3  A    between atoms: C_6  and  C_8 
REMARK    4  A    between atoms: C_8  and  C_12 
ROOT
HETATM    1  S   UNK N   1      20.701  14.365   9.438  0.00  0.00    -0.086 SA
HETATM    2  N   UNK N   1      23.333  14.122   7.616  0.00  0.00    -0.345 N 
HETATM    3  C   UNK N   1      22.236  14.900   7.120  0.00  0.00     0.053 A 
HETATM    4  C   UNK N   1      23.308  13.415   8.869  0.00  0.00     0.052 A 
HETATM    5  C   UNK N   1      21.026  15.065   7.830  0.00  0.00     0.032 A 
HETATM    6  C   UNK N   1      22.195  13.437   9.740  0.00  0.00     0.032 A 
HETATM    7  C   UNK N   1      22.358  15.525   5.860  0.00  0.00     0.052 A 
HETATM    8  C   UNK N   1      24.430  12.647   9.250  0.00  0.00     0.031 A 
HETATM    9  C   UNK N   1      19.994  15.830   7.272  0.00  0.00     0.023 A 
HETATM   10  C   UNK N   1      21.325  16.282   5.308  0.00  0.00     0.033 A 
HETATM   11  C   UNK N   1      22.228  12.699  10.930  0.00  0.00     0.021 A 
HETATM   12  C   UNK N   1      20.139  16.436   6.026  0.00  0.00     0.022 A 
HETATM   13  C   UNK N   1      24.449  11.915  10.434  0.00  0.00     0.002 A 
HETATM   14  C   UNK N   1      23.343  11.937  11.275  0.00  0.00     0.002 A 
ENDROOT
BRANCH   2  15
HETATM   15  C   UNK N   1      24.513  14.006   6.767  0.00  0.00     0.131 C 
BRANCH  15  16
HETATM   16  C   UNK N   1      25.556  15.030   7.187  0.00  0.00     0.056 C 
BRANCH  16  17
HETATM   17  C   UNK N   1      26.508  15.373   6.061  0.00  0.00     0.224 C 
HETATM   18  N   UNK N   1      26.774  16.825   6.070  0.00  0.00     0.088 N 
HETATM   19  C   UNK N   1      27.218  17.380   4.780  0.00  0.00     0.272 C 
HETATM   20  C   UNK N   1      27.813  17.109   7.048  0.00  0.00     0.310 C 
HETATM   21  C   UNK N   1      27.755  16.317   3.820  0.00  0.00     0.030 C 
HETATM   22  C   UNK N   1      26.679  15.272   3.533  0.00  0.00     0.004 C 
HETATM   23  C   UNK N   1      25.829  14.946   4.761  0.00  0.00     0.036 C 
ENDBRANCH  16  17
ENDBRANCH  15  16
ENDBRANCH   2  15
BRANCH  10  24
HETATM   24  S   UNK N   1      21.586  17.082   3.709  0.00  0.00     0.045 S 
HETATM   25  O   UNK N   1      20.093  17.012   3.350  0.00  0.00    -0.253 OA
HETATM   26  C   UNK N   1      21.424  18.806   4.268  0.00  0.00     0.133 C 
ENDBRANCH  10  24
TORSDOF 4
ENDMDL
