MODEL 1
REMARK VINA RESULT:      -7.1      0.000      0.000
REMARK  4 active torsions:
REMARK  status: ('A' for Active; 'I' for Inactive)
REMARK    1  A    between atoms: N_1  and  C_16 
REMARK    2  A    between atoms: C_2  and  C_8 
REMARK    3  A    between atoms: C_8  and  C_11 
REMARK    4  A    between atoms: C_11  and  C_16 
ROOT
HETATM    1  C   UNK N   1      35.696  12.238  15.199  0.00  0.00     0.015 C 
HETATM    2  C   UNK N   1      35.351  10.042  16.712  0.00  0.00     0.052 C 
HETATM    3  C   UNK N   1      34.415  11.470  14.771  0.00  0.00     0.020 C 
HETATM    4  C   UNK N   1      34.213  10.184  15.660  0.00  0.00     0.015 C 
HETATM    5  C   UNK N   1      36.818  11.204  15.097  0.00  0.00    -0.038 A 
HETATM    6  C   UNK N   1      35.504  12.509  16.691  0.00  0.00    -0.038 A 
HETATM    7  C   UNK N   1      36.631  10.060  15.898  0.00  0.00    -0.042 A 
HETATM    8  C   UNK N   1      35.333  11.352  17.476  0.00  0.00    -0.042 A 
HETATM    9  C   UNK N   1      37.955  11.313  14.287  0.00  0.00     0.009 A 
HETATM   10  C   UNK N   1      35.481  13.773  17.294  0.00  0.00     0.009 A 
HETATM   11  C   UNK N   1      37.574   9.032  15.900  0.00  0.00     0.008 A 
HETATM   12  C   UNK N   1      35.147  11.450  18.856  0.00  0.00     0.008 A 
HETATM   13  C   UNK N   1      38.899  10.278  14.283  0.00  0.00     0.001 A 
HETATM   14  C   UNK N   1      35.288  13.873  18.677  0.00  0.00     0.001 A 
HETATM   15  C   UNK N   1      38.710   9.145  15.087  0.00  0.00     0.001 A 
HETATM   16  C   UNK N   1      35.125  12.716  19.455  0.00  0.00     0.001 A 
ENDROOT
BRANCH   1  17
HETATM   17  C   UNK N   1      35.908  13.495  14.341  0.00  0.00     0.021 C 
BRANCH  17  18
HETATM   18  C   UNK N   1      35.249  13.356  12.973  0.00  0.00     0.021 C 
BRANCH  18  19
HETATM   19  C   UNK N   1      36.138  13.917  11.887  0.00  0.00     0.113 C 
BRANCH  19  20
HETATM   20  N   UNK N   1      36.391  15.320  12.162  0.00  0.00    -0.425 N 
HETATM   21  C   UNK N   1      35.567  16.083  11.244  0.00  0.00     0.139 C 
HETATM   22  H   UNK N   1      37.028  15.696  12.865  0.00  0.00     0.152 HD
ENDBRANCH  19  20
ENDBRANCH  18  19
ENDBRANCH  17  18
ENDBRANCH   1  17
TORSDOF 4
ENDMDL
MODEL 2
REMARK VINA RESULT:      -6.9      7.767     11.133
REMARK  4 active torsions:
REMARK  status: ('A' for Active; 'I' for Inactive)
REMARK    1  A    between atoms: N_1  and  C_16 
REMARK    2  A    between atoms: C_2  and  C_8 
REMARK    3  A    between atoms: C_8  and  C_11 
REMARK    4  A    between atoms: C_11  and  C_16 
ROOT
HETATM    1  C   UNK N   1      31.841  16.891   8.015  0.00  0.00     0.015 C 
HETATM    2  C   UNK N   1      34.268  17.249   6.916  0.00  0.00     0.052 C 
HETATM    3  C   UNK N   1      32.518  18.172   8.578  0.00  0.00     0.020 C 
HETATM    4  C   UNK N   1      33.940  18.381   7.932  0.00  0.00     0.015 C 
HETATM    5  C   UNK N   1      32.843  15.771   8.293  0.00  0.00    -0.038 A 
HETATM    6  C   UNK N   1      31.837  17.091   6.499  0.00  0.00    -0.038 A 
HETATM    7  C   UNK N   1      34.110  15.965   7.708  0.00  0.00    -0.042 A 
HETATM    8  C   UNK N   1      33.114  17.268   5.933  0.00  0.00    -0.042 A 
HETATM    9  C   UNK N   1      32.596  14.630   9.066  0.00  0.00     0.009 A 
HETATM   10  C   UNK N   1      30.699  17.115   5.683  0.00  0.00     0.009 A 
HETATM   11  C   UNK N   1      35.125  15.024   7.883  0.00  0.00     0.008 A 
HETATM   12  C   UNK N   1      33.261  17.461   4.558  0.00  0.00     0.008 A 
HETATM   13  C   UNK N   1      33.616  13.688   9.248  0.00  0.00     0.001 A 
HETATM   14  C   UNK N   1      30.844  17.315   4.305  0.00  0.00     0.001 A 
HETATM   15  C   UNK N   1      34.874  13.883   8.657  0.00  0.00     0.001 A 
HETATM   16  C   UNK N   1      32.120  17.483   3.745  0.00  0.00     0.001 A 
ENDROOT
BRANCH   1  17
HETATM   17  C   UNK N   1      30.452  16.673   8.637  0.00  0.00     0.021 C 
BRANCH  17  18
HETATM   18  C   UNK N   1      29.796  17.995   9.020  0.00  0.00     0.021 C 
BRANCH  18  19
HETATM   19  C   UNK N   1      28.333  17.797   9.341  0.00  0.00     0.113 C 
BRANCH  19  20
HETATM   20  N   UNK N   1      27.574  18.904   8.789  0.00  0.00    -0.425 N 
HETATM   21  C   UNK N   1      28.115  19.169   7.469  0.00  0.00     0.139 C 
HETATM   22  H   UNK N   1      26.807  19.401   9.243  0.00  0.00     0.152 HD
ENDBRANCH  19  20
ENDBRANCH  18  19
ENDBRANCH  17  18
ENDBRANCH   1  17
TORSDOF 4
ENDMDL
MODEL 3
REMARK VINA RESULT:      -6.7      1.332      2.068
REMARK  4 active torsions:
REMARK  status: ('A' for Active; 'I' for Inactive)
REMARK    1  A    between atoms: N_1  and  C_16 
REMARK    2  A    between atoms: C_2  and  C_8 
REMARK    3  A    between atoms: C_8  and  C_11 
REMARK    4  A    between atoms: C_11  and  C_16 
ROOT
HETATM    1  C   UNK N   1      36.364  12.469  14.588  0.00  0.00     0.015 C 
HETATM    2  C   UNK N   1      34.972  12.114  16.861  0.00  0.00     0.052 C 
HETATM    3  C   UNK N   1      34.842  12.362  14.292  0.00  0.00     0.020 C 
HETATM    4  C   UNK N   1      34.027  12.156  15.625  0.00  0.00     0.015 C 
HETATM    5  C   UNK N   1      36.699  11.188  15.354  0.00  0.00    -0.038 A 
HETATM    6  C   UNK N   1      36.481  13.610  15.599  0.00  0.00    -0.038 A 
HETATM    7  C   UNK N   1      35.969  11.015  16.546  0.00  0.00    -0.042 A 
HETATM    8  C   UNK N   1      35.755  13.410  16.789  0.00  0.00    -0.042 A 
HETATM    9  C   UNK N   1      37.629  10.222  14.955  0.00  0.00     0.009 A 
HETATM   10  C   UNK N   1      37.221  14.786  15.419  0.00  0.00     0.009 A 
HETATM   11  C   UNK N   1      36.168   9.888  17.344  0.00  0.00     0.008 A 
HETATM   12  C   UNK N   1      35.772  14.372  17.801  0.00  0.00     0.008 A 
HETATM   13  C   UNK N   1      37.825   9.086  15.752  0.00  0.00     0.001 A 
HETATM   14  C   UNK N   1      37.233  15.753  16.431  0.00  0.00     0.001 A 
HETATM   15  C   UNK N   1      37.100   8.922  16.941  0.00  0.00     0.001 A 
HETATM   16  C   UNK N   1      36.514  15.546  17.617  0.00  0.00     0.001 A 
ENDROOT
BRANCH   1  17
HETATM   17  C   UNK N   1      37.173  12.670  13.297  0.00  0.00     0.021 C 
BRANCH  17  18
HETATM   18  C   UNK N   1      36.368  12.270  12.064  0.00  0.00     0.021 C 
BRANCH  18  19
HETATM   19  C   UNK N   1      36.222  13.438  11.116  0.00  0.00     0.113 C 
BRANCH  19  20
HETATM   20  N   UNK N   1      36.760  14.629  11.747  0.00  0.00    -0.425 N 
HETATM   21  C   UNK N   1      35.769  15.676  11.583  0.00  0.00     0.139 C 
HETATM   22  H   UNK N   1      37.663  14.714  12.215  0.00  0.00     0.152 HD
ENDBRANCH  19  20
ENDBRANCH  18  19
ENDBRANCH  17  18
ENDBRANCH   1  17
TORSDOF 4
ENDMDL
MODEL 4
REMARK VINA RESULT:      -6.6     24.454     27.789
REMARK  4 active torsions:
REMARK  status: ('A' for Active; 'I' for Inactive)
REMARK    1  A    between atoms: N_1  and  C_16 
REMARK    2  A    between atoms: C_2  and  C_8 
REMARK    3  A    between atoms: C_8  and  C_11 
REMARK    4  A    between atoms: C_11  and  C_16 
ROOT
HETATM    1  C   UNK N   1      26.988  26.901  -6.685  0.00  0.00     0.015 C 
HETATM    2  C   UNK N   1      25.657  27.397  -4.402  0.00  0.00     0.052 C 
HETATM    3  C   UNK N   1      25.454  26.903  -6.931  0.00  0.00     0.020 C 
HETATM    4  C   UNK N   1      24.675  27.195  -5.592  0.00  0.00     0.015 C 
HETATM    5  C   UNK N   1      27.200  25.865  -5.580  0.00  0.00    -0.038 A 
HETATM    6  C   UNK N   1      27.280  28.262  -6.053  0.00  0.00    -0.038 A 
HETATM    7  C   UNK N   1      26.504  26.138  -4.386  0.00  0.00    -0.042 A 
HETATM    8  C   UNK N   1      26.585  28.508  -4.854  0.00  0.00    -0.042 A 
HETATM    9  C   UNK N   1      27.993  24.716  -5.682  0.00  0.00     0.009 A 
HETATM   10  C   UNK N   1      28.146  29.232  -6.572  0.00  0.00     0.009 A 
HETATM   11  C   UNK N   1      26.600  25.275  -3.294  0.00  0.00     0.008 A 
HETATM   12  C   UNK N   1      26.756  29.711  -4.168  0.00  0.00     0.008 A 
HETATM   13  C   UNK N   1      28.086  23.845  -4.588  0.00  0.00     0.001 A 
HETATM   14  C   UNK N   1      28.313  30.443  -5.889  0.00  0.00     0.001 A 
HETATM   15  C   UNK N   1      27.395  24.125  -3.400  0.00  0.00     0.001 A 
HETATM   16  C   UNK N   1      27.624  30.679  -4.690  0.00  0.00     0.001 A 
ENDROOT
BRANCH   1  17
HETATM   17  C   UNK N   1      27.762  26.616  -7.982  0.00  0.00     0.021 C 
BRANCH  17  18
HETATM   18  C   UNK N   1      26.824  26.232  -9.121  0.00  0.00     0.021 C 
BRANCH  18  19
HETATM   19  C   UNK N   1      26.927  24.756  -9.430  0.00  0.00     0.113 C 
BRANCH  19  20
HETATM   20  N   UNK N   1      25.601  24.169  -9.380  0.00  0.00    -0.425 N 
HETATM   21  C   UNK N   1      25.549  23.346  -8.186  0.00  0.00     0.139 C 
HETATM   22  H   UNK N   1      24.849  24.308 -10.056  0.00  0.00     0.152 HD
ENDBRANCH  19  20
ENDBRANCH  18  19
ENDBRANCH  17  18
ENDBRANCH   1  17
TORSDOF 4
ENDMDL
MODEL 5
REMARK VINA RESULT:      -6.5      2.611      5.181
REMARK  4 active torsions:
REMARK  status: ('A' for Active; 'I' for Inactive)
REMARK    1  A    between atoms: N_1  and  C_16 
REMARK    2  A    between atoms: C_2  and  C_8 
REMARK    3  A    between atoms: C_8  and  C_11 
REMARK    4  A    between atoms: C_11  and  C_16 
ROOT
HETATM    1  C   UNK N   1      35.381   9.653  18.203  0.00  0.00     0.015 C 
HETATM    2  C   UNK N   1      35.469  11.243  20.370  0.00  0.00     0.052 C 
HETATM    3  C   UNK N   1      36.733   9.489  18.952  0.00  0.00     0.020 C 
HETATM    4  C   UNK N   1      36.782  10.420  20.223  0.00  0.00     0.015 C 
HETATM    5  C   UNK N   1      35.284  11.150  17.906  0.00  0.00    -0.038 A 
HETATM    6  C   UNK N   1      34.316   9.360  19.259  0.00  0.00    -0.038 A 
HETATM    7  C   UNK N   1      35.325  11.973  19.048  0.00  0.00    -0.042 A 
HETATM    8  C   UNK N   1      34.365  10.203  20.385  0.00  0.00    -0.042 A 
HETATM    9  C   UNK N   1      35.176  11.722  16.633  0.00  0.00     0.009 A 
HETATM   10  C   UNK N   1      33.348   8.350  19.182  0.00  0.00     0.009 A 
HETATM   11  C   UNK N   1      35.251  13.361  18.927  0.00  0.00     0.008 A 
HETATM   12  C   UNK N   1      33.451  10.050  21.429  0.00  0.00     0.008 A 
HETATM   13  C   UNK N   1      35.109  13.116  16.509  0.00  0.00     0.001 A 
HETATM   14  C   UNK N   1      32.435   8.190  20.231  0.00  0.00     0.001 A 
HETATM   15  C   UNK N   1      35.144  13.931  17.651  0.00  0.00     0.001 A 
HETATM   16  C   UNK N   1      32.484   9.038  21.348  0.00  0.00     0.001 A 
ENDROOT
BRANCH   1  17
HETATM   17  C   UNK N   1      35.318   8.751  16.960  0.00  0.00     0.021 C 
BRANCH  17  18
HETATM   18  C   UNK N   1      36.712   8.372  16.471  0.00  0.00     0.021 C 
BRANCH  18  19
HETATM   19  C   UNK N   1      36.963   8.916  15.084  0.00  0.00     0.113 C 
BRANCH  19  20
HETATM   20  N   UNK N   1      38.238   9.609  15.072  0.00  0.00    -0.425 N 
HETATM   21  C   UNK N   1      38.032  10.857  14.361  0.00  0.00     0.139 C 
HETATM   22  H   UNK N   1      39.112   9.281  15.484  0.00  0.00     0.152 HD
ENDBRANCH  19  20
ENDBRANCH  18  19
ENDBRANCH  17  18
ENDBRANCH   1  17
TORSDOF 4
ENDMDL
MODEL 6
REMARK VINA RESULT:      -6.3     22.164     25.610
REMARK  4 active torsions:
REMARK  status: ('A' for Active; 'I' for Inactive)
REMARK    1  A    between atoms: N_1  and  C_16 
REMARK    2  A    between atoms: C_2  and  C_8 
REMARK    3  A    between atoms: C_8  and  C_11 
REMARK    4  A    between atoms: C_11  and  C_16 
ROOT
HETATM    1  C   UNK N   1      27.253  24.300  -5.178  0.00  0.00     0.015 C 
HETATM    2  C   UNK N   1      29.366  23.201  -6.425  0.00  0.00     0.052 C 
HETATM    3  C   UNK N   1      28.038  25.373  -5.981  0.00  0.00     0.020 C 
HETATM    4  C   UNK N   1      29.276  24.728  -6.712  0.00  0.00     0.015 C 
HETATM    5  C   UNK N   1      28.293  23.675  -4.248  0.00  0.00    -0.038 A 
HETATM    6  C   UNK N   1      26.904  23.225  -6.207  0.00  0.00    -0.038 A 
HETATM    7  C   UNK N   1      29.393  23.096  -4.911  0.00  0.00    -0.042 A 
HETATM    8  C   UNK N   1      28.018  22.650  -6.848  0.00  0.00    -0.042 A 
HETATM    9  C   UNK N   1      28.229  23.656  -2.850  0.00  0.00     0.009 A 
HETATM   10  C   UNK N   1      25.610  22.805  -6.541  0.00  0.00     0.009 A 
HETATM   11  C   UNK N   1      30.423  22.494  -4.188  0.00  0.00     0.008 A 
HETATM   12  C   UNK N   1      27.848  21.655  -7.812  0.00  0.00     0.008 A 
HETATM   13  C   UNK N   1      29.266  23.057  -2.122  0.00  0.00     0.001 A 
HETATM   14  C   UNK N   1      25.438  21.812  -7.513  0.00  0.00     0.001 A 
HETATM   15  C   UNK N   1      30.356  22.477  -2.788  0.00  0.00     0.001 A 
HETATM   16  C   UNK N   1      26.552  21.237  -8.143  0.00  0.00     0.001 A 
ENDROOT
BRANCH   1  17
HETATM   17  C   UNK N   1      26.042  24.915  -4.457  0.00  0.00     0.021 C 
BRANCH  17  18
HETATM   18  C   UNK N   1      26.144  26.435  -4.389  0.00  0.00     0.021 C 
BRANCH  18  19
HETATM   19  C   UNK N   1      26.287  26.901  -2.958  0.00  0.00     0.113 C 
BRANCH  19  20
HETATM   20  N   UNK N   1      26.373  28.350  -2.940  0.00  0.00    -0.425 N 
HETATM   21  C   UNK N   1      26.068  28.807  -4.283  0.00  0.00     0.139 C 
HETATM   22  H   UNK N   1      26.605  28.935  -2.136  0.00  0.00     0.152 HD
ENDBRANCH  19  20
ENDBRANCH  18  19
ENDBRANCH  17  18
ENDBRANCH   1  17
TORSDOF 4
ENDMDL
MODEL 7
REMARK VINA RESULT:      -6.3      7.631     11.350
REMARK  4 active torsions:
REMARK  status: ('A' for Active; 'I' for Inactive)
REMARK    1  A    between atoms: N_1  and  C_16 
REMARK    2  A    between atoms: C_2  and  C_8 
REMARK    3  A    between atoms: C_8  and  C_11 
REMARK    4  A    between atoms: C_11  and  C_16 
ROOT
HETATM    1  C   UNK N   1      32.371  16.450   6.384  0.00  0.00     0.015 C 
HETATM    2  C   UNK N   1      32.902  17.491   8.806  0.00  0.00     0.052 C 
HETATM    3  C   UNK N   1      33.482  17.532   6.287  0.00  0.00     0.020 C 
HETATM    4  C   UNK N   1      33.793  18.140   7.708  0.00  0.00     0.015 C 
HETATM    5  C   UNK N   1      31.193  17.164   7.049  0.00  0.00    -0.038 A 
HETATM    6  C   UNK N   1      32.896  15.449   7.413  0.00  0.00    -0.038 A 
HETATM    7  C   UNK N   1      31.480  17.700   8.320  0.00  0.00    -0.042 A 
HETATM    8  C   UNK N   1      33.162  16.002   8.680  0.00  0.00    -0.042 A 
HETATM    9  C   UNK N   1      29.918  17.321   6.494  0.00  0.00     0.009 A 
HETATM   10  C   UNK N   1      33.124  14.086   7.182  0.00  0.00     0.009 A 
HETATM   11  C   UNK N   1      30.500  18.383   9.040  0.00  0.00     0.008 A 
HETATM   12  C   UNK N   1      33.646  15.203   9.717  0.00  0.00     0.008 A 
HETATM   13  C   UNK N   1      28.935  18.012   7.214  0.00  0.00     0.001 A 
HETATM   14  C   UNK N   1      33.615  13.285   8.219  0.00  0.00     0.001 A 
HETATM   15  C   UNK N   1      29.225  18.539   8.482  0.00  0.00     0.001 A 
HETATM   16  C   UNK N   1      33.872  13.840   9.482  0.00  0.00     0.001 A 
ENDROOT
BRANCH   1  17
HETATM   17  C   UNK N   1      32.055  15.848   5.006  0.00  0.00     0.021 C 
BRANCH  17  18
HETATM   18  C   UNK N   1      32.476  16.782   3.877  0.00  0.00     0.021 C 
BRANCH  18  19
HETATM   19  C   UNK N   1      31.568  16.622   2.679  0.00  0.00     0.113 C 
BRANCH  19  20
HETATM   20  N   UNK N   1      30.230  17.052   3.039  0.00  0.00    -0.425 N 
HETATM   21  C   UNK N   1      29.327  15.980   2.663  0.00  0.00     0.139 C 
HETATM   22  H   UNK N   1      29.973  17.939   3.474  0.00  0.00     0.152 HD
ENDBRANCH  19  20
ENDBRANCH  18  19
ENDBRANCH  17  18
ENDBRANCH   1  17
TORSDOF 4
ENDMDL
MODEL 8
REMARK VINA RESULT:      -6.2      1.684      4.068
REMARK  4 active torsions:
REMARK  status: ('A' for Active; 'I' for Inactive)
REMARK    1  A    between atoms: N_1  and  C_16 
REMARK    2  A    between atoms: C_2  and  C_8 
REMARK    3  A    between atoms: C_8  and  C_11 
REMARK    4  A    between atoms: C_11  and  C_16 
ROOT
HETATM    1  C   UNK N   1      36.040  11.956  14.746  0.00  0.00     0.015 C 
HETATM    2  C   UNK N   1      37.156   9.537  15.108  0.00  0.00     0.052 C 
HETATM    3  C   UNK N   1      37.559  11.996  14.424  0.00  0.00     0.020 C 
HETATM    4  C   UNK N   1      38.212  10.577  14.635  0.00  0.00     0.015 C 
HETATM    5  C   UNK N   1      35.963  11.421  16.177  0.00  0.00    -0.038 A 
HETATM    6  C   UNK N   1      35.483  10.851  13.849  0.00  0.00    -0.038 A 
HETATM    7  C   UNK N   1      36.545  10.150  16.354  0.00  0.00    -0.042 A 
HETATM    8  C   UNK N   1      36.068   9.586  14.053  0.00  0.00    -0.042 A 
HETATM    9  C   UNK N   1      35.392  12.088  17.266  0.00  0.00     0.009 A 
HETATM   10  C   UNK N   1      34.484  11.012  12.881  0.00  0.00     0.009 A 
HETATM   11  C   UNK N   1      36.552   9.541  17.609  0.00  0.00     0.008 A 
HETATM   12  C   UNK N   1      35.656   8.484  13.303  0.00  0.00     0.008 A 
HETATM   13  C   UNK N   1      35.404  11.481  18.528  0.00  0.00     0.001 A 
HETATM   14  C   UNK N   1      34.075   9.909  12.123  0.00  0.00     0.001 A 
HETATM   15  C   UNK N   1      35.980  10.213  18.698  0.00  0.00     0.001 A 
HETATM   16  C   UNK N   1      34.656   8.650  12.335  0.00  0.00     0.001 A 
ENDROOT
BRANCH   1  17
HETATM   17  C   UNK N   1      35.389  13.334  14.546  0.00  0.00     0.021 C 
BRANCH  17  18
HETATM   18  C   UNK N   1      36.336  14.305  13.848  0.00  0.00     0.021 C 
BRANCH  18  19
HETATM   19  C   UNK N   1      35.877  14.582  12.435  0.00  0.00     0.113 C 
BRANCH  19  20
HETATM   20  N   UNK N   1      36.987  14.359  11.526  0.00  0.00    -0.425 N 
HETATM   21  C   UNK N   1      36.717  13.115  10.829  0.00  0.00     0.139 C 
HETATM   22  H   UNK N   1      37.801  14.962  11.402  0.00  0.00     0.152 HD
ENDBRANCH  19  20
ENDBRANCH  18  19
ENDBRANCH  17  18
ENDBRANCH   1  17
TORSDOF 4
ENDMDL
MODEL 9
REMARK VINA RESULT:      -6.1      6.603     11.553
REMARK  4 active torsions:
REMARK  status: ('A' for Active; 'I' for Inactive)
REMARK    1  A    between atoms: N_1  and  C_16 
REMARK    2  A    between atoms: C_2  and  C_8 
REMARK    3  A    between atoms: C_8  and  C_11 
REMARK    4  A    between atoms: C_11  and  C_16 
ROOT
HETATM    1  C   UNK N   1      32.235  16.635   6.917  0.00  0.00     0.015 C 
HETATM    2  C   UNK N   1      31.682  16.737   4.288  0.00  0.00     0.052 C 
HETATM    3  C   UNK N   1      33.234  17.569   6.179  0.00  0.00     0.020 C 
HETATM    4  C   UNK N   1      32.908  17.629   4.639  0.00  0.00     0.015 C 
HETATM    5  C   UNK N   1      32.346  15.297   6.185  0.00  0.00    -0.038 A 
HETATM    6  C   UNK N   1      30.855  17.195   6.572  0.00  0.00    -0.038 A 
HETATM    7  C   UNK N   1      32.048  15.360   4.809  0.00  0.00    -0.042 A 
HETATM    8  C   UNK N   1      30.572  17.236   5.193  0.00  0.00    -0.042 A 
HETATM    9  C   UNK N   1      32.719  14.080   6.765  0.00  0.00     0.009 A 
HETATM   10  C   UNK N   1      29.907  17.653   7.495  0.00  0.00     0.009 A 
HETATM   11  C   UNK N   1      32.113  14.215   4.014  0.00  0.00     0.008 A 
HETATM   12  C   UNK N   1      29.348  17.723   4.733  0.00  0.00     0.008 A 
HETATM   13  C   UNK N   1      32.791  12.930   5.967  0.00  0.00     0.001 A 
HETATM   14  C   UNK N   1      28.682  18.149   7.035  0.00  0.00     0.001 A 
HETATM   15  C   UNK N   1      32.487  12.998   4.599  0.00  0.00     0.001 A 
HETATM   16  C   UNK N   1      28.402  18.181   5.660  0.00  0.00     0.001 A 
ENDROOT
BRANCH   1  17
HETATM   17  C   UNK N   1      32.541  16.565   8.422  0.00  0.00     0.021 C 
BRANCH  17  18
HETATM   18  C   UNK N   1      33.768  17.396   8.783  0.00  0.00     0.021 C 
BRANCH  18  19
HETATM   19  C   UNK N   1      34.835  16.533   9.416  0.00  0.00     0.113 C 
BRANCH  19  20
HETATM   20  N   UNK N   1      35.011  16.938  10.798  0.00  0.00    -0.425 N 
HETATM   21  C   UNK N   1      35.792  15.900  11.444  0.00  0.00     0.139 C 
HETATM   22  H   UNK N   1      34.654  17.790  11.232  0.00  0.00     0.152 HD
ENDBRANCH  19  20
ENDBRANCH  18  19
ENDBRANCH  17  18
ENDBRANCH   1  17
TORSDOF 4
ENDMDL
