MODEL 1
REMARK VINA RESULT:      -6.9      0.000      0.000
REMARK  4 active torsions:
REMARK  status: ('A' for Active; 'I' for Inactive)
REMARK    1  A    between atoms: O_1  and  C_8 
REMARK    2  A    between atoms: C_5  and  C_6 
REMARK    3  A    between atoms: C_7  and  C_15 
REMARK    4  A    between atoms: C_15  and  C_16 
ROOT
HETATM    1  C   UNK N   1      28.007  19.024   6.058  0.00  0.00    -0.016 A 
HETATM    2  C   UNK N   1      29.978  17.464   7.406  0.00  0.00    -0.036 A 
HETATM    3  C   UNK N   1      28.069  19.010   7.473  0.00  0.00     0.079 A 
HETATM    4  C   UNK N   1      29.046  18.243   8.131  0.00  0.00    -0.021 A 
HETATM    5  C   UNK N   1      29.897  17.464   5.990  0.00  0.00    -0.054 A 
HETATM    6  C   UNK N   1      28.930  18.242   5.348  0.00  0.00     0.018 A 
HETATM    7  C   UNK N   1      29.086  18.266   9.631  0.00  0.00     0.052 C 
HETATM    8  C   UNK N   1      30.804  16.672   5.118  0.00  0.00     0.049 C 
ENDROOT
BRANCH   2   9
HETATM    9  C   UNK N   1      31.003  16.693   8.235  0.00  0.00     0.115 C 
BRANCH   9  10
HETATM   10  C   UNK N   1      32.448  17.068   8.364  0.00  0.00     0.077 A 
HETATM   11  N   UNK N   1      33.297  16.454   9.280  0.00  0.00    -0.378 N 
HETATM   12  C   UNK N   1      34.565  17.130   9.266  0.00  0.00     0.140 A 
HETATM   13  H   UNK N   1      33.066  15.682   9.846  0.00  0.00     0.160 HD
HETATM   14  C   UNK N   1      34.357  18.231   8.194  0.00  0.00     0.140 A 
HETATM   15  N   UNK N   1      32.983  18.060   7.777  0.00  0.00    -0.378 N 
ATOM     16  HN  UNK N   1      32.505  18.656   7.101  1.00  0.00     0.160 HD
ENDBRANCH   9  10
ENDBRANCH   2   9
BRANCH   3  17
HETATM   17  O   UNK N   1      27.209  19.733   8.214  0.00  0.00    -0.360 OA
HETATM   18  H   UNK N   1      27.484  20.088   9.037  0.00  0.00     0.217 HD
ENDBRANCH   3  17
BRANCH   1  19
HETATM   19  C   UNK N   1      27.000  19.850   5.247  0.00  0.00    -0.021 C 
HETATM   20  C   UNK N   1      27.022  21.287   5.739  0.00  0.00     0.019 C 
HETATM   21  C   UNK N   1      27.392  19.843   3.779  0.00  0.00     0.019 C 
HETATM   22  C   UNK N   1      25.554  19.384   5.315  0.00  0.00     0.019 C 
ENDBRANCH   1  19
TORSDOF 4
ENDMDL
MODEL 2
REMARK VINA RESULT:      -6.4      1.198      2.435
REMARK  4 active torsions:
REMARK  status: ('A' for Active; 'I' for Inactive)
REMARK    1  A    between atoms: O_1  and  C_8 
REMARK    2  A    between atoms: C_5  and  C_6 
REMARK    3  A    between atoms: C_7  and  C_15 
REMARK    4  A    between atoms: C_15  and  C_16 
ROOT
HETATM    1  C   UNK N   1      28.107  18.827   6.003  0.00  0.00    -0.016 A 
HETATM    2  C   UNK N   1      30.129  17.375   7.395  0.00  0.00    -0.036 A 
HETATM    3  C   UNK N   1      28.981  17.959   5.303  0.00  0.00     0.079 A 
HETATM    4  C   UNK N   1      29.972  17.243   5.996  0.00  0.00    -0.021 A 
HETATM    5  C   UNK N   1      29.266  18.262   8.088  0.00  0.00    -0.054 A 
HETATM    6  C   UNK N   1      28.277  18.958   7.390  0.00  0.00     0.018 A 
HETATM    7  C   UNK N   1      30.868  16.324   5.219  0.00  0.00     0.052 C 
HETATM    8  C   UNK N   1      29.345  18.504   9.553  0.00  0.00     0.049 C 
ENDROOT
BRANCH   2   9
HETATM    9  C   UNK N   1      31.227  16.527   8.034  0.00  0.00     0.115 C 
BRANCH   9  10
HETATM   10  C   UNK N   1      32.631  16.994   8.275  0.00  0.00     0.077 A 
HETATM   11  N   UNK N   1      33.417  16.486   9.304  0.00  0.00    -0.378 N 
HETATM   12  C   UNK N   1      34.643  17.233   9.366  0.00  0.00     0.140 A 
HETATM   13  H   UNK N   1      33.174  15.736   9.894  0.00  0.00     0.160 HD
HETATM   14  C   UNK N   1      34.483  18.255   8.211  0.00  0.00     0.140 A 
HETATM   15  N   UNK N   1      33.167  17.980   7.679  0.00  0.00    -0.378 N 
ATOM     16  HN  UNK N   1      32.727  18.506   6.924  1.00  0.00     0.160 HD
ENDBRANCH   9  10
ENDBRANCH   2   9
BRANCH   3  17
HETATM   17  O   UNK N   1      28.876  17.793   3.972  0.00  0.00    -0.360 OA
HETATM   18  H   UNK N   1      29.094  18.496   3.393  0.00  0.00     0.217 HD
ENDBRANCH   3  17
BRANCH   1  19
HETATM   19  C   UNK N   1      26.976  19.628   5.345  0.00  0.00    -0.021 C 
HETATM   20  C   UNK N   1      27.494  20.265   4.067  0.00  0.00     0.019 C 
HETATM   21  C   UNK N   1      25.829  18.699   4.985  0.00  0.00     0.019 C 
HETATM   22  C   UNK N   1      26.383  20.748   6.185  0.00  0.00     0.019 C 
ENDBRANCH   1  19
TORSDOF 4
ENDMDL
MODEL 3
REMARK VINA RESULT:      -6.2      2.809      6.156
REMARK  4 active torsions:
REMARK  status: ('A' for Active; 'I' for Inactive)
REMARK    1  A    between atoms: O_1  and  C_8 
REMARK    2  A    between atoms: C_5  and  C_6 
REMARK    3  A    between atoms: C_7  and  C_15 
REMARK    4  A    between atoms: C_15  and  C_16 
ROOT
HETATM    1  C   UNK N   1      32.116  17.177   7.277  0.00  0.00    -0.016 A 
HETATM    2  C   UNK N   1      29.489  17.360   6.181  0.00  0.00    -0.036 A 
HETATM    3  C   UNK N   1      31.016  17.523   8.099  0.00  0.00     0.079 A 
HETATM    4  C   UNK N   1      29.723  17.607   7.554  0.00  0.00    -0.021 A 
HETATM    5  C   UNK N   1      30.598  17.036   5.358  0.00  0.00    -0.054 A 
HETATM    6  C   UNK N   1      31.875  16.943   5.915  0.00  0.00     0.018 A 
HETATM    7  C   UNK N   1      28.583  17.963   8.461  0.00  0.00     0.052 C 
HETATM    8  C   UNK N   1      30.485  16.776   3.898  0.00  0.00     0.049 C 
ENDROOT
BRANCH   2   9
HETATM    9  C   UNK N   1      28.038  17.461   5.714  0.00  0.00     0.115 C 
BRANCH   9  10
HETATM   10  C   UNK N   1      27.422  18.686   5.111  0.00  0.00     0.077 A 
HETATM   11  N   UNK N   1      26.374  19.369   5.720  0.00  0.00    -0.378 N 
HETATM   12  C   UNK N   1      25.909  20.399   4.832  0.00  0.00     0.140 A 
HETATM   13  H   UNK N   1      26.009  19.178   6.615  0.00  0.00     0.160 HD
HETATM   14  C   UNK N   1      26.845  20.244   3.605  0.00  0.00     0.140 A 
HETATM   15  N   UNK N   1      27.684  19.116   3.944  0.00  0.00    -0.378 N 
ATOM     16  HN  UNK N   1      28.394  18.718   3.329  1.00  0.00     0.160 HD
ENDBRANCH   9  10
ENDBRANCH   2   9
BRANCH   3  17
HETATM   17  O   UNK N   1      31.178  17.767   9.413  0.00  0.00    -0.360 OA
HETATM   18  H   UNK N   1      30.551  18.289   9.874  0.00  0.00     0.217 HD
ENDBRANCH   3  17
BRANCH   1  19
HETATM   19  C   UNK N   1      33.557  17.030   7.781  0.00  0.00    -0.021 C 
HETATM   20  C   UNK N   1      34.405  16.399   6.691  0.00  0.00     0.019 C 
HETATM   21  C   UNK N   1      34.133  18.399   8.101  0.00  0.00     0.019 C 
HETATM   22  C   UNK N   1      33.738  16.177   9.027  0.00  0.00     0.019 C 
ENDBRANCH   1  19
TORSDOF 4
ENDMDL
MODEL 4
REMARK VINA RESULT:      -6.1     10.583     14.347
REMARK  4 active torsions:
REMARK  status: ('A' for Active; 'I' for Inactive)
REMARK    1  A    between atoms: O_1  and  C_8 
REMARK    2  A    between atoms: C_5  and  C_6 
REMARK    3  A    between atoms: C_7  and  C_15 
REMARK    4  A    between atoms: C_15  and  C_16 
ROOT
HETATM    1  C   UNK N   1      35.284  10.703  19.087  0.00  0.00    -0.016 A 
HETATM    2  C   UNK N   1      35.017  12.236  16.697  0.00  0.00    -0.036 A 
HETATM    3  C   UNK N   1      35.393  12.115  19.122  0.00  0.00     0.079 A 
HETATM    4  C   UNK N   1      35.255  12.865  17.941  0.00  0.00    -0.021 A 
HETATM    5  C   UNK N   1      34.930  10.820  16.664  0.00  0.00    -0.054 A 
HETATM    6  C   UNK N   1      35.056  10.088  17.847  0.00  0.00     0.018 A 
HETATM    7  C   UNK N   1      35.364  14.359  18.023  0.00  0.00     0.052 C 
HETATM    8  C   UNK N   1      34.704  10.043  15.417  0.00  0.00     0.049 C 
ENDROOT
BRANCH   2   9
HETATM    9  C   UNK N   1      34.864  13.161  15.491  0.00  0.00     0.115 C 
BRANCH   9  10
HETATM   10  C   UNK N   1      35.531  12.948  14.166  0.00  0.00     0.077 A 
HETATM   11  N   UNK N   1      34.814  12.660  13.010  0.00  0.00    -0.378 N 
HETATM   12  C   UNK N   1      35.738  12.365  11.949  0.00  0.00     0.140 A 
HETATM   13  H   UNK N   1      33.832  12.658  12.930  0.00  0.00     0.160 HD
HETATM   14  C   UNK N   1      37.117  12.536  12.636  0.00  0.00     0.140 A 
HETATM   15  N   UNK N   1      36.789  12.858  14.007  0.00  0.00    -0.378 N 
ATOM     16  HN  UNK N   1      37.475  12.997  14.748  1.00  0.00     0.160 HD
ENDBRANCH   9  10
ENDBRANCH   2   9
BRANCH   3  17
HETATM   17  O   UNK N   1      35.618  12.767  20.277  0.00  0.00    -0.360 OA
HETATM   18  H   UNK N   1      35.096  12.576  21.032  0.00  0.00     0.217 HD
ENDBRANCH   3  17
BRANCH   1  19
HETATM   19  C   UNK N   1      35.388   9.799  20.322  0.00  0.00    -0.021 C 
HETATM   20  C   UNK N   1      35.213   8.351  19.897  0.00  0.00     0.019 C 
HETATM   21  C   UNK N   1      36.761   9.948  20.955  0.00  0.00     0.019 C 
HETATM   22  C   UNK N   1      34.369  10.060  21.421  0.00  0.00     0.019 C 
ENDBRANCH   1  19
TORSDOF 4
ENDMDL
MODEL 5
REMARK VINA RESULT:      -6.1      1.744      2.517
REMARK  4 active torsions:
REMARK  status: ('A' for Active; 'I' for Inactive)
REMARK    1  A    between atoms: O_1  and  C_8 
REMARK    2  A    between atoms: C_5  and  C_6 
REMARK    3  A    between atoms: C_7  and  C_15 
REMARK    4  A    between atoms: C_15  and  C_16 
ROOT
HETATM    1  C   UNK N   1      28.756  16.987   6.338  0.00  0.00    -0.016 A 
HETATM    2  C   UNK N   1      31.242  17.555   7.617  0.00  0.00    -0.036 A 
HETATM    3  C   UNK N   1      28.785  17.607   7.611  0.00  0.00     0.079 A 
HETATM    4  C   UNK N   1      30.013  17.889   8.233  0.00  0.00    -0.021 A 
HETATM    5  C   UNK N   1      31.206  16.914   6.352  0.00  0.00    -0.054 A 
HETATM    6  C   UNK N   1      29.979  16.651   5.738  0.00  0.00     0.018 A 
HETATM    7  C   UNK N   1      30.001  18.559   9.576  0.00  0.00     0.052 C 
HETATM    8  C   UNK N   1      32.426  16.494   5.612  0.00  0.00     0.049 C 
ENDROOT
BRANCH   2   9
HETATM    9  C   UNK N   1      32.507  17.932   8.383  0.00  0.00     0.115 C 
BRANCH   9  10
HETATM   10  C   UNK N   1      33.355  16.967   9.154  0.00  0.00     0.077 A 
HETATM   11  N   UNK N   1      32.919  15.685   9.474  0.00  0.00    -0.378 N 
HETATM   12  C   UNK N   1      33.886  15.065  10.337  0.00  0.00     0.140 A 
HETATM   13  H   UNK N   1      32.082  15.269   9.160  0.00  0.00     0.160 HD
HETATM   14  C   UNK N   1      34.976  16.159  10.475  0.00  0.00     0.140 A 
HETATM   15  N   UNK N   1      34.457  17.270   9.709  0.00  0.00    -0.378 N 
ATOM     16  HN  UNK N   1      34.916  18.177   9.623  1.00  0.00     0.160 HD
ENDBRANCH   9  10
ENDBRANCH   2   9
BRANCH   3  17
HETATM   17  O   UNK N   1      27.648  17.949   8.244  0.00  0.00    -0.360 OA
HETATM   18  H   UNK N   1      27.363  17.460   8.992  0.00  0.00     0.217 HD
ENDBRANCH   3  17
BRANCH   1  19
HETATM   19  C   UNK N   1      27.471  16.666   5.563  0.00  0.00    -0.021 C 
HETATM   20  C   UNK N   1      27.836  16.044   4.227  0.00  0.00     0.019 C 
HETATM   21  C   UNK N   1      26.636  15.665   6.344  0.00  0.00     0.019 C 
HETATM   22  C   UNK N   1      26.566  17.851   5.264  0.00  0.00     0.019 C 
ENDBRANCH   1  19
TORSDOF 4
ENDMDL
MODEL 6
REMARK VINA RESULT:      -6.1      2.925      6.457
REMARK  4 active torsions:
REMARK  status: ('A' for Active; 'I' for Inactive)
REMARK    1  A    between atoms: O_1  and  C_8 
REMARK    2  A    between atoms: C_5  and  C_6 
REMARK    3  A    between atoms: C_7  and  C_15 
REMARK    4  A    between atoms: C_15  and  C_16 
ROOT
HETATM    1  C   UNK N   1      32.374  17.192   7.618  0.00  0.00    -0.016 A 
HETATM    2  C   UNK N   1      29.602  17.602   7.086  0.00  0.00    -0.036 A 
HETATM    3  C   UNK N   1      31.866  17.059   6.302  0.00  0.00     0.079 A 
HETATM    4  C   UNK N   1      30.500  17.267   6.046  0.00  0.00    -0.021 A 
HETATM    5  C   UNK N   1      30.111  17.712   8.405  0.00  0.00    -0.054 A 
HETATM    6  C   UNK N   1      31.474  17.516   8.644  0.00  0.00     0.018 A 
HETATM    7  C   UNK N   1      30.005  17.129   4.637  0.00  0.00     0.052 C 
HETATM    8  C   UNK N   1      29.266  18.037   9.585  0.00  0.00     0.049 C 
ENDROOT
BRANCH   2   9
HETATM    9  C   UNK N   1      28.147  17.823   6.677  0.00  0.00     0.115 C 
BRANCH   9  10
HETATM   10  C   UNK N   1      27.524  19.166   6.445  0.00  0.00     0.077 A 
HETATM   11  N   UNK N   1      27.590  19.814   5.215  0.00  0.00    -0.378 N 
HETATM   12  C   UNK N   1      27.036  21.133   5.353  0.00  0.00     0.140 A 
HETATM   13  H   UNK N   1      27.957  19.431   4.385  0.00  0.00     0.160 HD
HETATM   14  C   UNK N   1      26.613  21.175   6.844  0.00  0.00     0.140 A 
HETATM   15  N   UNK N   1      27.027  19.891   7.363  0.00  0.00    -0.378 N 
ATOM     16  HN  UNK N   1      26.931  19.603   8.337  1.00  0.00     0.160 HD
ENDBRANCH   9  10
ENDBRANCH   2   9
BRANCH   3  17
HETATM   17  O   UNK N   1      32.674  16.744   5.273  0.00  0.00    -0.360 OA
HETATM   18  H   UNK N   1      33.239  15.998   5.332  0.00  0.00     0.217 HD
ENDBRANCH   3  17
BRANCH   1  19
HETATM   19  C   UNK N   1      33.851  17.017   7.995  0.00  0.00    -0.021 C 
HETATM   20  C   UNK N   1      34.531  18.374   7.992  0.00  0.00     0.019 C 
HETATM   21  C   UNK N   1      33.959  16.431   9.392  0.00  0.00     0.019 C 
HETATM   22  C   UNK N   1      34.664  16.116   7.079  0.00  0.00     0.019 C 
ENDBRANCH   1  19
TORSDOF 4
ENDMDL
MODEL 7
REMARK VINA RESULT:      -5.9     15.311     16.776
REMARK  4 active torsions:
REMARK  status: ('A' for Active; 'I' for Inactive)
REMARK    1  A    between atoms: O_1  and  C_8 
REMARK    2  A    between atoms: C_5  and  C_6 
REMARK    3  A    between atoms: C_7  and  C_15 
REMARK    4  A    between atoms: C_15  and  C_16 
ROOT
HETATM    1  C   UNK N   1      27.313  29.133  -4.722  0.00  0.00    -0.016 A 
HETATM    2  C   UNK N   1      26.532  27.348  -6.805  0.00  0.00    -0.036 A 
HETATM    3  C   UNK N   1      26.144  28.343  -4.593  0.00  0.00     0.079 A 
HETATM    4  C   UNK N   1      25.768  27.462  -5.621  0.00  0.00    -0.021 A 
HETATM    5  C   UNK N   1      27.689  28.157  -6.940  0.00  0.00    -0.054 A 
HETATM    6  C   UNK N   1      28.059  29.020  -5.905  0.00  0.00     0.018 A 
HETATM    7  C   UNK N   1      24.530  26.633  -5.438  0.00  0.00     0.052 C 
HETATM    8  C   UNK N   1      28.561  28.144  -8.143  0.00  0.00     0.049 C 
ENDROOT
BRANCH   2   9
HETATM    9  C   UNK N   1      26.031  26.340  -7.837  0.00  0.00     0.115 C 
BRANCH   9  10
HETATM   10  C   UNK N   1      26.333  24.872  -7.809  0.00  0.00     0.077 A 
HETATM   11  N   UNK N   1      27.558  24.356  -8.220  0.00  0.00    -0.378 N 
HETATM   12  C   UNK N   1      27.485  22.921  -8.217  0.00  0.00     0.140 A 
HETATM   13  H   UNK N   1      28.348  24.889  -8.473  0.00  0.00     0.160 HD
HETATM   14  C   UNK N   1      26.039  22.651  -7.727  0.00  0.00     0.140 A 
HETATM   15  N   UNK N   1      25.471  23.971  -7.563  0.00  0.00    -0.378 N 
ATOM     16  HN  UNK N   1      24.508  24.155  -7.285  1.00  0.00     0.160 HD
ENDBRANCH   9  10
ENDBRANCH   2   9
BRANCH   3  17
HETATM   17  O   UNK N   1      25.379  28.409  -3.487  0.00  0.00    -0.360 OA
HETATM   18  H   UNK N   1      25.652  27.975  -2.703  0.00  0.00     0.217 HD
ENDBRANCH   3  17
BRANCH   1  19
HETATM   19  C   UNK N   1      27.824  30.101  -3.647  0.00  0.00    -0.021 C 
HETATM   20  C   UNK N   1      28.979  30.910  -4.213  0.00  0.00     0.019 C 
HETATM   21  C   UNK N   1      26.717  31.062  -3.250  0.00  0.00     0.019 C 
HETATM   22  C   UNK N   1      28.326  29.457  -2.364  0.00  0.00     0.019 C 
ENDBRANCH   1  19
TORSDOF 4
ENDMDL
MODEL 8
REMARK VINA RESULT:      -5.8      2.683      3.842
REMARK  4 active torsions:
REMARK  status: ('A' for Active; 'I' for Inactive)
REMARK    1  A    between atoms: O_1  and  C_8 
REMARK    2  A    between atoms: C_5  and  C_6 
REMARK    3  A    between atoms: C_7  and  C_15 
REMARK    4  A    between atoms: C_15  and  C_16 
ROOT
HETATM    1  C   UNK N   1      29.847  16.762   5.697  0.00  0.00    -0.016 A 
HETATM    2  C   UNK N   1      32.176  17.523   7.157  0.00  0.00    -0.036 A 
HETATM    3  C   UNK N   1      31.122  16.743   5.079  0.00  0.00     0.079 A 
HETATM    4  C   UNK N   1      32.266  17.114   5.806  0.00  0.00    -0.021 A 
HETATM    5  C   UNK N   1      30.894  17.562   7.764  0.00  0.00    -0.054 A 
HETATM    6  C   UNK N   1      29.767  17.177   7.034  0.00  0.00     0.018 A 
HETATM    7  C   UNK N   1      33.599  17.067   5.120  0.00  0.00     0.052 C 
HETATM    8  C   UNK N   1      30.666  17.994   9.168  0.00  0.00     0.049 C 
ENDROOT
BRANCH   2   9
HETATM    9  C   UNK N   1      33.492  17.881   7.844  0.00  0.00     0.115 C 
BRANCH   9  10
HETATM   10  C   UNK N   1      34.245  16.971   8.766  0.00  0.00     0.077 A 
HETATM   11  N   UNK N   1      34.642  17.366  10.040  0.00  0.00    -0.378 N 
HETATM   12  C   UNK N   1      35.465  16.336  10.612  0.00  0.00     0.140 A 
HETATM   13  H   UNK N   1      34.398  18.213  10.479  0.00  0.00     0.160 HD
HETATM   14  C   UNK N   1      35.491  15.257   9.498  0.00  0.00     0.140 A 
HETATM   15  N   UNK N   1      34.716  15.841   8.426  0.00  0.00    -0.378 N 
ATOM     16  HN  UNK N   1      34.566  15.404   7.517  1.00  0.00     0.160 HD
ENDBRANCH   9  10
ENDBRANCH   2   9
BRANCH   3  17
HETATM   17  O   UNK N   1      31.268  16.361   3.797  0.00  0.00    -0.360 OA
HETATM   18  H   UNK N   1      31.364  17.005   3.124  0.00  0.00     0.217 HD
ENDBRANCH   3  17
BRANCH   1  19
HETATM   19  C   UNK N   1      28.545  16.346   5.000  0.00  0.00    -0.021 C 
HETATM   20  C   UNK N   1      27.407  16.388   6.005  0.00  0.00     0.019 C 
HETATM   21  C   UNK N   1      28.227  17.320   3.879  0.00  0.00     0.019 C 
HETATM   22  C   UNK N   1      28.538  14.955   4.386  0.00  0.00     0.019 C 
ENDBRANCH   1  19
TORSDOF 4
ENDMDL
MODEL 9
REMARK VINA RESULT:      -5.7      2.741      3.720
REMARK  4 active torsions:
REMARK  status: ('A' for Active; 'I' for Inactive)
REMARK    1  A    between atoms: O_1  and  C_8 
REMARK    2  A    between atoms: C_5  and  C_6 
REMARK    3  A    between atoms: C_7  and  C_15 
REMARK    4  A    between atoms: C_15  and  C_16 
ROOT
HETATM    1  C   UNK N   1      29.787  17.552   7.287  0.00  0.00    -0.016 A 
HETATM    2  C   UNK N   1      32.412  17.166   6.239  0.00  0.00    -0.036 A 
HETATM    3  C   UNK N   1      30.921  17.661   8.128  0.00  0.00     0.079 A 
HETATM    4  C   UNK N   1      32.212  17.475   7.604  0.00  0.00    -0.021 A 
HETATM    5  C   UNK N   1      31.271  17.035   5.405  0.00  0.00    -0.054 A 
HETATM    6  C   UNK N   1      29.995  17.236   5.936  0.00  0.00     0.018 A 
HETATM    7  C   UNK N   1      33.388  17.613   8.526  0.00  0.00     0.052 C 
HETATM    8  C   UNK N   1      31.348  16.692   3.961  0.00  0.00     0.049 C 
ENDROOT
BRANCH   2   9
HETATM    9  C   UNK N   1      33.862  17.009   5.787  0.00  0.00     0.115 C 
BRANCH   9  10
HETATM   10  C   UNK N   1      34.564  15.695   5.622  0.00  0.00     0.077 A 
HETATM   11  N   UNK N   1      35.481  15.220   6.554  0.00  0.00    -0.378 N 
HETATM   12  C   UNK N   1      36.087  14.021   6.042  0.00  0.00     0.140 A 
HETATM   13  H   UNK N   1      35.684  15.638   7.423  0.00  0.00     0.160 HD
HETATM   14  C   UNK N   1      35.385  13.838   4.672  0.00  0.00     0.140 A 
HETATM   15  N   UNK N   1      34.509  14.984   4.570  0.00  0.00    -0.378 N 
ATOM     16  HN  UNK N   1      33.923  15.194   3.762  1.00  0.00     0.160 HD
ENDBRANCH   9  10
ENDBRANCH   2   9
BRANCH   3  17
HETATM   17  O   UNK N   1      30.792  17.956   9.435  0.00  0.00    -0.360 OA
HETATM   18  H   UNK N   1      31.186  18.732   9.782  0.00  0.00     0.217 HD
ENDBRANCH   3  17
BRANCH   1  19
HETATM   19  C   UNK N   1      28.342  17.767   7.754  0.00  0.00    -0.021 C 
HETATM   20  C   UNK N   1      27.995  19.241   7.640  0.00  0.00     0.019 C 
HETATM   21  C   UNK N   1      27.391  16.982   6.866  0.00  0.00     0.019 C 
HETATM   22  C   UNK N   1      28.042  17.354   9.187  0.00  0.00     0.019 C 
ENDBRANCH   1  19
TORSDOF 4
ENDMDL
