REMARK  4 active torsions:
REMARK  status: ('A' for Active; 'I' for Inactive)
REMARK    1  A    between atoms: O_1  and  C_8 
REMARK    2  A    between atoms: C_5  and  C_6 
REMARK    3  A    between atoms: C_7  and  C_15 
REMARK    4  A    between atoms: C_15  and  C_16 
ROOT
HETATM    1  C   UNK N   1       3.335   2.272  -0.115  0.00  0.00    -0.016 A 
HETATM    2  C   UNK N   1       3.448  -0.571   0.090  0.00  0.00    -0.036 A 
HETATM    3  C   UNK N   1       2.145   1.509  -0.023  0.00  0.00     0.079 A 
HETATM    4  C   UNK N   1       2.208   0.109   0.083  0.00  0.00    -0.021 A 
HETATM    5  C   UNK N   1       4.636   0.196  -0.025  0.00  0.00    -0.054 A 
HETATM    6  C   UNK N   1       4.560   1.588  -0.116  0.00  0.00     0.018 A 
HETATM    7  C   UNK N   1       0.925  -0.661   0.192  0.00  0.00     0.052 C 
HETATM    8  C   UNK N   1       5.997  -0.402  -0.051  0.00  0.00     0.049 C 
ENDROOT
BRANCH   2   9
HETATM    9  C   UNK N   1       3.385  -2.090   0.232  0.00  0.00     0.115 C 
BRANCH   9  10
HETATM   10  C   UNK N   1       4.568  -3.004   0.128  0.00  0.00     0.077 A 
HETATM   11  N   UNK N   1       4.617  -4.057  -0.780  0.00  0.00    -0.378 N 
HETATM   12  C   UNK N   1       5.803  -4.830  -0.534  0.00  0.00     0.140 A 
HETATM   13  H   UNK N   1       3.947  -4.243  -1.478  0.00  0.00     0.160 HD
HETATM   14  C   UNK N   1       6.468  -4.075   0.646  0.00  0.00     0.140 A 
HETATM   15  N   UNK N   1       5.545  -3.002   0.941  0.00  0.00    -0.378 N 
ATOM     16  HN  UNK N   1       5.662  -2.331   1.700  1.00  0.00     0.160 HD
ENDBRANCH   9  10
ENDBRANCH   2   9
BRANCH   3  17
HETATM   17  O   UNK N   1       0.937   2.102  -0.023  0.00  0.00    -0.360 OA
HETATM   18  H   UNK N   1       0.874   3.037  -0.023  0.00  0.00     0.217 HD
ENDBRANCH   3  17
BRANCH   1  19
HETATM   19  C   UNK N   1       3.374   3.803  -0.203  0.00  0.00    -0.021 C 
HETATM   20  C   UNK N   1       4.103   4.354   1.010  0.00  0.00     0.019 C 
HETATM   21  C   UNK N   1       4.132   4.228  -1.449  0.00  0.00     0.019 C 
HETATM   22  C   UNK N   1       2.022   4.497  -0.256  0.00  0.00     0.019 C 
ENDBRANCH   1  19
TORSDOF 4
