MODEL 1
REMARK VINA RESULT:      -5.4      0.000      0.000
REMARK  5 active torsions:
REMARK  status: ('A' for Active; 'I' for Inactive)
REMARK    1  A    between atoms: N_2  and  C_3 
REMARK    2  A    between atoms: N_2  and  C_4 
REMARK    3  A    between atoms: N_2  and  C_5 
REMARK    4  A    between atoms: C_3  and  C_6 
REMARK    5  A    between atoms: C_6  and  C_10 
ROOT
HETATM    1  O   UNK N   1      34.071  13.026  15.470  0.00  0.00    -0.290 OA
HETATM    2  C   UNK N   1      35.195  12.943  15.954  0.00  0.00     0.192 C 
ENDROOT
BRANCH   2   3
HETATM    3  C   UNK N   1      36.383  13.327  15.051  0.00  0.00     0.293 C 
HETATM    4  C   UNK N   1      37.081  14.633  15.442  0.00  0.00     0.051 C 
BRANCH   3   5
HETATM    5  N   UNK N   1      36.060  13.294  13.606  0.00  0.00     0.099 N 
BRANCH   5   6
HETATM    6  C   UNK N   1      36.136  14.651  13.057  0.00  0.00     0.269 C 
HETATM    7  C   UNK N   1      35.314  14.774  11.785  0.00  0.00     0.037 C 
ENDBRANCH   5   6
BRANCH   5   8
HETATM    8  C   UNK N   1      37.107  12.548  12.912  0.00  0.00     0.269 C 
HETATM    9  C   UNK N   1      37.556  11.373  13.759  0.00  0.00     0.037 C 
ENDBRANCH   5   8
ENDBRANCH   3   5
ENDBRANCH   2   3
BRANCH   2  10
HETATM   10  C   UNK N   1      35.297  12.395  17.347  0.00  0.00     0.012 A 
HETATM   11  C   UNK N   1      35.116  13.189  18.493  0.00  0.00     0.015 A 
HETATM   12  C   UNK N   1      35.261  12.646  19.773  0.00  0.00     0.001 A 
HETATM   13  C   UNK N   1      35.597  11.300  19.927  0.00  0.00     0.000 A 
HETATM   14  C   UNK N   1      35.774  10.495  18.801  0.00  0.00     0.001 A 
HETATM   15  C   UNK N   1      35.623  11.039  17.522  0.00  0.00     0.015 A 
ENDBRANCH   2  10
TORSDOF 5
ENDMDL
MODEL 2
REMARK VINA RESULT:      -5.3     22.246     25.193
REMARK  5 active torsions:
REMARK  status: ('A' for Active; 'I' for Inactive)
REMARK    1  A    between atoms: N_2  and  C_3 
REMARK    2  A    between atoms: N_2  and  C_4 
REMARK    3  A    between atoms: N_2  and  C_5 
REMARK    4  A    between atoms: C_3  and  C_6 
REMARK    5  A    between atoms: C_6  and  C_10 
ROOT
HETATM    1  O   UNK N   1      26.757  23.739  -2.832  0.00  0.00    -0.290 OA
HETATM    2  C   UNK N   1      27.147  24.377  -3.803  0.00  0.00     0.192 C 
ENDROOT
BRANCH   2   3
HETATM    3  C   UNK N   1      28.448  23.907  -4.481  0.00  0.00     0.293 C 
HETATM    4  C   UNK N   1      28.252  23.275  -5.863  0.00  0.00     0.051 C 
BRANCH   3   5
HETATM    5  N   UNK N   1      29.293  23.058  -3.610  0.00  0.00     0.099 N 
BRANCH   5   6
HETATM    6  C   UNK N   1      30.144  22.200  -4.441  0.00  0.00     0.269 C 
HETATM    7  C   UNK N   1      30.602  20.972  -3.670  0.00  0.00     0.037 C 
ENDBRANCH   5   6
BRANCH   5   8
HETATM    8  C   UNK N   1      30.223  23.918  -2.882  0.00  0.00     0.269 C 
HETATM    9  C   UNK N   1      30.846  24.927  -3.827  0.00  0.00     0.037 C 
ENDBRANCH   5   8
ENDBRANCH   3   5
ENDBRANCH   2   3
BRANCH   2  10
HETATM   10  C   UNK N   1      26.360  25.599  -4.175  0.00  0.00     0.012 A 
HETATM   11  C   UNK N   1      25.595  25.683  -5.352  0.00  0.00     0.015 A 
HETATM   12  C   UNK N   1      24.909  26.856  -5.680  0.00  0.00     0.001 A 
HETATM   13  C   UNK N   1      24.984  27.968  -4.840  0.00  0.00     0.000 A 
HETATM   14  C   UNK N   1      25.734  27.901  -3.665  0.00  0.00     0.001 A 
HETATM   15  C   UNK N   1      26.414  26.724  -3.336  0.00  0.00     0.015 A 
ENDBRANCH   2  10
TORSDOF 5
ENDMDL
MODEL 3
REMARK VINA RESULT:      -5.3     22.376     25.218
REMARK  5 active torsions:
REMARK  status: ('A' for Active; 'I' for Inactive)
REMARK    1  A    between atoms: N_2  and  C_3 
REMARK    2  A    between atoms: N_2  and  C_4 
REMARK    3  A    between atoms: N_2  and  C_5 
REMARK    4  A    between atoms: C_3  and  C_6 
REMARK    5  A    between atoms: C_6  and  C_10 
ROOT
HETATM    1  O   UNK N   1      26.904  23.758  -2.504  0.00  0.00    -0.290 OA
HETATM    2  C   UNK N   1      27.420  24.461  -3.366  0.00  0.00     0.192 C 
ENDROOT
BRANCH   2   3
HETATM    3  C   UNK N   1      28.925  24.267  -3.629  0.00  0.00     0.293 C 
HETATM    4  C   UNK N   1      29.611  25.459  -4.304  0.00  0.00     0.051 C 
BRANCH   3   5
HETATM    5  N   UNK N   1      29.243  22.995  -4.318  0.00  0.00     0.099 N 
BRANCH   5   6
HETATM    6  C   UNK N   1      29.377  23.239  -5.758  0.00  0.00     0.269 C 
HETATM    7  C   UNK N   1      28.236  22.596  -6.530  0.00  0.00     0.037 C 
ENDBRANCH   5   6
BRANCH   5   8
HETATM    8  C   UNK N   1      30.567  22.551  -3.888  0.00  0.00     0.269 C 
HETATM    9  C   UNK N   1      30.601  21.038  -3.790  0.00  0.00     0.037 C 
ENDBRANCH   5   8
ENDBRANCH   3   5
ENDBRANCH   2   3
BRANCH   2  10
HETATM   10  C   UNK N   1      26.545  25.494  -4.014  0.00  0.00     0.012 A 
HETATM   11  C   UNK N   1      25.920  25.292  -5.257  0.00  0.00     0.015 A 
HETATM   12  C   UNK N   1      25.147  26.298  -5.844  0.00  0.00     0.001 A 
HETATM   13  C   UNK N   1      24.992  27.526  -5.200  0.00  0.00     0.000 A 
HETATM   14  C   UNK N   1      25.601  27.743  -3.963  0.00  0.00     0.001 A 
HETATM   15  C   UNK N   1      26.369  26.733  -3.375  0.00  0.00     0.015 A 
ENDBRANCH   2  10
TORSDOF 5
ENDMDL
MODEL 4
REMARK VINA RESULT:      -5.2     22.707     25.507
REMARK  5 active torsions:
REMARK  status: ('A' for Active; 'I' for Inactive)
REMARK    1  A    between atoms: N_2  and  C_3 
REMARK    2  A    between atoms: N_2  and  C_4 
REMARK    3  A    between atoms: N_2  and  C_5 
REMARK    4  A    between atoms: C_3  and  C_6 
REMARK    5  A    between atoms: C_6  and  C_10 
ROOT
HETATM    1  O   UNK N   1      26.775  23.730  -2.516  0.00  0.00    -0.290 OA
HETATM    2  C   UNK N   1      27.283  24.394  -3.414  0.00  0.00     0.192 C 
ENDROOT
BRANCH   2   3
HETATM    3  C   UNK N   1      28.749  24.086  -3.777  0.00  0.00     0.293 C 
HETATM    4  C   UNK N   1      29.539  23.373  -2.675  0.00  0.00     0.051 C 
BRANCH   3   5
HETATM    5  N   UNK N   1      29.485  25.259  -4.302  0.00  0.00     0.099 N 
BRANCH   5   6
HETATM    6  C   UNK N   1      30.747  25.411  -3.570  0.00  0.00     0.269 C 
HETATM    7  C   UNK N   1      31.055  26.876  -3.309  0.00  0.00     0.037 C 
ENDBRANCH   5   6
BRANCH   5   8
HETATM    8  C   UNK N   1      29.881  24.981  -5.680  0.00  0.00     0.269 C 
HETATM    9  C   UNK N   1      29.216  25.968  -6.620  0.00  0.00     0.037 C 
ENDBRANCH   5   8
ENDBRANCH   3   5
ENDBRANCH   2   3
BRANCH   2  10
HETATM   10  C   UNK N   1      26.448  25.490  -4.006  0.00  0.00     0.012 A 
HETATM   11  C   UNK N   1      25.753  25.348  -5.220  0.00  0.00     0.015 A 
HETATM   12  C   UNK N   1      25.020  26.411  -5.756  0.00  0.00     0.001 A 
HETATM   13  C   UNK N   1      24.977  27.637  -5.089  0.00  0.00     0.000 A 
HETATM   14  C   UNK N   1      25.656  27.794  -3.880  0.00  0.00     0.001 A 
HETATM   15  C   UNK N   1      26.384  26.728  -3.344  0.00  0.00     0.015 A 
ENDBRANCH   2  10
TORSDOF 5
ENDMDL
MODEL 5
REMARK VINA RESULT:      -5.1     14.606     16.323
REMARK  5 active torsions:
REMARK  status: ('A' for Active; 'I' for Inactive)
REMARK    1  A    between atoms: N_2  and  C_3 
REMARK    2  A    between atoms: N_2  and  C_4 
REMARK    3  A    between atoms: N_2  and  C_5 
REMARK    4  A    between atoms: C_3  and  C_6 
REMARK    5  A    between atoms: C_6  and  C_10 
ROOT
HETATM    1  O   UNK N   1      19.508  13.878   9.795  0.00  0.00    -0.290 OA
HETATM    2  C   UNK N   1      20.642  14.176   9.435  0.00  0.00     0.192 C 
ENDROOT
BRANCH   2   3
HETATM    3  C   UNK N   1      20.777  15.281   8.369  0.00  0.00     0.293 C 
HETATM    4  C   UNK N   1      20.152  16.623   8.764  0.00  0.00     0.051 C 
BRANCH   3   5
HETATM    5  N   UNK N   1      20.342  14.855   7.019  0.00  0.00     0.099 N 
BRANCH   5   6
HETATM    6  C   UNK N   1      19.866  16.021   6.268  0.00  0.00     0.269 C 
HETATM    7  C   UNK N   1      18.822  15.620   5.239  0.00  0.00     0.037 C 
ENDBRANCH   5   6
BRANCH   5   8
HETATM    8  C   UNK N   1      21.511  14.382   6.281  0.00  0.00     0.269 C 
HETATM    9  C   UNK N   1      22.598  15.439   6.300  0.00  0.00     0.037 C 
ENDBRANCH   5   8
ENDBRANCH   3   5
ENDBRANCH   2   3
BRANCH   2  10
HETATM   10  C   UNK N   1      21.771  13.374  10.010  0.00  0.00     0.012 A 
HETATM   11  C   UNK N   1      21.612  12.514  11.110  0.00  0.00     0.015 A 
HETATM   12  C   UNK N   1      22.702  11.817  11.641  0.00  0.00     0.001 A 
HETATM   13  C   UNK N   1      23.971  11.974  11.082  0.00  0.00     0.000 A 
HETATM   14  C   UNK N   1      24.147  12.819   9.986  0.00  0.00     0.001 A 
HETATM   15  C   UNK N   1      23.055  13.511   9.454  0.00  0.00     0.015 A 
ENDBRANCH   2  10
TORSDOF 5
ENDMDL
MODEL 6
REMARK VINA RESULT:      -5.0      1.866      2.564
REMARK  5 active torsions:
REMARK  status: ('A' for Active; 'I' for Inactive)
REMARK    1  A    between atoms: N_2  and  C_3 
REMARK    2  A    between atoms: N_2  and  C_4 
REMARK    3  A    between atoms: N_2  and  C_5 
REMARK    4  A    between atoms: C_3  and  C_6 
REMARK    5  A    between atoms: C_6  and  C_10 
ROOT
HETATM    1  O   UNK N   1      36.788  10.894  15.179  0.00  0.00    -0.290 OA
HETATM    2  C   UNK N   1      35.735  11.471  15.431  0.00  0.00     0.192 C 
ENDROOT
BRANCH   2   3
HETATM    3  C   UNK N   1      34.783  11.749  14.253  0.00  0.00     0.293 C 
HETATM    4  C   UNK N   1      33.774  10.631  13.974  0.00  0.00     0.051 C 
BRANCH   3   5
HETATM    5  N   UNK N   1      35.482  12.171  13.017  0.00  0.00     0.099 N 
BRANCH   5   6
HETATM    6  C   UNK N   1      34.896  11.479  11.864  0.00  0.00     0.269 C 
HETATM    7  C   UNK N   1      35.626  11.840  10.581  0.00  0.00     0.037 C 
ENDBRANCH   5   6
BRANCH   5   8
HETATM    8  C   UNK N   1      35.205  13.587  12.786  0.00  0.00     0.269 C 
HETATM    9  C   UNK N   1      36.259  14.439  13.467  0.00  0.00     0.037 C 
ENDBRANCH   5   8
ENDBRANCH   3   5
ENDBRANCH   2   3
BRANCH   2  10
HETATM   10  C   UNK N   1      35.527  11.917  16.848  0.00  0.00     0.012 A 
HETATM   11  C   UNK N   1      35.274  13.256  17.196  0.00  0.00     0.015 A 
HETATM   12  C   UNK N   1      35.127  13.634  18.534  0.00  0.00     0.001 A 
HETATM   13  C   UNK N   1      35.239  12.681  19.547  0.00  0.00     0.000 A 
HETATM   14  C   UNK N   1      35.485  11.346  19.220  0.00  0.00     0.001 A 
HETATM   15  C   UNK N   1      35.625  10.969  17.881  0.00  0.00     0.015 A 
ENDBRANCH   2  10
TORSDOF 5
ENDMDL
MODEL 7
REMARK VINA RESULT:      -4.9     14.431     16.216
REMARK  5 active torsions:
REMARK  status: ('A' for Active; 'I' for Inactive)
REMARK    1  A    between atoms: N_2  and  C_3 
REMARK    2  A    between atoms: N_2  and  C_4 
REMARK    3  A    between atoms: N_2  and  C_5 
REMARK    4  A    between atoms: C_3  and  C_6 
REMARK    5  A    between atoms: C_6  and  C_10 
ROOT
HETATM    1  O   UNK N   1      19.437  14.249   9.853  0.00  0.00    -0.290 OA
HETATM    2  C   UNK N   1      20.507  14.080   9.277  0.00  0.00     0.192 C 
ENDROOT
BRANCH   2   3
HETATM    3  C   UNK N   1      20.632  14.632   7.844  0.00  0.00     0.293 C 
HETATM    4  C   UNK N   1      21.161  13.624   6.819  0.00  0.00     0.051 C 
BRANCH   3   5
HETATM    5  N   UNK N   1      21.364  15.918   7.770  0.00  0.00     0.099 N 
BRANCH   5   6
HETATM    6  C   UNK N   1      22.345  15.860   6.682  0.00  0.00     0.269 C 
HETATM    7  C   UNK N   1      22.225  17.071   5.772  0.00  0.00     0.037 C 
ENDBRANCH   5   6
BRANCH   5   8
HETATM    8  C   UNK N   1      20.425  16.965   7.375  0.00  0.00     0.269 C 
HETATM    9  C   UNK N   1      19.751  17.548   8.601  0.00  0.00     0.037 C 
ENDBRANCH   5   8
ENDBRANCH   3   5
ENDBRANCH   2   3
BRANCH   2  10
HETATM   10  C   UNK N   1      21.549  13.279   9.999  0.00  0.00     0.012 A 
HETATM   11  C   UNK N   1      21.241  12.405  11.057  0.00  0.00     0.015 A 
HETATM   12  C   UNK N   1      22.249  11.709  11.730  0.00  0.00     0.001 A 
HETATM   13  C   UNK N   1      23.584  11.882  11.361  0.00  0.00     0.000 A 
HETATM   14  C   UNK N   1      23.908  12.741  10.310  0.00  0.00     0.001 A 
HETATM   15  C   UNK N   1      22.898  13.432   9.635  0.00  0.00     0.015 A 
ENDBRANCH   2  10
TORSDOF 5
ENDMDL
MODEL 8
REMARK VINA RESULT:      -4.9      9.971     13.427
REMARK  5 active torsions:
REMARK  status: ('A' for Active; 'I' for Inactive)
REMARK    1  A    between atoms: N_2  and  C_3 
REMARK    2  A    between atoms: N_2  and  C_4 
REMARK    3  A    between atoms: N_2  and  C_5 
REMARK    4  A    between atoms: C_3  and  C_6 
REMARK    5  A    between atoms: C_6  and  C_10 
ROOT
HETATM    1  O   UNK N   1      28.167  16.399   6.695  0.00  0.00    -0.290 OA
HETATM    2  C   UNK N   1      28.876  17.368   6.448  0.00  0.00     0.192 C 
ENDROOT
BRANCH   2   3
HETATM    3  C   UNK N   1      30.383  17.234   6.743  0.00  0.00     0.293 C 
HETATM    4  C   UNK N   1      31.110  16.202   5.876  0.00  0.00     0.051 C 
BRANCH   3   5
HETATM    5  N   UNK N   1      30.688  17.049   8.180  0.00  0.00     0.099 N 
BRANCH   5   6
HETATM    6  C   UNK N   1      32.063  16.563   8.330  0.00  0.00     0.269 C 
HETATM    7  C   UNK N   1      33.040  17.718   8.471  0.00  0.00     0.037 C 
ENDBRANCH   5   6
BRANCH   5   8
HETATM    8  C   UNK N   1      30.679  18.358   8.830  0.00  0.00     0.269 C 
HETATM    9  C   UNK N   1      29.572  18.417   9.864  0.00  0.00     0.037 C 
ENDBRANCH   5   8
ENDBRANCH   3   5
ENDBRANCH   2   3
BRANCH   2  10
HETATM   10  C   UNK N   1      28.187  18.609   5.963  0.00  0.00     0.012 A 
HETATM   11  C   UNK N   1      27.936  18.859   4.603  0.00  0.00     0.015 A 
HETATM   12  C   UNK N   1      27.328  20.049   4.191  0.00  0.00     0.001 A 
HETATM   13  C   UNK N   1      26.967  21.012   5.135  0.00  0.00     0.000 A 
HETATM   14  C   UNK N   1      27.204  20.779   6.491  0.00  0.00     0.001 A 
HETATM   15  C   UNK N   1      27.807  19.586   6.899  0.00  0.00     0.015 A 
ENDBRANCH   2  10
TORSDOF 5
ENDMDL
MODEL 9
REMARK VINA RESULT:      -4.9      2.153      3.659
REMARK  5 active torsions:
REMARK  status: ('A' for Active; 'I' for Inactive)
REMARK    1  A    between atoms: N_2  and  C_3 
REMARK    2  A    between atoms: N_2  and  C_4 
REMARK    3  A    between atoms: N_2  and  C_5 
REMARK    4  A    between atoms: C_3  and  C_6 
REMARK    5  A    between atoms: C_6  and  C_10 
ROOT
HETATM    1  O   UNK N   1      37.263  12.045  14.216  0.00  0.00    -0.290 OA
HETATM    2  C   UNK N   1      36.378  12.888  14.319  0.00  0.00     0.192 C 
ENDROOT
BRANCH   2   3
HETATM    3  C   UNK N   1      35.425  13.061  13.120  0.00  0.00     0.293 C 
HETATM    4  C   UNK N   1      34.871  11.749  12.556  0.00  0.00     0.051 C 
BRANCH   3   5
HETATM    5  N   UNK N   1      35.975  13.923  12.049  0.00  0.00     0.099 N 
BRANCH   5   6
HETATM    6  C   UNK N   1      36.435  13.087  10.935  0.00  0.00     0.269 C 
HETATM    7  C   UNK N   1      37.951  13.088  10.840  0.00  0.00     0.037 C 
ENDBRANCH   5   6
BRANCH   5   8
HETATM    8  C   UNK N   1      34.888  14.726  11.494  0.00  0.00     0.269 C 
HETATM    9  C   UNK N   1      35.373  16.135  11.215  0.00  0.00     0.037 C 
ENDBRANCH   5   8
ENDBRANCH   3   5
ENDBRANCH   2   3
BRANCH   2  10
HETATM   10  C   UNK N   1      36.371  13.719  15.568  0.00  0.00     0.012 A 
HETATM   11  C   UNK N   1      35.556  13.423  16.674  0.00  0.00     0.015 A 
HETATM   12  C   UNK N   1      35.550  14.249  17.803  0.00  0.00     0.001 A 
HETATM   13  C   UNK N   1      36.355  15.388  17.840  0.00  0.00     0.000 A 
HETATM   14  C   UNK N   1      37.175  15.694  16.752  0.00  0.00     0.001 A 
HETATM   15  C   UNK N   1      37.183  14.864  15.627  0.00  0.00     0.015 A 
ENDBRANCH   2  10
TORSDOF 5
ENDMDL
