MODEL 1
REMARK VINA RESULT:      -5.3      0.000      0.000
REMARK  19 active torsions:
REMARK  status: ('A' for Active; 'I' for Inactive)
REMARK    1  A    between atoms: O_1  and  C_12 
REMARK    2  A    between atoms: O_1  and  C_16 
REMARK    3  A    between atoms: O_2  and  C_13 
REMARK    4  A    between atoms: O_3  and  C_24 
REMARK    5  A    between atoms: O_4  and  C_27 
REMARK    6  A    between atoms: N_5  and  C_10 
REMARK    7  A    between atoms: N_5  and  C_11 
REMARK    8  A    between atoms: C_6  and  C_7 
REMARK    9  A    between atoms: C_6  and  C_8 
REMARK   10  A    between atoms: C_7  and  C_9 
REMARK   11  A    between atoms: C_8  and  C_10 
REMARK   12  A    between atoms: C_9  and  C_12 
REMARK   13  A    between atoms: C_11  and  C_13 
REMARK   14  A    between atoms: C_13  and  C_17 
REMARK   15  A    between atoms: C_14  and  C_15 
REMARK   16  A    between atoms: C_14  and  C_16 
REMARK   17  A    between atoms: C_15  and  C_18 
REMARK   18  A    between atoms: C_18  and  C_20 
REMARK   19  A    between atoms: C_22  and  C_27 
ROOT
HETATM    1  N   UNK N   1      31.097  18.461   9.073  0.00  0.00    -0.418 N 
HETATM    2  H   UNK N   1      31.668  19.291   8.915  0.00  0.00     0.153 HD
ENDROOT
BRANCH   1   3
HETATM    3  C   UNK N   1      31.579  17.102   8.792  0.00  0.00     0.113 C 
BRANCH   3   4
HETATM    4  C   UNK N   1      33.062  17.027   8.444  0.00  0.00     0.019 C 
BRANCH   4   5
HETATM    5  C   UNK N   1      33.408  17.952   7.299  0.00  0.00     0.002 C 
BRANCH   5   6
HETATM    6  C   UNK N   1      33.803  17.133   6.085  0.00  0.00     0.002 C 
BRANCH   6   7
HETATM    7  C   UNK N   1      32.583  16.823   5.241  0.00  0.00     0.026 C 
BRANCH   7   8
HETATM    8  C   UNK N   1      32.271  15.334   5.269  0.00  0.00     0.167 C 
BRANCH   8   9
HETATM    9  O   UNK N   1      30.889  15.121   5.292  0.00  0.00    -0.391 OA
BRANCH   9  10
HETATM   10  C   UNK N   1      30.683  14.050   4.425  0.00  0.00     0.167 C 
BRANCH  10  11
HETATM   11  C   UNK N   1      30.623  14.536   2.986  0.00  0.00     0.027 C 
BRANCH  11  12
HETATM   12  C   UNK N   1      29.359  15.352   2.748  0.00  0.00     0.007 C 
BRANCH  12  13
HETATM   13  C   UNK N   1      28.110  14.554   3.102  0.00  0.00     0.038 C 
BRANCH  13  14
HETATM   14  C   UNK N   1      27.100  15.411   3.796  0.00  0.00    -0.058 A 
HETATM   15  C   UNK N   1      26.370  16.373   3.085  0.00  0.00     0.007 A 
HETATM   16  C   UNK N   1      25.421  17.162   3.739  0.00  0.00     0.001 A 
HETATM   17  C   UNK N   1      25.193  16.988   5.106  0.00  0.00     0.000 A 
HETATM   18  C   UNK N   1      25.915  16.024   5.818  0.00  0.00     0.001 A 
HETATM   19  C   UNK N   1      26.867  15.236   5.163  0.00  0.00     0.007 A 
ENDBRANCH  13  14
ENDBRANCH  12  13
ENDBRANCH  11  12
ENDBRANCH  10  11
ENDBRANCH   9  10
ENDBRANCH   8   9
ENDBRANCH   7   8
ENDBRANCH   6   7
ENDBRANCH   5   6
ENDBRANCH   4   5
ENDBRANCH   3   4
ENDBRANCH   1   3
BRANCH   1  20
HETATM   20  C   UNK N   1      29.725  18.531   9.601  0.00  0.00     0.150 C 
BRANCH  20  21
HETATM   21  C   UNK N   1      28.655  17.824   8.759  0.00  0.00     0.168 C 
BRANCH  21  22
HETATM   22  O   UNK N   1      27.447  17.856   9.461  0.00  0.00    -0.389 OA
HETATM   23  H   UNK N   1      27.414  17.758  10.425  0.00  0.00     0.210 HD
ENDBRANCH  21  22
BRANCH  21  24
HETATM   24  C   UNK N   1      28.495  18.383   7.368  0.00  0.00    -0.027 A 
HETATM   25  C   UNK N   1      27.610  19.441   7.116  0.00  0.00     0.022 A 
HETATM   26  C   UNK N   1      27.425  19.919   5.813  0.00  0.00    -0.001 A 
HETATM   27  C   UNK N   1      28.126  19.328   4.750  0.00  0.00     0.074 A 
HETATM   28  C   UNK N   1      29.007  18.274   4.997  0.00  0.00     0.038 A 
HETATM   29  C   UNK N   1      29.187  17.804   6.297  0.00  0.00     0.012 A 
BRANCH  26  30
HETATM   30  C   UNK N   1      26.475  21.042   5.567  0.00  0.00     0.205 C 
BRANCH  30  31
HETATM   31  O   UNK N   1      25.525  20.664   4.618  0.00  0.00    -0.396 OA
HETATM   32  H   UNK N   1      24.697  20.974   4.220  0.00  0.00     0.209 HD
ENDBRANCH  30  31
ENDBRANCH  26  30
BRANCH  27  33
HETATM   33  O   UNK N   1      27.956  19.766   3.490  0.00  0.00    -0.360 OA
HETATM   34  H   UNK N   1      27.713  20.657   3.333  0.00  0.00     0.217 HD
ENDBRANCH  27  33
ENDBRANCH  21  24
ENDBRANCH  20  21
ENDBRANCH   1  20
TORSDOF 19
ENDMDL
MODEL 2
REMARK VINA RESULT:      -5.2     11.499     14.227
REMARK  19 active torsions:
REMARK  status: ('A' for Active; 'I' for Inactive)
REMARK    1  A    between atoms: O_1  and  C_12 
REMARK    2  A    between atoms: O_1  and  C_16 
REMARK    3  A    between atoms: O_2  and  C_13 
REMARK    4  A    between atoms: O_3  and  C_24 
REMARK    5  A    between atoms: O_4  and  C_27 
REMARK    6  A    between atoms: N_5  and  C_10 
REMARK    7  A    between atoms: N_5  and  C_11 
REMARK    8  A    between atoms: C_6  and  C_7 
REMARK    9  A    between atoms: C_6  and  C_8 
REMARK   10  A    between atoms: C_7  and  C_9 
REMARK   11  A    between atoms: C_8  and  C_10 
REMARK   12  A    between atoms: C_9  and  C_12 
REMARK   13  A    between atoms: C_11  and  C_13 
REMARK   14  A    between atoms: C_13  and  C_17 
REMARK   15  A    between atoms: C_14  and  C_15 
REMARK   16  A    between atoms: C_14  and  C_16 
REMARK   17  A    between atoms: C_15  and  C_18 
REMARK   18  A    between atoms: C_18  and  C_20 
REMARK   19  A    between atoms: C_22  and  C_27 
ROOT
HETATM    1  N   UNK N   1      28.777  26.523  -6.246  0.00  0.00    -0.418 N 
HETATM    2  H   UNK N   1      27.895  26.158  -5.889  0.00  0.00     0.153 HD
ENDROOT
BRANCH   1   3
HETATM    3  C   UNK N   1      28.874  27.798  -6.969  0.00  0.00     0.113 C 
BRANCH   3   4
HETATM    4  C   UNK N   1      27.766  28.791  -6.631  0.00  0.00     0.019 C 
BRANCH   4   5
HETATM    5  C   UNK N   1      26.681  28.145  -5.800  0.00  0.00     0.002 C 
BRANCH   5   6
HETATM    6  C   UNK N   1      26.540  28.886  -4.484  0.00  0.00     0.002 C 
BRANCH   6   7
HETATM    7  C   UNK N   1      26.515  27.906  -3.329  0.00  0.00     0.026 C 
BRANCH   7   8
HETATM    8  C   UNK N   1      26.149  26.510  -3.812  0.00  0.00     0.167 C 
BRANCH   8   9
HETATM    9  O   UNK N   1      27.204  25.620  -3.590  0.00  0.00    -0.391 OA
BRANCH   9  10
HETATM   10  C   UNK N   1      26.687  24.370  -3.922  0.00  0.00     0.167 C 
BRANCH  10  11
HETATM   11  C   UNK N   1      25.774  24.477  -5.132  0.00  0.00     0.027 C 
BRANCH  11  12
HETATM   12  C   UNK N   1      25.974  23.288  -6.062  0.00  0.00     0.007 C 
BRANCH  12  13
HETATM   13  C   UNK N   1      27.160  23.509  -6.994  0.00  0.00     0.038 C 
BRANCH  13  14
HETATM   14  C   UNK N   1      28.051  22.309  -7.028  0.00  0.00    -0.058 A 
HETATM   15  C   UNK N   1      29.125  22.190  -6.135  0.00  0.00     0.007 A 
HETATM   16  C   UNK N   1      29.947  21.061  -6.166  0.00  0.00     0.001 A 
HETATM   17  C   UNK N   1      29.694  20.041  -7.088  0.00  0.00     0.000 A 
HETATM   18  C   UNK N   1      28.619  20.153  -7.977  0.00  0.00     0.001 A 
HETATM   19  C   UNK N   1      27.798  21.285  -7.945  0.00  0.00     0.007 A 
ENDBRANCH  13  14
ENDBRANCH  12  13
ENDBRANCH  11  12
ENDBRANCH  10  11
ENDBRANCH   9  10
ENDBRANCH   8   9
ENDBRANCH   7   8
ENDBRANCH   6   7
ENDBRANCH   5   6
ENDBRANCH   4   5
ENDBRANCH   3   4
ENDBRANCH   1   3
BRANCH   1  20
HETATM   20  C   UNK N   1      30.055  25.812  -6.077  0.00  0.00     0.150 C 
BRANCH  20  21
HETATM   21  C   UNK N   1      30.699  25.929  -4.690  0.00  0.00     0.168 C 
BRANCH  21  22
HETATM   22  O   UNK N   1      29.817  26.609  -3.847  0.00  0.00    -0.389 OA
HETATM   23  H   UNK N   1      30.076  26.891  -2.956  0.00  0.00     0.210 HD
ENDBRANCH  21  22
BRANCH  21  24
HETATM   24  C   UNK N   1      31.120  24.609  -4.092  0.00  0.00    -0.027 A 
HETATM   25  C   UNK N   1      32.212  23.901  -4.614  0.00  0.00     0.022 A 
HETATM   26  C   UNK N   1      32.564  22.651  -4.090  0.00  0.00    -0.001 A 
HETATM   27  C   UNK N   1      31.811  22.100  -3.041  0.00  0.00     0.074 A 
HETATM   28  C   UNK N   1      30.723  22.801  -2.521  0.00  0.00     0.038 A 
HETATM   29  C   UNK N   1      30.379  24.046  -3.047  0.00  0.00     0.012 A 
BRANCH  26  30
HETATM   30  C   UNK N   1      33.727  21.912  -4.662  0.00  0.00     0.205 C 
BRANCH  30  31
HETATM   31  O   UNK N   1      33.299  20.705  -5.216  0.00  0.00    -0.396 OA
HETATM   32  H   UNK N   1      32.485  20.230  -5.442  0.00  0.00     0.209 HD
ENDBRANCH  30  31
ENDBRANCH  26  30
BRANCH  27  33
HETATM   33  O   UNK N   1      32.127  20.896  -2.531  0.00  0.00    -0.360 OA
HETATM   34  H   UNK N   1      31.457  20.255  -2.393  0.00  0.00     0.217 HD
ENDBRANCH  27  33
ENDBRANCH  21  24
ENDBRANCH  20  21
ENDBRANCH   1  20
TORSDOF 19
ENDMDL
MODEL 3
REMARK VINA RESULT:      -5.1     11.817     14.744
REMARK  19 active torsions:
REMARK  status: ('A' for Active; 'I' for Inactive)
REMARK    1  A    between atoms: O_1  and  C_12 
REMARK    2  A    between atoms: O_1  and  C_16 
REMARK    3  A    between atoms: O_2  and  C_13 
REMARK    4  A    between atoms: O_3  and  C_24 
REMARK    5  A    between atoms: O_4  and  C_27 
REMARK    6  A    between atoms: N_5  and  C_10 
REMARK    7  A    between atoms: N_5  and  C_11 
REMARK    8  A    between atoms: C_6  and  C_7 
REMARK    9  A    between atoms: C_6  and  C_8 
REMARK   10  A    between atoms: C_7  and  C_9 
REMARK   11  A    between atoms: C_8  and  C_10 
REMARK   12  A    between atoms: C_9  and  C_12 
REMARK   13  A    between atoms: C_11  and  C_13 
REMARK   14  A    between atoms: C_13  and  C_17 
REMARK   15  A    between atoms: C_14  and  C_15 
REMARK   16  A    between atoms: C_14  and  C_16 
REMARK   17  A    between atoms: C_15  and  C_18 
REMARK   18  A    between atoms: C_18  and  C_20 
REMARK   19  A    between atoms: C_22  and  C_27 
ROOT
HETATM    1  N   UNK N   1      29.971  22.806  -8.769  0.00  0.00    -0.418 N 
HETATM    2  H   UNK N   1      30.599  23.428  -9.277  0.00  0.00     0.153 HD
ENDROOT
BRANCH   1   3
HETATM    3  C   UNK N   1      28.561  23.135  -8.517  0.00  0.00     0.113 C 
BRANCH   3   4
HETATM    4  C   UNK N   1      28.335  24.552  -8.000  0.00  0.00     0.019 C 
BRANCH   4   5
HETATM    5  C   UNK N   1      29.326  24.909  -6.916  0.00  0.00     0.002 C 
BRANCH   5   6
HETATM    6  C   UNK N   1      29.764  26.351  -7.082  0.00  0.00     0.002 C 
BRANCH   6   7
HETATM    7  C   UNK N   1      28.871  27.269  -6.272  0.00  0.00     0.026 C 
BRANCH   7   8
HETATM    8  C   UNK N   1      28.058  28.176  -7.183  0.00  0.00     0.167 C 
BRANCH   8   9
HETATM    9  O   UNK N   1      27.578  29.283  -6.476  0.00  0.00    -0.391 OA
BRANCH   9  10
HETATM   10  C   UNK N   1      28.362  29.333  -5.325  0.00  0.00     0.167 C 
BRANCH  10  11
HETATM   11  C   UNK N   1      27.567  29.916  -4.168  0.00  0.00     0.027 C 
BRANCH  11  12
HETATM   12  C   UNK N   1      27.005  28.806  -3.290  0.00  0.00     0.007 C 
BRANCH  12  13
HETATM   13  C   UNK N   1      25.721  28.232  -3.877  0.00  0.00     0.038 C 
BRANCH  13  14
HETATM   14  C   UNK N   1      25.900  26.802  -4.274  0.00  0.00    -0.058 A 
HETATM   15  C   UNK N   1      26.627  25.920  -3.463  0.00  0.00     0.007 A 
HETATM   16  C   UNK N   1      26.781  24.583  -3.837  0.00  0.00     0.001 A 
HETATM   17  C   UNK N   1      26.203  24.120  -5.022  0.00  0.00     0.000 A 
HETATM   18  C   UNK N   1      25.471  24.996  -5.831  0.00  0.00     0.001 A 
HETATM   19  C   UNK N   1      25.320  26.335  -5.457  0.00  0.00     0.007 A 
ENDBRANCH  13  14
ENDBRANCH  12  13
ENDBRANCH  11  12
ENDBRANCH  10  11
ENDBRANCH   9  10
ENDBRANCH   8   9
ENDBRANCH   7   8
ENDBRANCH   6   7
ENDBRANCH   5   6
ENDBRANCH   4   5
ENDBRANCH   3   4
ENDBRANCH   1   3
BRANCH   1  20
HETATM   20  C   UNK N   1      30.407  21.509  -8.228  0.00  0.00     0.150 C 
BRANCH  20  21
HETATM   21  C   UNK N   1      29.598  20.983  -7.035  0.00  0.00     0.168 C 
BRANCH  21  22
HETATM   22  O   UNK N   1      29.214  19.668  -7.305  0.00  0.00    -0.389 OA
HETATM   23  H   UNK N   1      28.784  19.422  -8.139  0.00  0.00     0.210 HD
ENDBRANCH  21  22
BRANCH  21  24
HETATM   24  C   UNK N   1      30.315  21.084  -5.712  0.00  0.00    -0.027 A 
HETATM   25  C   UNK N   1      30.065  22.153  -4.839  0.00  0.00     0.022 A 
HETATM   26  C   UNK N   1      30.773  22.270  -3.637  0.00  0.00    -0.001 A 
HETATM   27  C   UNK N   1      31.747  21.313  -3.308  0.00  0.00     0.074 A 
HETATM   28  C   UNK N   1      31.999  20.249  -4.174  0.00  0.00     0.038 A 
HETATM   29  C   UNK N   1      31.289  20.139  -5.370  0.00  0.00     0.012 A 
BRANCH  26  30
HETATM   30  C   UNK N   1      30.495  23.417  -2.725  0.00  0.00     0.205 C 
BRANCH  30  31
HETATM   31  O   UNK N   1      30.283  22.953  -1.426  0.00  0.00    -0.396 OA
HETATM   32  H   UNK N   1      29.846  22.231  -0.949  0.00  0.00     0.209 HD
ENDBRANCH  30  31
ENDBRANCH  26  30
BRANCH  27  33
HETATM   33  O   UNK N   1      32.445  21.413  -2.163  0.00  0.00    -0.360 OA
HETATM   34  H   UNK N   1      33.130  20.801  -1.977  0.00  0.00     0.217 HD
ENDBRANCH  27  33
ENDBRANCH  21  24
ENDBRANCH  20  21
ENDBRANCH   1  20
TORSDOF 19
ENDMDL
MODEL 4
REMARK VINA RESULT:      -5.0     11.953     14.609
REMARK  19 active torsions:
REMARK  status: ('A' for Active; 'I' for Inactive)
REMARK    1  A    between atoms: O_1  and  C_12 
REMARK    2  A    between atoms: O_1  and  C_16 
REMARK    3  A    between atoms: O_2  and  C_13 
REMARK    4  A    between atoms: O_3  and  C_24 
REMARK    5  A    between atoms: O_4  and  C_27 
REMARK    6  A    between atoms: N_5  and  C_10 
REMARK    7  A    between atoms: N_5  and  C_11 
REMARK    8  A    between atoms: C_6  and  C_7 
REMARK    9  A    between atoms: C_6  and  C_8 
REMARK   10  A    between atoms: C_7  and  C_9 
REMARK   11  A    between atoms: C_8  and  C_10 
REMARK   12  A    between atoms: C_9  and  C_12 
REMARK   13  A    between atoms: C_11  and  C_13 
REMARK   14  A    between atoms: C_13  and  C_17 
REMARK   15  A    between atoms: C_14  and  C_15 
REMARK   16  A    between atoms: C_14  and  C_16 
REMARK   17  A    between atoms: C_15  and  C_18 
REMARK   18  A    between atoms: C_18  and  C_20 
REMARK   19  A    between atoms: C_22  and  C_27 
ROOT
HETATM    1  N   UNK N   1      31.454  20.154  -6.774  0.00  0.00    -0.418 N 
HETATM    2  H   UNK N   1      32.001  19.508  -7.342  0.00  0.00     0.153 HD
ENDROOT
BRANCH   1   3
HETATM    3  C   UNK N   1      31.526  20.176  -5.307  0.00  0.00     0.113 C 
BRANCH   3   4
HETATM    4  C   UNK N   1      30.592  21.189  -4.653  0.00  0.00     0.019 C 
BRANCH   4   5
HETATM    5  C   UNK N   1      30.886  21.341  -3.178  0.00  0.00     0.002 C 
BRANCH   5   6
HETATM    6  C   UNK N   1      30.730  22.795  -2.776  0.00  0.00     0.002 C 
BRANCH   6   7
HETATM    7  C   UNK N   1      29.359  23.028  -2.173  0.00  0.00     0.026 C 
BRANCH   7   8
HETATM    8  C   UNK N   1      28.409  23.620  -3.204  0.00  0.00     0.167 C 
BRANCH   8   9
HETATM    9  O   UNK N   1      27.164  23.890  -2.628  0.00  0.00    -0.391 OA
BRANCH   9  10
HETATM   10  C   UNK N   1      26.703  25.020  -3.300  0.00  0.00     0.167 C 
BRANCH  10  11
HETATM   11  C   UNK N   1      26.666  24.768  -4.799  0.00  0.00     0.027 C 
BRANCH  11  12
HETATM   12  C   UNK N   1      25.376  25.309  -5.402  0.00  0.00     0.007 C 
BRANCH  12  13
HETATM   13  C   UNK N   1      25.662  26.358  -6.470  0.00  0.00     0.038 C 
BRANCH  13  14
HETATM   14  C   UNK N   1      26.228  27.602  -5.866  0.00  0.00    -0.058 A 
HETATM   15  C   UNK N   1      25.680  28.144  -4.695  0.00  0.00     0.007 A 
HETATM   16  C   UNK N   1      26.222  29.302  -4.133  0.00  0.00     0.001 A 
HETATM   17  C   UNK N   1      27.321  29.920  -4.735  0.00  0.00     0.000 A 
HETATM   18  C   UNK N   1      27.876  29.379  -5.900  0.00  0.00     0.001 A 
HETATM   19  C   UNK N   1      27.330  28.221  -6.464  0.00  0.00     0.007 A 
ENDBRANCH  13  14
ENDBRANCH  12  13
ENDBRANCH  11  12
ENDBRANCH  10  11
ENDBRANCH   9  10
ENDBRANCH   8   9
ENDBRANCH   7   8
ENDBRANCH   6   7
ENDBRANCH   5   6
ENDBRANCH   4   5
ENDBRANCH   3   4
ENDBRANCH   1   3
BRANCH   1  20
HETATM   20  C   UNK N   1      30.529  21.137  -7.360  0.00  0.00     0.150 C 
BRANCH  20  21
HETATM   21  C   UNK N   1      29.356  20.550  -8.155  0.00  0.00     0.168 C 
BRANCH  21  22
HETATM   22  O   UNK N   1      29.008  19.321  -7.591  0.00  0.00    -0.389 OA
HETATM   23  H   UNK N   1      28.085  19.027  -7.534  0.00  0.00     0.210 HD
ENDBRANCH  21  22
BRANCH  21  24
HETATM   24  C   UNK N   1      28.161  21.465  -8.256  0.00  0.00    -0.027 A 
HETATM   25  C   UNK N   1      26.939  21.118  -7.660  0.00  0.00     0.022 A 
HETATM   26  C   UNK N   1      25.819  21.946  -7.804  0.00  0.00    -0.001 A 
HETATM   27  C   UNK N   1      25.917  23.125  -8.559  0.00  0.00     0.074 A 
HETATM   28  C   UNK N   1      27.130  23.472  -9.154  0.00  0.00     0.038 A 
HETATM   29  C   UNK N   1      28.243  22.644  -9.006  0.00  0.00     0.012 A 
BRANCH  26  30
HETATM   30  C   UNK N   1      24.528  21.557  -7.166  0.00  0.00     0.205 C 
BRANCH  30  31
HETATM   31  O   UNK N   1      23.464  21.869  -8.012  0.00  0.00    -0.396 OA
HETATM   32  H   UNK N   1      23.273  22.033  -8.949  0.00  0.00     0.209 HD
ENDBRANCH  30  31
ENDBRANCH  26  30
BRANCH  27  33
HETATM   33  O   UNK N   1      24.850  23.928  -8.717  0.00  0.00    -0.360 OA
HETATM   34  H   UNK N   1      24.577  24.180  -9.577  0.00  0.00     0.217 HD
ENDBRANCH  27  33
ENDBRANCH  21  24
ENDBRANCH  20  21
ENDBRANCH   1  20
TORSDOF 19
ENDMDL
MODEL 5
REMARK VINA RESULT:      -5.0     11.447     14.149
REMARK  19 active torsions:
REMARK  status: ('A' for Active; 'I' for Inactive)
REMARK    1  A    between atoms: O_1  and  C_12 
REMARK    2  A    between atoms: O_1  and  C_16 
REMARK    3  A    between atoms: O_2  and  C_13 
REMARK    4  A    between atoms: O_3  and  C_24 
REMARK    5  A    between atoms: O_4  and  C_27 
REMARK    6  A    between atoms: N_5  and  C_10 
REMARK    7  A    between atoms: N_5  and  C_11 
REMARK    8  A    between atoms: C_6  and  C_7 
REMARK    9  A    between atoms: C_6  and  C_8 
REMARK   10  A    between atoms: C_7  and  C_9 
REMARK   11  A    between atoms: C_8  and  C_10 
REMARK   12  A    between atoms: C_9  and  C_12 
REMARK   13  A    between atoms: C_11  and  C_13 
REMARK   14  A    between atoms: C_13  and  C_17 
REMARK   15  A    between atoms: C_14  and  C_15 
REMARK   16  A    between atoms: C_14  and  C_16 
REMARK   17  A    between atoms: C_15  and  C_18 
REMARK   18  A    between atoms: C_18  and  C_20 
REMARK   19  A    between atoms: C_22  and  C_27 
ROOT
HETATM    1  N   UNK N   1      29.266  27.175  -5.815  0.00  0.00    -0.418 N 
HETATM    2  H   UNK N   1      28.842  26.345  -6.228  0.00  0.00     0.153 HD
ENDROOT
BRANCH   1   3
HETATM    3  C   UNK N   1      28.877  28.539  -6.200  0.00  0.00     0.113 C 
BRANCH   3   4
HETATM    4  C   UNK N   1      27.412  28.868  -5.930  0.00  0.00     0.019 C 
BRANCH   4   5
HETATM    5  C   UNK N   1      27.270  29.870  -4.808  0.00  0.00     0.002 C 
BRANCH   5   6
HETATM    6  C   UNK N   1      26.270  29.354  -3.790  0.00  0.00     0.002 C 
BRANCH   6   7
HETATM    7  C   UNK N   1      25.780  27.976  -4.186  0.00  0.00     0.026 C 
BRANCH   7   8
HETATM    8  C   UNK N   1      26.304  26.919  -3.226  0.00  0.00     0.167 C 
BRANCH   8   9
HETATM    9  O   UNK N   1      27.018  25.935  -3.917  0.00  0.00    -0.391 OA
BRANCH   9  10
HETATM   10  C   UNK N   1      26.185  25.570  -4.972  0.00  0.00     0.167 C 
BRANCH  10  11
HETATM   11  C   UNK N   1      26.236  24.067  -5.193  0.00  0.00     0.027 C 
BRANCH  11  12
HETATM   12  C   UNK N   1      27.612  23.645  -5.690  0.00  0.00     0.007 C 
BRANCH  12  13
HETATM   13  C   UNK N   1      27.521  22.939  -7.038  0.00  0.00     0.038 C 
BRANCH  13  14
HETATM   14  C   UNK N   1      28.446  21.766  -7.098  0.00  0.00    -0.058 A 
HETATM   15  C   UNK N   1      29.544  21.676  -6.231  0.00  0.00     0.007 A 
HETATM   16  C   UNK N   1      30.397  20.572  -6.287  0.00  0.00     0.001 A 
HETATM   17  C   UNK N   1      30.152  19.548  -7.207  0.00  0.00     0.000 A 
HETATM   18  C   UNK N   1      29.054  19.631  -8.069  0.00  0.00     0.001 A 
HETATM   19  C   UNK N   1      28.201  20.739  -8.013  0.00  0.00     0.007 A 
ENDBRANCH  13  14
ENDBRANCH  12  13
ENDBRANCH  11  12
ENDBRANCH  10  11
ENDBRANCH   9  10
ENDBRANCH   8   9
ENDBRANCH   7   8
ENDBRANCH   6   7
ENDBRANCH   5   6
ENDBRANCH   4   5
ENDBRANCH   3   4
ENDBRANCH   1   3
BRANCH   1  20
HETATM   20  C   UNK N   1      30.316  27.101  -4.787  0.00  0.00     0.150 C 
BRANCH  20  21
HETATM   21  C   UNK N   1      31.520  26.215  -5.132  0.00  0.00     0.168 C 
BRANCH  21  22
HETATM   22  O   UNK N   1      32.689  26.911  -4.814  0.00  0.00    -0.389 OA
HETATM   23  H   UNK N   1      32.759  27.452  -4.012  0.00  0.00     0.210 HD
ENDBRANCH  21  22
BRANCH  21  24
HETATM   24  C   UNK N   1      31.495  24.858  -4.474  0.00  0.00    -0.027 A 
HETATM   25  C   UNK N   1      30.497  24.528  -3.545  0.00  0.00     0.022 A 
HETATM   26  C   UNK N   1      30.512  23.287  -2.898  0.00  0.00    -0.001 A 
HETATM   27  C   UNK N   1      31.538  22.369  -3.175  0.00  0.00     0.074 A 
HETATM   28  C   UNK N   1      32.532  22.695  -4.098  0.00  0.00     0.038 A 
HETATM   29  C   UNK N   1      32.511  23.933  -4.740  0.00  0.00     0.012 A 
BRANCH  26  30
HETATM   30  C   UNK N   1      29.444  22.958  -1.910  0.00  0.00     0.205 C 
BRANCH  30  31
HETATM   31  O   UNK N   1      28.220  23.469  -2.343  0.00  0.00    -0.396 OA
HETATM   32  H   UNK N   1      27.516  23.289  -2.985  0.00  0.00     0.209 HD
ENDBRANCH  30  31
ENDBRANCH  26  30
BRANCH  27  33
HETATM   33  O   UNK N   1      31.575  21.176  -2.557  0.00  0.00    -0.360 OA
HETATM   34  H   UNK N   1      32.194  21.023  -1.870  0.00  0.00     0.217 HD
ENDBRANCH  27  33
ENDBRANCH  21  24
ENDBRANCH  20  21
ENDBRANCH   1  20
TORSDOF 19
ENDMDL
MODEL 6
REMARK VINA RESULT:      -4.9     11.864     14.109
REMARK  19 active torsions:
REMARK  status: ('A' for Active; 'I' for Inactive)
REMARK    1  A    between atoms: O_1  and  C_12 
REMARK    2  A    between atoms: O_1  and  C_16 
REMARK    3  A    between atoms: O_2  and  C_13 
REMARK    4  A    between atoms: O_3  and  C_24 
REMARK    5  A    between atoms: O_4  and  C_27 
REMARK    6  A    between atoms: N_5  and  C_10 
REMARK    7  A    between atoms: N_5  and  C_11 
REMARK    8  A    between atoms: C_6  and  C_7 
REMARK    9  A    between atoms: C_6  and  C_8 
REMARK   10  A    between atoms: C_7  and  C_9 
REMARK   11  A    between atoms: C_8  and  C_10 
REMARK   12  A    between atoms: C_9  and  C_12 
REMARK   13  A    between atoms: C_11  and  C_13 
REMARK   14  A    between atoms: C_13  and  C_17 
REMARK   15  A    between atoms: C_14  and  C_15 
REMARK   16  A    between atoms: C_14  and  C_16 
REMARK   17  A    between atoms: C_15  and  C_18 
REMARK   18  A    between atoms: C_18  and  C_20 
REMARK   19  A    between atoms: C_22  and  C_27 
ROOT
HETATM    1  N   UNK N   1      28.047  24.172  -8.842  0.00  0.00    -0.418 N 
HETATM    2  H   UNK N   1      28.147  25.181  -8.949  0.00  0.00     0.153 HD
ENDROOT
BRANCH   1   3
HETATM    3  C   UNK N   1      29.174  23.296  -8.495  0.00  0.00     0.113 C 
BRANCH   3   4
HETATM    4  C   UNK N   1      29.560  23.333  -7.020  0.00  0.00     0.019 C 
BRANCH   4   5
HETATM    5  C   UNK N   1      29.336  21.993  -6.356  0.00  0.00     0.002 C 
BRANCH   5   6
HETATM    6  C   UNK N   1      28.911  20.975  -7.398  0.00  0.00     0.002 C 
BRANCH   6   7
HETATM    7  C   UNK N   1      29.783  19.739  -7.309  0.00  0.00     0.026 C 
BRANCH   7   8
HETATM    8  C   UNK N   1      30.985  19.988  -6.410  0.00  0.00     0.167 C 
BRANCH   8   9
HETATM    9  O   UNK N   1      32.176  19.786  -7.113  0.00  0.00    -0.391 OA
BRANCH   9  10
HETATM   10  C   UNK N   1      33.170  20.288  -6.275  0.00  0.00     0.167 C 
BRANCH  10  11
HETATM   11  C   UNK N   1      33.332  21.785  -6.481  0.00  0.00     0.027 C 
BRANCH  11  12
HETATM   12  C   UNK N   1      33.837  22.450  -5.206  0.00  0.00     0.007 C 
BRANCH  12  13
HETATM   13  C   UNK N   1      33.189  23.814  -5.001  0.00  0.00     0.038 C 
BRANCH  13  14
HETATM   14  C   UNK N   1      31.930  23.700  -4.203  0.00  0.00    -0.058 A 
HETATM   15  C   UNK N   1      30.999  24.748  -4.181  0.00  0.00     0.007 A 
HETATM   16  C   UNK N   1      29.821  24.629  -3.441  0.00  0.00     0.001 A 
HETATM   17  C   UNK N   1      29.565  23.457  -2.723  0.00  0.00     0.000 A 
HETATM   18  C   UNK N   1      30.488  22.406  -2.748  0.00  0.00     0.001 A 
HETATM   19  C   UNK N   1      31.669  22.528  -3.488  0.00  0.00     0.007 A 
ENDBRANCH  13  14
ENDBRANCH  12  13
ENDBRANCH  11  12
ENDBRANCH  10  11
ENDBRANCH   9  10
ENDBRANCH   8   9
ENDBRANCH   7   8
ENDBRANCH   6   7
ENDBRANCH   5   6
ENDBRANCH   4   5
ENDBRANCH   3   4
ENDBRANCH   1   3
BRANCH   1  20
HETATM   20  C   UNK N   1      26.762  23.479  -9.023  0.00  0.00     0.150 C 
BRANCH  20  21
HETATM   21  C   UNK N   1      25.540  24.178  -8.414  0.00  0.00     0.168 C 
BRANCH  21  22
HETATM   22  O   UNK N   1      24.437  23.329  -8.534  0.00  0.00    -0.389 OA
HETATM   23  H   UNK N   1      24.103  22.817  -7.781  0.00  0.00     0.210 HD
ENDBRANCH  21  22
BRANCH  21  24
HETATM   24  C   UNK N   1      25.734  24.627  -6.987  0.00  0.00    -0.027 A 
HETATM   25  C   UNK N   1      25.728  25.989  -6.655  0.00  0.00     0.022 A 
HETATM   26  C   UNK N   1      25.963  26.401  -5.338  0.00  0.00    -0.001 A 
HETATM   27  C   UNK N   1      26.215  25.442  -4.344  0.00  0.00     0.074 A 
HETATM   28  C   UNK N   1      26.223  24.086  -4.671  0.00  0.00     0.038 A 
HETATM   29  C   UNK N   1      25.987  23.682  -5.985  0.00  0.00     0.012 A 
BRANCH  26  30
HETATM   30  C   UNK N   1      25.956  27.855  -5.007  0.00  0.00     0.205 C 
BRANCH  30  31
HETATM   31  O   UNK N   1      25.070  28.102  -3.958  0.00  0.00    -0.396 OA
HETATM   32  H   UNK N   1      24.156  28.384  -3.798  0.00  0.00     0.209 HD
ENDBRANCH  30  31
ENDBRANCH  26  30
BRANCH  27  33
HETATM   33  O   UNK N   1      26.453  25.817  -3.075  0.00  0.00    -0.360 OA
HETATM   34  H   UNK N   1      27.332  25.845  -2.752  0.00  0.00     0.217 HD
ENDBRANCH  27  33
ENDBRANCH  21  24
ENDBRANCH  20  21
ENDBRANCH   1  20
TORSDOF 19
ENDMDL
MODEL 7
REMARK VINA RESULT:      -4.9      5.340      9.300
REMARK  19 active torsions:
REMARK  status: ('A' for Active; 'I' for Inactive)
REMARK    1  A    between atoms: O_1  and  C_12 
REMARK    2  A    between atoms: O_1  and  C_16 
REMARK    3  A    between atoms: O_2  and  C_13 
REMARK    4  A    between atoms: O_3  and  C_24 
REMARK    5  A    between atoms: O_4  and  C_27 
REMARK    6  A    between atoms: N_5  and  C_10 
REMARK    7  A    between atoms: N_5  and  C_11 
REMARK    8  A    between atoms: C_6  and  C_7 
REMARK    9  A    between atoms: C_6  and  C_8 
REMARK   10  A    between atoms: C_7  and  C_9 
REMARK   11  A    between atoms: C_8  and  C_10 
REMARK   12  A    between atoms: C_9  and  C_12 
REMARK   13  A    between atoms: C_11  and  C_13 
REMARK   14  A    between atoms: C_13  and  C_17 
REMARK   15  A    between atoms: C_14  and  C_15 
REMARK   16  A    between atoms: C_14  and  C_16 
REMARK   17  A    between atoms: C_15  and  C_18 
REMARK   18  A    between atoms: C_18  and  C_20 
REMARK   19  A    between atoms: C_22  and  C_27 
ROOT
HETATM    1  N   UNK N   1      33.567  14.336   3.586  0.00  0.00    -0.418 N 
HETATM    2  H   UNK N   1      34.549  14.483   3.354  0.00  0.00     0.153 HD
ENDROOT
BRANCH   1   3
HETATM    3  C   UNK N   1      33.101  13.182   4.368  0.00  0.00     0.113 C 
BRANCH   3   4
HETATM    4  C   UNK N   1      32.576  13.541   5.754  0.00  0.00     0.019 C 
BRANCH   4   5
HETATM    5  C   UNK N   1      33.518  13.071   6.839  0.00  0.00     0.002 C 
BRANCH   5   6
HETATM    6  C   UNK N   1      34.685  14.033   6.952  0.00  0.00     0.002 C 
BRANCH   6   7
HETATM    7  C   UNK N   1      34.964  14.351   8.408  0.00  0.00     0.026 C 
BRANCH   7   8
HETATM    8  C   UNK N   1      33.677  14.348   9.219  0.00  0.00     0.167 C 
BRANCH   8   9
HETATM    9  O   UNK N   1      33.938  14.647  10.559  0.00  0.00    -0.391 OA
BRANCH   9  10
HETATM   10  C   UNK N   1      35.157  15.321  10.539  0.00  0.00     0.167 C 
BRANCH  10  11
HETATM   11  C   UNK N   1      35.886  15.139  11.861  0.00  0.00     0.027 C 
BRANCH  11  12
HETATM   12  C   UNK N   1      35.256  14.012  12.669  0.00  0.00     0.007 C 
BRANCH  12  13
HETATM   13  C   UNK N   1      36.103  13.665  13.887  0.00  0.00     0.038 C 
BRANCH  13  14
HETATM   14  C   UNK N   1      35.515  12.520  14.646  0.00  0.00    -0.058 A 
HETATM   15  C   UNK N   1      34.493  11.740  14.087  0.00  0.00     0.007 A 
HETATM   16  C   UNK N   1      33.955  10.666  14.799  0.00  0.00     0.001 A 
HETATM   17  C   UNK N   1      34.442  10.361  16.073  0.00  0.00     0.000 A 
HETATM   18  C   UNK N   1      35.467  11.132  16.632  0.00  0.00     0.001 A 
HETATM   19  C   UNK N   1      36.003  12.209  15.919  0.00  0.00     0.007 A 
ENDBRANCH  13  14
ENDBRANCH  12  13
ENDBRANCH  11  12
ENDBRANCH  10  11
ENDBRANCH   9  10
ENDBRANCH   8   9
ENDBRANCH   7   8
ENDBRANCH   6   7
ENDBRANCH   5   6
ENDBRANCH   4   5
ENDBRANCH   3   4
ENDBRANCH   1   3
BRANCH   1  20
HETATM   20  C   UNK N   1      32.505  15.261   3.162  0.00  0.00     0.150 C 
BRANCH  20  21
HETATM   21  C   UNK N   1      32.731  16.736   3.516  0.00  0.00     0.168 C 
BRANCH  21  22
HETATM   22  O   UNK N   1      31.892  17.518   2.719  0.00  0.00    -0.389 OA
HETATM   23  H   UNK N   1      30.938  17.578   2.886  0.00  0.00     0.210 HD
ENDBRANCH  21  22
BRANCH  21  24
HETATM   24  C   UNK N   1      32.550  17.055   4.979  0.00  0.00    -0.027 A 
HETATM   25  C   UNK N   1      33.651  17.375   5.786  0.00  0.00     0.022 A 
HETATM   26  C   UNK N   1      33.483  17.616   7.156  0.00  0.00    -0.001 A 
HETATM   27  C   UNK N   1      32.203  17.526   7.725  0.00  0.00     0.074 A 
HETATM   28  C   UNK N   1      31.106  17.205   6.925  0.00  0.00     0.038 A 
HETATM   29  C   UNK N   1      31.280  16.968   5.562  0.00  0.00     0.012 A 
BRANCH  26  30
HETATM   30  C   UNK N   1      34.668  17.952   7.997  0.00  0.00     0.205 C 
BRANCH  30  31
HETATM   31  O   UNK N   1      34.628  19.298   8.360  0.00  0.00    -0.396 OA
HETATM   32  H   UNK N   1      34.896  19.889   9.081  0.00  0.00     0.209 HD
ENDBRANCH  30  31
ENDBRANCH  26  30
BRANCH  27  33
HETATM   33  O   UNK N   1      32.022  17.743   9.040  0.00  0.00    -0.360 OA
HETATM   34  H   UNK N   1      31.377  18.359   9.328  0.00  0.00     0.217 HD
ENDBRANCH  27  33
ENDBRANCH  21  24
ENDBRANCH  20  21
ENDBRANCH   1  20
TORSDOF 19
ENDMDL
MODEL 8
REMARK VINA RESULT:      -4.9     12.393     15.066
REMARK  19 active torsions:
REMARK  status: ('A' for Active; 'I' for Inactive)
REMARK    1  A    between atoms: O_1  and  C_12 
REMARK    2  A    between atoms: O_1  and  C_16 
REMARK    3  A    between atoms: O_2  and  C_13 
REMARK    4  A    between atoms: O_3  and  C_24 
REMARK    5  A    between atoms: O_4  and  C_27 
REMARK    6  A    between atoms: N_5  and  C_10 
REMARK    7  A    between atoms: N_5  and  C_11 
REMARK    8  A    between atoms: C_6  and  C_7 
REMARK    9  A    between atoms: C_6  and  C_8 
REMARK   10  A    between atoms: C_7  and  C_9 
REMARK   11  A    between atoms: C_8  and  C_10 
REMARK   12  A    between atoms: C_9  and  C_12 
REMARK   13  A    between atoms: C_11  and  C_13 
REMARK   14  A    between atoms: C_13  and  C_17 
REMARK   15  A    between atoms: C_14  and  C_15 
REMARK   16  A    between atoms: C_14  and  C_16 
REMARK   17  A    between atoms: C_15  and  C_18 
REMARK   18  A    between atoms: C_18  and  C_20 
REMARK   19  A    between atoms: C_22  and  C_27 
ROOT
HETATM    1  N   UNK N   1      28.380  25.417  -8.369  0.00  0.00    -0.418 N 
HETATM    2  H   UNK N   1      29.293  25.334  -7.921  0.00  0.00     0.153 HD
ENDROOT
BRANCH   1   3
HETATM    3  C   UNK N   1      28.004  26.573  -9.194  0.00  0.00     0.113 C 
BRANCH   3   4
HETATM    4  C   UNK N   1      28.550  27.904  -8.686  0.00  0.00     0.019 C 
BRANCH   4   5
HETATM    5  C   UNK N   1      28.640  27.924  -7.178  0.00  0.00     0.002 C 
BRANCH   5   6
HETATM    6  C   UNK N   1      28.077  29.231  -6.652  0.00  0.00     0.002 C 
BRANCH   6   7
HETATM    7  C   UNK N   1      28.289  29.330  -5.155  0.00  0.00     0.026 C 
BRANCH   7   8
HETATM    8  C   UNK N   1      29.222  28.230  -4.667  0.00  0.00     0.167 C 
BRANCH   8   9
HETATM    9  O   UNK N   1      30.407  28.776  -4.165  0.00  0.00    -0.391 OA
BRANCH   9  10
HETATM   10  C   UNK N   1      31.276  27.693  -4.055  0.00  0.00     0.167 C 
BRANCH  10  11
HETATM   11  C   UNK N   1      30.553  26.490  -3.471  0.00  0.00     0.027 C 
BRANCH  11  12
HETATM   12  C   UNK N   1      31.173  25.195  -3.978  0.00  0.00     0.007 C 
BRANCH  12  13
HETATM   13  C   UNK N   1      30.546  23.980  -3.304  0.00  0.00     0.038 C 
BRANCH  13  14
HETATM   14  C   UNK N   1      30.353  22.862  -4.277  0.00  0.00    -0.058 A 
HETATM   15  C   UNK N   1      29.419  22.970  -5.317  0.00  0.00     0.007 A 
HETATM   16  C   UNK N   1      29.252  21.924  -6.227  0.00  0.00     0.001 A 
HETATM   17  C   UNK N   1      30.025  20.766  -6.106  0.00  0.00     0.000 A 
HETATM   18  C   UNK N   1      30.963  20.656  -5.074  0.00  0.00     0.001 A 
HETATM   19  C   UNK N   1      31.127  21.704  -4.161  0.00  0.00     0.007 A 
ENDBRANCH  13  14
ENDBRANCH  12  13
ENDBRANCH  11  12
ENDBRANCH  10  11
ENDBRANCH   9  10
ENDBRANCH   8   9
ENDBRANCH   7   8
ENDBRANCH   6   7
ENDBRANCH   5   6
ENDBRANCH   4   5
ENDBRANCH   3   4
ENDBRANCH   1   3
BRANCH   1  20
HETATM   20  C   UNK N   1      27.337  24.388  -8.238  0.00  0.00     0.150 C 
BRANCH  20  21
HETATM   21  C   UNK N   1      25.939  24.904  -7.873  0.00  0.00     0.168 C 
BRANCH  21  22
HETATM   22  O   UNK N   1      25.052  23.825  -7.880  0.00  0.00    -0.389 OA
HETATM   23  H   UNK N   1      24.578  23.558  -8.683  0.00  0.00     0.210 HD
ENDBRANCH  21  22
BRANCH  21  24
HETATM   24  C   UNK N   1      25.881  25.653  -6.565  0.00  0.00    -0.027 A 
HETATM   25  C   UNK N   1      26.485  25.132  -5.412  0.00  0.00     0.022 A 
HETATM   26  C   UNK N   1      26.380  25.806  -4.188  0.00  0.00    -0.001 A 
HETATM   27  C   UNK N   1      25.657  27.007  -4.116  0.00  0.00     0.074 A 
HETATM   28  C   UNK N   1      25.054  27.527  -5.261  0.00  0.00     0.038 A 
HETATM   29  C   UNK N   1      25.163  26.851  -6.476  0.00  0.00     0.012 A 
BRANCH  26  30
HETATM   30  C   UNK N   1      27.027  25.232  -2.973  0.00  0.00     0.205 C 
BRANCH  30  31
HETATM   31  O   UNK N   1      26.693  23.883  -2.847  0.00  0.00    -0.396 OA
HETATM   32  H   UNK N   1      25.955  23.274  -3.006  0.00  0.00     0.209 HD
ENDBRANCH  30  31
ENDBRANCH  26  30
BRANCH  27  33
HETATM   33  O   UNK N   1      25.536  27.663  -2.949  0.00  0.00    -0.360 OA
HETATM   34  H   UNK N   1      24.741  27.601  -2.456  0.00  0.00     0.217 HD
ENDBRANCH  27  33
ENDBRANCH  21  24
ENDBRANCH  20  21
ENDBRANCH   1  20
TORSDOF 19
ENDMDL
MODEL 9
REMARK VINA RESULT:      -4.8     11.447     13.673
REMARK  19 active torsions:
REMARK  status: ('A' for Active; 'I' for Inactive)
REMARK    1  A    between atoms: O_1  and  C_12 
REMARK    2  A    between atoms: O_1  and  C_16 
REMARK    3  A    between atoms: O_2  and  C_13 
REMARK    4  A    between atoms: O_3  and  C_24 
REMARK    5  A    between atoms: O_4  and  C_27 
REMARK    6  A    between atoms: N_5  and  C_10 
REMARK    7  A    between atoms: N_5  and  C_11 
REMARK    8  A    between atoms: C_6  and  C_7 
REMARK    9  A    between atoms: C_6  and  C_8 
REMARK   10  A    between atoms: C_7  and  C_9 
REMARK   11  A    between atoms: C_8  and  C_10 
REMARK   12  A    between atoms: C_9  and  C_12 
REMARK   13  A    between atoms: C_11  and  C_13 
REMARK   14  A    between atoms: C_13  and  C_17 
REMARK   15  A    between atoms: C_14  and  C_15 
REMARK   16  A    between atoms: C_14  and  C_16 
REMARK   17  A    between atoms: C_15  and  C_18 
REMARK   18  A    between atoms: C_18  and  C_20 
REMARK   19  A    between atoms: C_22  and  C_27 
ROOT
HETATM    1  N   UNK N   1      28.676  29.728  -4.292  0.00  0.00    -0.418 N 
HETATM    2  H   UNK N   1      29.003  30.693  -4.314  0.00  0.00     0.153 HD
ENDROOT
BRANCH   1   3
HETATM    3  C   UNK N   1      28.837  28.811  -5.429  0.00  0.00     0.113 C 
BRANCH   3   4
HETATM    4  C   UNK N   1      30.185  28.099  -5.469  0.00  0.00     0.019 C 
BRANCH   4   5
HETATM    5  C   UNK N   1      30.997  28.385  -4.226  0.00  0.00     0.002 C 
BRANCH   5   6
HETATM    6  C   UNK N   1      31.421  27.077  -3.584  0.00  0.00     0.002 C 
BRANCH   6   7
HETATM    7  C   UNK N   1      30.301  26.059  -3.676  0.00  0.00     0.026 C 
BRANCH   7   8
HETATM    8  C   UNK N   1      30.860  24.659  -3.884  0.00  0.00     0.167 C 
BRANCH   8   9
HETATM    9  O   UNK N   1      29.964  23.697  -3.408  0.00  0.00    -0.391 OA
BRANCH   9  10
HETATM   10  C   UNK N   1      30.658  23.040  -2.393  0.00  0.00     0.167 C 
BRANCH  10  11
HETATM   11  C   UNK N   1      31.497  21.911  -2.969  0.00  0.00     0.027 C 
BRANCH  11  12
HETATM   12  C   UNK N   1      30.622  20.936  -3.747  0.00  0.00     0.007 C 
BRANCH  12  13
HETATM   13  C   UNK N   1      31.152  20.724  -5.160  0.00  0.00     0.038 C 
BRANCH  13  14
HETATM   14  C   UNK N   1      30.051  20.814  -6.168  0.00  0.00    -0.058 A 
HETATM   15  C   UNK N   1      29.229  21.947  -6.232  0.00  0.00     0.007 A 
HETATM   16  C   UNK N   1      28.210  22.027  -7.183  0.00  0.00     0.001 A 
HETATM   17  C   UNK N   1      28.012  20.975  -8.082  0.00  0.00     0.000 A 
HETATM   18  C   UNK N   1      28.835  19.845  -8.026  0.00  0.00     0.001 A 
HETATM   19  C   UNK N   1      29.854  19.765  -7.071  0.00  0.00     0.007 A 
ENDBRANCH  13  14
ENDBRANCH  12  13
ENDBRANCH  11  12
ENDBRANCH  10  11
ENDBRANCH   9  10
ENDBRANCH   8   9
ENDBRANCH   7   8
ENDBRANCH   6   7
ENDBRANCH   5   6
ENDBRANCH   4   5
ENDBRANCH   3   4
ENDBRANCH   1   3
BRANCH   1  20
HETATM   20  C   UNK N   1      28.005  29.144  -3.121  0.00  0.00     0.150 C 
BRANCH  20  21
HETATM   21  C   UNK N   1      26.489  28.949  -3.254  0.00  0.00     0.168 C 
BRANCH  21  22
HETATM   22  O   UNK N   1      25.949  30.080  -3.870  0.00  0.00    -0.389 OA
HETATM   23  H   UNK N   1      25.421  30.727  -3.377  0.00  0.00     0.210 HD
ENDBRANCH  21  22
BRANCH  21  24
HETATM   24  C   UNK N   1      26.091  27.688  -3.979  0.00  0.00    -0.027 A 
HETATM   25  C   UNK N   1      26.587  26.440  -3.575  0.00  0.00     0.022 A 
HETATM   26  C   UNK N   1      26.257  25.279  -4.286  0.00  0.00    -0.001 A 
HETATM   27  C   UNK N   1      25.431  25.369  -5.418  0.00  0.00     0.074 A 
HETATM   28  C   UNK N   1      24.938  26.609  -5.824  0.00  0.00     0.038 A 
HETATM   29  C   UNK N   1      25.270  27.760  -5.110  0.00  0.00     0.012 A 
BRANCH  26  30
HETATM   30  C   UNK N   1      26.798  23.963  -3.841  0.00  0.00     0.205 C 
BRANCH  30  31
HETATM   31  O   UNK N   1      26.993  23.970  -2.460  0.00  0.00    -0.396 OA
HETATM   32  H   UNK N   1      26.791  23.444  -1.670  0.00  0.00     0.209 HD
ENDBRANCH  30  31
ENDBRANCH  26  30
BRANCH  27  33
HETATM   33  O   UNK N   1      25.111  24.268  -6.120  0.00  0.00    -0.360 OA
HETATM   34  H   UNK N   1      25.309  23.419  -5.776  0.00  0.00     0.217 HD
ENDBRANCH  27  33
ENDBRANCH  21  24
ENDBRANCH  20  21
ENDBRANCH   1  20
TORSDOF 19
ENDMDL
