MODEL 1
REMARK VINA RESULT:      -6.8      0.000      0.000
REMARK  4 active torsions:
REMARK  status: ('A' for Active; 'I' for Inactive)
REMARK    1  A    between atoms: O_3  and  C_19 
REMARK    2  A    between atoms: N_5  and  C_6 
REMARK    3  A    between atoms: N_5  and  C_7 
REMARK    4  A    between atoms: C_10  and  C_19 
ROOT
HETATM    1  N   UNK N   1      28.629  24.781  -4.360  0.00  0.00    -0.353 N 
HETATM    2  H   UNK N   1      29.176  25.273  -3.705  0.00  0.00     0.166 HD
ENDROOT
BRANCH   1   3
HETATM    3  C   UNK N   1      27.466  25.557  -4.720  0.00  0.00     0.077 A 
HETATM    4  C   UNK N   1      27.556  26.951  -4.462  0.00  0.00     0.068 A 
HETATM    5 Cl   UNK N   1      29.024  27.621  -3.744  0.00  0.00    -0.081 Cl
HETATM    6  C   UNK N   1      26.493  27.818  -4.768  0.00  0.00    -0.038 A 
HETATM    7  C   UNK N   1      25.330  27.319  -5.331  0.00  0.00     0.010 A 
HETATM    8  C   UNK N   1      26.584  29.282  -4.499  0.00  0.00     0.050 C 
HETATM    9  C   UNK N   1      25.212  25.964  -5.593  0.00  0.00     0.027 A 
HETATM   10  C   UNK N   1      26.245  25.069  -5.305  0.00  0.00     0.062 A 
HETATM   11 Cl   UNK N   1      25.854  23.419  -5.727  0.00  0.00    -0.082 Cl
ENDBRANCH   1   3
BRANCH   1  12
HETATM   12  C   UNK N   1      29.233  23.517  -4.661  0.00  0.00     0.049 A 
HETATM   13  C   UNK N   1      29.601  22.640  -3.598  0.00  0.00     0.064 A 
HETATM   14  C   UNK N   1      30.195  21.403  -3.900  0.00  0.00     0.020 A 
HETATM   15  C   UNK N   1      30.425  21.022  -5.219  0.00  0.00     0.001 A 
HETATM   16  C   UNK N   1      30.067  21.876  -6.254  0.00  0.00     0.002 A 
HETATM   17  C   UNK N   1      29.479  23.106  -5.968  0.00  0.00     0.030 A 
BRANCH  13  18
HETATM   18  C   UNK N   1      29.391  22.967  -2.162  0.00  0.00     0.178 C 
HETATM   19  O   UNK N   1      30.332  23.088  -1.398  0.00  0.00    -0.646 OA
BRANCH  18  20
HETATM   20  O   UNK N   1      28.139  23.133  -1.689  0.00  0.00    -0.773 OA
HETATM   21  H   UNK N   1      27.633  23.878  -1.951  0.00  0.00     0.167 HD
ENDBRANCH  18  20
ENDBRANCH  13  18
ENDBRANCH   1  12
TORSDOF 4
ENDMDL
MODEL 2
REMARK VINA RESULT:      -6.5      1.257      2.445
REMARK  4 active torsions:
REMARK  status: ('A' for Active; 'I' for Inactive)
REMARK    1  A    between atoms: O_3  and  C_19 
REMARK    2  A    between atoms: N_5  and  C_6 
REMARK    3  A    between atoms: N_5  and  C_7 
REMARK    4  A    between atoms: C_10  and  C_19 
ROOT
HETATM    1  N   UNK N   1      28.404  23.875  -4.645  0.00  0.00    -0.353 N 
HETATM    2  H   UNK N   1      27.497  23.573  -4.882  0.00  0.00     0.166 HD
ENDROOT
BRANCH   1   3
HETATM    3  C   UNK N   1      28.400  25.292  -4.368  0.00  0.00     0.077 A 
HETATM    4  C   UNK N   1      27.127  25.920  -4.405  0.00  0.00     0.068 A 
HETATM    5 Cl   UNK N   1      25.685  24.968  -4.776  0.00  0.00    -0.081 Cl
HETATM    6  C   UNK N   1      26.986  27.295  -4.152  0.00  0.00    -0.038 A 
HETATM    7  C   UNK N   1      28.099  28.065  -3.860  0.00  0.00     0.010 A 
HETATM    8  C   UNK N   1      25.651  27.958  -4.190  0.00  0.00     0.050 C 
HETATM    9  C   UNK N   1      29.354  27.481  -3.817  0.00  0.00     0.027 A 
HETATM   10  C   UNK N   1      29.539  26.119  -4.062  0.00  0.00     0.062 A 
HETATM   11 Cl   UNK N   1      31.211  25.625  -3.949  0.00  0.00    -0.082 Cl
ENDBRANCH   1   3
BRANCH   1  12
HETATM   12  C   UNK N   1      29.319  22.773  -4.682  0.00  0.00     0.049 A 
HETATM   13  C   UNK N   1      29.869  22.271  -3.465  0.00  0.00     0.064 A 
HETATM   14  C   UNK N   1      30.767  21.192  -3.509  0.00  0.00     0.020 A 
HETATM   15  C   UNK N   1      31.125  20.606  -4.721  0.00  0.00     0.001 A 
HETATM   16  C   UNK N   1      30.590  21.095  -5.906  0.00  0.00     0.002 A 
HETATM   17  C   UNK N   1      29.699  22.165  -5.876  0.00  0.00     0.030 A 
BRANCH  13  18
HETATM   18  C   UNK N   1      29.541  22.836  -2.129  0.00  0.00     0.178 C 
HETATM   19  O   UNK N   1      30.418  23.137  -1.339  0.00  0.00    -0.646 OA
BRANCH  18  20
HETATM   20  O   UNK N   1      28.252  23.021  -1.778  0.00  0.00    -0.773 OA
HETATM   21  H   UNK N   1      28.037  23.283  -0.904  0.00  0.00     0.167 HD
ENDBRANCH  18  20
ENDBRANCH  13  18
ENDBRANCH   1  12
TORSDOF 4
ENDMDL
MODEL 3
REMARK VINA RESULT:      -6.4     19.603     22.161
REMARK  4 active torsions:
REMARK  status: ('A' for Active; 'I' for Inactive)
REMARK    1  A    between atoms: O_3  and  C_19 
REMARK    2  A    between atoms: N_5  and  C_6 
REMARK    3  A    between atoms: N_5  and  C_7 
REMARK    4  A    between atoms: C_10  and  C_19 
ROOT
HETATM    1  N   UNK N   1      36.727  13.878  12.892  0.00  0.00    -0.353 N 
HETATM    2  H   UNK N   1      37.303  14.557  13.312  0.00  0.00     0.166 HD
ENDROOT
BRANCH   1   3
HETATM    3  C   UNK N   1      35.903  13.237  13.889  0.00  0.00     0.077 A 
HETATM    4  C   UNK N   1      36.056  13.723  15.215  0.00  0.00     0.068 A 
HETATM    5 Cl   UNK N   1      37.200  15.027  15.549  0.00  0.00    -0.081 Cl
HETATM    6  C   UNK N   1      35.311  13.185  16.278  0.00  0.00    -0.038 A 
HETATM    7  C   UNK N   1      34.408  12.161  16.045  0.00  0.00     0.010 A 
HETATM    8  C   UNK N   1      35.468  13.693  17.671  0.00  0.00     0.050 C 
HETATM    9  C   UNK N   1      34.237  11.665  14.763  0.00  0.00     0.027 A 
HETATM   10  C   UNK N   1      34.957  12.171  13.679  0.00  0.00     0.062 A 
HETATM   11 Cl   UNK N   1      34.564  11.382  12.171  0.00  0.00    -0.082 Cl
ENDBRANCH   1   3
BRANCH   1  12
HETATM   12  C   UNK N   1      36.965  13.831  11.480  0.00  0.00     0.049 A 
HETATM   13  C   UNK N   1      36.156  14.611  10.601  0.00  0.00     0.064 A 
HETATM   14  C   UNK N   1      36.394  14.559   9.218  0.00  0.00     0.020 A 
HETATM   15  C   UNK N   1      37.408  13.760   8.694  0.00  0.00     0.001 A 
HETATM   16  C   UNK N   1      38.195  13.000   9.550  0.00  0.00     0.002 A 
HETATM   17  C   UNK N   1      37.969  13.042  10.924  0.00  0.00     0.030 A 
BRANCH  13  18
HETATM   18  C   UNK N   1      35.055  15.490  11.074  0.00  0.00     0.178 C 
HETATM   19  O   UNK N   1      35.172  16.703  11.079  0.00  0.00    -0.646 OA
BRANCH  18  20
HETATM   20  O   UNK N   1      33.901  14.944  11.510  0.00  0.00    -0.773 OA
HETATM   21  H   UNK N   1      33.122  15.465  11.553  0.00  0.00     0.167 HD
ENDBRANCH  18  20
ENDBRANCH  13  18
ENDBRANCH   1  12
TORSDOF 4
ENDMDL
MODEL 4
REMARK VINA RESULT:      -6.4     23.040     25.621
REMARK  4 active torsions:
REMARK  status: ('A' for Active; 'I' for Inactive)
REMARK    1  A    between atoms: O_3  and  C_19 
REMARK    2  A    between atoms: N_5  and  C_6 
REMARK    3  A    between atoms: N_5  and  C_7 
REMARK    4  A    between atoms: C_10  and  C_19 
ROOT
HETATM    1  N   UNK N   1      35.066  12.348  16.569  0.00  0.00    -0.353 N 
HETATM    2  H   UNK N   1      34.275  12.851  16.872  0.00  0.00     0.166 HD
ENDROOT
BRANCH   1   3
HETATM    3  C   UNK N   1      35.393  12.704  15.209  0.00  0.00     0.077 A 
HETATM    4  C   UNK N   1      34.767  11.920  14.204  0.00  0.00     0.068 A 
HETATM    5 Cl   UNK N   1      33.673  10.610  14.661  0.00  0.00    -0.081 Cl
HETATM    6  C   UNK N   1      35.000  12.165  12.840  0.00  0.00    -0.038 A 
HETATM    7  C   UNK N   1      35.853  13.185  12.453  0.00  0.00     0.010 A 
HETATM    8  C   UNK N   1      34.344  11.345  11.781  0.00  0.00     0.050 C 
HETATM    9  C   UNK N   1      36.479  13.966  13.411  0.00  0.00     0.027 A 
HETATM   10  C   UNK N   1      36.275  13.756  14.776  0.00  0.00     0.062 A 
HETATM   11 Cl   UNK N   1      37.174  14.869  15.779  0.00  0.00    -0.082 Cl
ENDBRANCH   1   3
BRANCH   1  12
HETATM   12  C   UNK N   1      35.536  11.489  17.616  0.00  0.00     0.049 A 
HETATM   13  C   UNK N   1      35.549  11.959  18.963  0.00  0.00     0.064 A 
HETATM   14  C   UNK N   1      36.013  11.113  19.983  0.00  0.00     0.020 A 
HETATM   15  C   UNK N   1      36.458   9.825  19.699  0.00  0.00     0.001 A 
HETATM   16  C   UNK N   1      36.445   9.367  18.387  0.00  0.00     0.002 A 
HETATM   17  C   UNK N   1      35.988  10.196  17.366  0.00  0.00     0.030 A 
BRANCH  13  18
HETATM   18  C   UNK N   1      35.093  13.320  19.355  0.00  0.00     0.178 C 
HETATM   19  O   UNK N   1      35.247  14.275  18.614  0.00  0.00    -0.646 OA
BRANCH  18  20
HETATM   20  O   UNK N   1      34.497  13.508  20.550  0.00  0.00    -0.773 OA
HETATM   21  H   UNK N   1      34.598  12.871  21.230  0.00  0.00     0.167 HD
ENDBRANCH  18  20
ENDBRANCH  13  18
ENDBRANCH   1  12
TORSDOF 4
ENDMDL
MODEL 5
REMARK VINA RESULT:      -6.4     13.706     15.548
REMARK  4 active torsions:
REMARK  status: ('A' for Active; 'I' for Inactive)
REMARK    1  A    between atoms: O_3  and  C_19 
REMARK    2  A    between atoms: N_5  and  C_6 
REMARK    3  A    between atoms: N_5  and  C_7 
REMARK    4  A    between atoms: C_10  and  C_19 
ROOT
HETATM    1  N   UNK N   1      31.884  17.026   7.831  0.00  0.00    -0.353 N 
HETATM    2  H   UNK N   1      32.334  17.614   7.181  0.00  0.00     0.166 HD
ENDROOT
BRANCH   1   3
HETATM    3  C   UNK N   1      30.461  17.012   7.588  0.00  0.00     0.077 A 
HETATM    4  C   UNK N   1      30.040  16.262   6.459  0.00  0.00     0.068 A 
HETATM    5 Cl   UNK N   1      31.235  15.427   5.460  0.00  0.00    -0.081 Cl
HETATM    6  C   UNK N   1      28.681  16.166   6.113  0.00  0.00    -0.038 A 
HETATM    7  C   UNK N   1      27.723  16.811   6.878  0.00  0.00     0.010 A 
HETATM    8  C   UNK N   1      28.235  15.378   4.929  0.00  0.00     0.050 C 
HETATM    9  C   UNK N   1      28.103  17.552   7.985  0.00  0.00     0.027 A 
HETATM   10  C   UNK N   1      29.443  17.672   8.363  0.00  0.00     0.062 A 
HETATM   11 Cl   UNK N   1      29.663  18.656   9.790  0.00  0.00    -0.082 Cl
ENDBRANCH   1   3
BRANCH   1  12
HETATM   12  C   UNK N   1      32.844  16.450   8.725  0.00  0.00     0.049 A 
HETATM   13  C   UNK N   1      34.157  17.002   8.803  0.00  0.00     0.064 A 
HETATM   14  C   UNK N   1      35.094  16.431   9.680  0.00  0.00     0.020 A 
HETATM   15  C   UNK N   1      34.758  15.337  10.474  0.00  0.00     0.001 A 
HETATM   16  C   UNK N   1      33.479  14.799  10.399  0.00  0.00     0.002 A 
HETATM   17  C   UNK N   1      32.541  15.356   9.532  0.00  0.00     0.030 A 
BRANCH  13  18
HETATM   18  C   UNK N   1      34.599  18.168   7.993  0.00  0.00     0.178 C 
HETATM   19  O   UNK N   1      34.377  18.225   6.796  0.00  0.00    -0.646 OA
BRANCH  18  20
HETATM   20  O   UNK N   1      35.259  19.184   8.584  0.00  0.00    -0.773 OA
HETATM   21  H   UNK N   1      35.931  19.642   8.118  0.00  0.00     0.167 HD
ENDBRANCH  18  20
ENDBRANCH  13  18
ENDBRANCH   1  12
TORSDOF 4
ENDMDL
MODEL 6
REMARK VINA RESULT:      -6.3     10.844     12.797
REMARK  4 active torsions:
REMARK  status: ('A' for Active; 'I' for Inactive)
REMARK    1  A    between atoms: O_3  and  C_19 
REMARK    2  A    between atoms: N_5  and  C_6 
REMARK    3  A    between atoms: N_5  and  C_7 
REMARK    4  A    between atoms: C_10  and  C_19 
ROOT
HETATM    1  N   UNK N   1      27.992  18.009   6.656  0.00  0.00    -0.353 N 
HETATM    2  H   UNK N   1      27.574  18.409   7.454  0.00  0.00     0.166 HD
ENDROOT
BRANCH   1   3
HETATM    3  C   UNK N   1      27.041  17.954   5.571  0.00  0.00     0.077 A 
HETATM    4  C   UNK N   1      26.875  19.159   4.840  0.00  0.00     0.068 A 
HETATM    5 Cl   UNK N   1      27.801  20.596   5.286  0.00  0.00    -0.081 Cl
HETATM    6  C   UNK N   1      25.980  19.238   3.758  0.00  0.00    -0.038 A 
HETATM    7  C   UNK N   1      25.241  18.128   3.387  0.00  0.00     0.010 A 
HETATM    8  C   UNK N   1      25.804  20.502   2.988  0.00  0.00     0.050 C 
HETATM    9  C   UNK N   1      25.381  16.937   4.082  0.00  0.00     0.027 A 
HETATM   10  C   UNK N   1      26.258  16.817   5.162  0.00  0.00     0.062 A 
HETATM   11 Cl   UNK N   1      26.254  15.219   5.869  0.00  0.00    -0.082 Cl
ENDBRANCH   1   3
BRANCH   1  12
HETATM   12  C   UNK N   1      29.354  17.664   6.931  0.00  0.00     0.049 A 
HETATM   13  C   UNK N   1      29.864  17.802   8.256  0.00  0.00     0.064 A 
HETATM   14  C   UNK N   1      31.202  17.463   8.519  0.00  0.00     0.020 A 
HETATM   15  C   UNK N   1      32.034  16.993   7.506  0.00  0.00     0.001 A 
HETATM   16  C   UNK N   1      31.538  16.858   6.216  0.00  0.00     0.002 A 
HETATM   17  C   UNK N   1      30.214  17.192   5.942  0.00  0.00     0.030 A 
BRANCH  13  18
HETATM   18  C   UNK N   1      29.046  18.296   9.396  0.00  0.00     0.178 C 
HETATM   19  O   UNK N   1      29.549  18.933  10.304  0.00  0.00    -0.646 OA
BRANCH  18  20
HETATM   20  O   UNK N   1      27.723  18.037   9.432  0.00  0.00    -0.773 OA
HETATM   21  H   UNK N   1      27.186  18.432  10.091  0.00  0.00     0.167 HD
ENDBRANCH  18  20
ENDBRANCH  13  18
ENDBRANCH   1  12
TORSDOF 4
ENDMDL
MODEL 7
REMARK VINA RESULT:      -6.3     11.191     13.424
REMARK  4 active torsions:
REMARK  status: ('A' for Active; 'I' for Inactive)
REMARK    1  A    between atoms: O_3  and  C_19 
REMARK    2  A    between atoms: N_5  and  C_6 
REMARK    3  A    between atoms: N_5  and  C_7 
REMARK    4  A    between atoms: C_10  and  C_19 
ROOT
HETATM    1  N   UNK N   1      29.486  17.621   6.042  0.00  0.00    -0.353 N 
HETATM    2  H   UNK N   1      29.304  17.059   6.830  0.00  0.00     0.166 HD
ENDROOT
BRANCH   1   3
HETATM    3  C   UNK N   1      30.599  17.085   5.295  0.00  0.00     0.077 A 
HETATM    4  C   UNK N   1      31.839  17.047   5.986  0.00  0.00     0.068 A 
HETATM    5 Cl   UNK N   1      31.940  17.635   7.649  0.00  0.00    -0.081 Cl
HETATM    6  C   UNK N   1      33.000  16.547   5.371  0.00  0.00    -0.038 A 
HETATM    7  C   UNK N   1      32.950  16.080   4.069  0.00  0.00     0.010 A 
HETATM    8  C   UNK N   1      34.303  16.503   6.094  0.00  0.00     0.050 C 
HETATM    9  C   UNK N   1      31.755  16.106   3.368  0.00  0.00     0.027 A 
HETATM   10  C   UNK N   1      30.579  16.594   3.942  0.00  0.00     0.062 A 
HETATM   11 Cl   UNK N   1      29.210  16.521   2.859  0.00  0.00    -0.082 Cl
ENDBRANCH   1   3
BRANCH   1  12
HETATM   12  C   UNK N   1      28.566  18.718   5.992  0.00  0.00     0.049 A 
HETATM   13  C   UNK N   1      28.019  19.237   7.203  0.00  0.00     0.064 A 
HETATM   14  C   UNK N   1      27.115  20.311   7.147  0.00  0.00     0.020 A 
HETATM   15  C   UNK N   1      26.749  20.876   5.928  0.00  0.00     0.001 A 
HETATM   16  C   UNK N   1      27.281  20.370   4.748  0.00  0.00     0.002 A 
HETATM   17  C   UNK N   1      28.177  19.305   4.791  0.00  0.00     0.030 A 
BRANCH  13  18
HETATM   18  C   UNK N   1      28.356  18.695   8.547  0.00  0.00     0.178 C 
HETATM   19  O   UNK N   1      29.473  18.824   9.017  0.00  0.00    -0.646 OA
BRANCH  18  20
HETATM   20  O   UNK N   1      27.416  18.047   9.263  0.00  0.00    -0.773 OA
HETATM   21  H   UNK N   1      27.379  17.110   9.251  0.00  0.00     0.167 HD
ENDBRANCH  18  20
ENDBRANCH  13  18
ENDBRANCH   1  12
TORSDOF 4
ENDMDL
MODEL 8
REMARK VINA RESULT:      -6.2     11.383     13.811
REMARK  4 active torsions:
REMARK  status: ('A' for Active; 'I' for Inactive)
REMARK    1  A    between atoms: O_3  and  C_19 
REMARK    2  A    between atoms: N_5  and  C_6 
REMARK    3  A    between atoms: N_5  and  C_7 
REMARK    4  A    between atoms: C_10  and  C_19 
ROOT
HETATM    1  N   UNK N   1      29.750  17.455   6.293  0.00  0.00    -0.353 N 
HETATM    2  H   UNK N   1      29.323  16.697   6.753  0.00  0.00     0.166 HD
ENDROOT
BRANCH   1   3
HETATM    3  C   UNK N   1      31.132  17.150   6.005  0.00  0.00     0.077 A 
HETATM    4  C   UNK N   1      31.379  16.571   4.733  0.00  0.00     0.068 A 
HETATM    5 Cl   UNK N   1      30.035  16.269   3.625  0.00  0.00    -0.081 Cl
HETATM    6  C   UNK N   1      32.681  16.228   4.329  0.00  0.00    -0.038 A 
HETATM    7  C   UNK N   1      33.752  16.452   5.177  0.00  0.00     0.010 A 
HETATM    8  C   UNK N   1      32.944  15.620   2.994  0.00  0.00     0.050 C 
HETATM    9  C   UNK N   1      33.543  17.015   6.425  0.00  0.00     0.027 A 
HETATM   10  C   UNK N   1      32.265  17.371   6.865  0.00  0.00     0.062 A 
HETATM   11 Cl   UNK N   1      32.264  18.060   8.470  0.00  0.00    -0.082 Cl
ENDBRANCH   1   3
BRANCH   1  12
HETATM   12  C   UNK N   1      28.809  18.521   6.115  0.00  0.00     0.049 A 
HETATM   13  C   UNK N   1      28.153  19.080   7.252  0.00  0.00     0.064 A 
HETATM   14  C   UNK N   1      27.229  20.123   7.071  0.00  0.00     0.020 A 
HETATM   15  C   UNK N   1      26.948  20.618   5.800  0.00  0.00     0.001 A 
HETATM   16  C   UNK N   1      27.586  20.073   4.693  0.00  0.00     0.002 A 
HETATM   17  C   UNK N   1      28.503  19.038   4.859  0.00  0.00     0.030 A 
BRANCH  13  18
HETATM   18  C   UNK N   1      28.395  18.613   8.643  0.00  0.00     0.178 C 
HETATM   19  O   UNK N   1      29.473  18.776   9.185  0.00  0.00    -0.646 OA
BRANCH  18  20
HETATM   20  O   UNK N   1      27.407  17.995   9.324  0.00  0.00    -0.773 OA
HETATM   21  H   UNK N   1      27.583  17.198   9.785  0.00  0.00     0.167 HD
ENDBRANCH  18  20
ENDBRANCH  13  18
ENDBRANCH   1  12
TORSDOF 4
ENDMDL
MODEL 9
REMARK VINA RESULT:      -6.2     11.132     12.998
REMARK  4 active torsions:
REMARK  status: ('A' for Active; 'I' for Inactive)
REMARK    1  A    between atoms: O_3  and  C_19 
REMARK    2  A    between atoms: N_5  and  C_6 
REMARK    3  A    between atoms: N_5  and  C_7 
REMARK    4  A    between atoms: C_10  and  C_19 
ROOT
HETATM    1  N   UNK N   1      27.960  18.014   6.706  0.00  0.00    -0.353 N 
HETATM    2  H   UNK N   1      27.446  17.966   7.544  0.00  0.00     0.166 HD
ENDROOT
BRANCH   1   3
HETATM    3  C   UNK N   1      27.093  18.376   5.609  0.00  0.00     0.077 A 
HETATM    4  C   UNK N   1      26.491  17.290   4.921  0.00  0.00     0.068 A 
HETATM    5 Cl   UNK N   1      26.827  15.630   5.427  0.00  0.00    -0.081 Cl
HETATM    6  C   UNK N   1      25.625  17.506   3.836  0.00  0.00    -0.038 A 
HETATM    7  C   UNK N   1      25.344  18.796   3.418  0.00  0.00     0.010 A 
HETATM    8  C   UNK N   1      24.989  16.368   3.111  0.00  0.00     0.050 C 
HETATM    9  C   UNK N   1      25.917  19.876   4.068  0.00  0.00     0.027 A 
HETATM   10  C   UNK N   1      26.783  19.705   5.151  0.00  0.00     0.062 A 
HETATM   11 Cl   UNK N   1      27.373  21.217   5.798  0.00  0.00    -0.082 Cl
ENDBRANCH   1   3
BRANCH   1  12
HETATM   12  C   UNK N   1      29.337  17.704   6.951  0.00  0.00     0.049 A 
HETATM   13  C   UNK N   1      29.870  17.848   8.267  0.00  0.00     0.064 A 
HETATM   14  C   UNK N   1      31.221  17.544   8.500  0.00  0.00     0.020 A 
HETATM   15  C   UNK N   1      32.045  17.104   7.467  0.00  0.00     0.001 A 
HETATM   16  C   UNK N   1      31.527  16.964   6.186  0.00  0.00     0.002 A 
HETATM   17  C   UNK N   1      30.189  17.263   5.942  0.00  0.00     0.030 A 
BRANCH  13  18
HETATM   18  C   UNK N   1      29.061  18.312   9.426  0.00  0.00     0.178 C 
HETATM   19  O   UNK N   1      29.572  18.926  10.346  0.00  0.00    -0.646 OA
BRANCH  18  20
HETATM   20  O   UNK N   1      27.739  18.051   9.468  0.00  0.00    -0.773 OA
HETATM   21  H   UNK N   1      27.215  18.396  10.164  0.00  0.00     0.167 HD
ENDBRANCH  18  20
ENDBRANCH  13  18
ENDBRANCH   1  12
TORSDOF 4
ENDMDL
