REMARK  7 active torsions:
REMARK  status: ('A' for Active; 'I' for Inactive)
REMARK    1  A    between atoms: O_1  and  C_9 
REMARK    2  A    between atoms: O_1  and  C_13 
REMARK    3  A    between atoms: N_4  and  C_5 
REMARK    4  A    between atoms: N_4  and  C_6 
REMARK    5  A    between atoms: N_4  and  C_7 
REMARK    6  A    between atoms: C_5  and  C_9 
REMARK    7  A    between atoms: C_12  and  C_13 
ROOT
HETATM    1  O   UNK N   1       3.520  -4.520  -0.007  0.00  0.00    -0.310 OA
HETATM    2  C   UNK N   1       3.290  -1.640  -0.015  0.00  0.00     0.157 A 
HETATM    3  C   UNK N   1       4.636  -2.379  -0.033  0.00  0.00    -0.006 A 
HETATM    4  C   UNK N   1       2.078  -2.593  -0.004  0.00  0.00    -0.006 A 
HETATM    5  C   UNK N   1       4.659  -3.796  -0.027  0.00  0.00     0.083 A 
HETATM    6  C   UNK N   1       2.282  -3.991   0.001  0.00  0.00     0.083 A 
HETATM    7  C   UNK N   1       5.863  -1.712  -0.057  0.00  0.00     0.011 A 
HETATM    8  C   UNK N   1       0.755  -2.116   0.004  0.00  0.00     0.011 A 
HETATM    9  C   UNK N   1       5.876  -4.486  -0.043  0.00  0.00     0.038 A 
HETATM   10  C   UNK N   1       1.186  -4.864   0.016  0.00  0.00     0.038 A 
HETATM   11  C   UNK N   1       7.076  -2.401  -0.074  0.00  0.00     0.001 A 
HETATM   12  C   UNK N   1      -0.332  -2.993   0.018  0.00  0.00     0.001 A 
HETATM   13  C   UNK N   1       7.083  -3.792  -0.067  0.00  0.00     0.003 A 
HETATM   14  C   UNK N   1      -0.116  -4.368   0.025  0.00  0.00     0.003 A 
ENDROOT
BRANCH   2  15
HETATM   15  C   UNK N   1       3.008  -0.096   0.030  0.00  0.00     0.272 C 
HETATM   16  O   UNK N   1       1.842   0.259   0.049  0.00  0.00    -0.264 OA
BRANCH  15  17
HETATM   17  O   UNK N   1       3.925   0.917   0.077  0.00  0.00    -0.319 OA
BRANCH  17  18
HETATM   18  C   UNK N   1       5.290   0.905  -0.019  0.00  0.00     0.206 C 
BRANCH  18  19
HETATM   19  C   UNK N   1       5.769   2.133  -0.803  0.00  0.00     0.263 C 
BRANCH  19  20
HETATM   20  N   UNK N   1       6.041   3.316   0.033  0.00  0.00    -0.070 N 
HETATM   21  C   UNK N   1       4.881   3.616   0.868  0.00  0.00     0.272 C 
BRANCH  20  22
HETATM   22  C   UNK N   1       6.257   4.448  -0.883  0.00  0.00     0.232 C 
HETATM   23  C   UNK N   1       6.587   5.757  -0.165  0.00  0.00     0.035 C 
ENDBRANCH  20  22
BRANCH  20  24
HETATM   24  C   UNK N   1       7.200   3.084   0.913  0.00  0.00     0.232 C 
HETATM   25  C   UNK N   1       8.531   3.013   0.164  0.00  0.00     0.035 C 
ENDBRANCH  20  24
ENDBRANCH  19  20
ENDBRANCH  18  19
ENDBRANCH  17  18
ENDBRANCH  15  17
ENDBRANCH   2  15
TORSDOF 7
