MODEL 1
REMARK VINA RESULT:      -6.3      0.000      0.000
REMARK  7 active torsions:
REMARK  status: ('A' for Active; 'I' for Inactive)
REMARK    1  A    between atoms: O_1  and  C_9 
REMARK    2  A    between atoms: O_1  and  C_13 
REMARK    3  A    between atoms: N_4  and  C_5 
REMARK    4  A    between atoms: N_4  and  C_6 
REMARK    5  A    between atoms: N_4  and  C_7 
REMARK    6  A    between atoms: C_5  and  C_9 
REMARK    7  A    between atoms: C_12  and  C_13 
ROOT
HETATM    1  O   UNK N   1      31.297  15.975   6.271  0.00  0.00    -0.310 OA
HETATM    2  C   UNK N   1      33.312  17.303   7.859  0.00  0.00     0.157 A 
HETATM    3  C   UNK N   1      31.808  17.572   8.008  0.00  0.00    -0.006 A 
HETATM    4  C   UNK N   1      33.633  16.244   6.785  0.00  0.00    -0.006 A 
HETATM    5  C   UNK N   1      30.886  16.877   7.187  0.00  0.00     0.083 A 
HETATM    6  C   UNK N   1      32.584  15.645   6.052  0.00  0.00     0.083 A 
HETATM    7  C   UNK N   1      31.292  18.486   8.931  0.00  0.00     0.011 A 
HETATM    8  C   UNK N   1      34.952  15.847   6.500  0.00  0.00     0.011 A 
HETATM    9  C   UNK N   1      29.511  17.110   7.309  0.00  0.00     0.038 A 
HETATM   10  C   UNK N   1      32.867  14.686   5.071  0.00  0.00     0.038 A 
HETATM   11  C   UNK N   1      29.922  18.716   9.052  0.00  0.00     0.001 A 
HETATM   12  C   UNK N   1      35.225  14.889   5.521  0.00  0.00     0.001 A 
HETATM   13  C   UNK N   1      29.028  18.027   8.239  0.00  0.00     0.003 A 
HETATM   14  C   UNK N   1      34.182  14.309   4.806  0.00  0.00     0.003 A 
ENDROOT
BRANCH   2  15
HETATM   15  C   UNK N   1      34.518  17.973   8.610  0.00  0.00     0.272 C 
HETATM   16  O   UNK N   1      34.912  19.046   8.187  0.00  0.00    -0.264 OA
BRANCH  15  17
HETATM   17  O   UNK N   1      35.175  17.506   9.714  0.00  0.00    -0.319 OA
BRANCH  17  18
HETATM   18  C   UNK N   1      34.965  16.397  10.488  0.00  0.00     0.206 C 
BRANCH  18  19
HETATM   19  C   UNK N   1      36.257  15.577  10.587  0.00  0.00     0.263 C 
BRANCH  19  20
HETATM   20  N   UNK N   1      36.049  14.118  10.583  0.00  0.00    -0.070 N 
HETATM   21  C   UNK N   1      34.788  13.790  11.242  0.00  0.00     0.272 C 
BRANCH  20  22
HETATM   22  C   UNK N   1      37.147  13.526  11.364  0.00  0.00     0.232 C 
HETATM   23  C   UNK N   1      38.215  12.854  10.501  0.00  0.00     0.035 C 
ENDBRANCH  20  22
BRANCH  20  24
HETATM   24  C   UNK N   1      36.003  13.597   9.205  0.00  0.00     0.232 C 
HETATM   25  C   UNK N   1      34.652  12.990   8.827  0.00  0.00     0.035 C 
ENDBRANCH  20  24
ENDBRANCH  19  20
ENDBRANCH  18  19
ENDBRANCH  17  18
ENDBRANCH  15  17
ENDBRANCH   2  15
TORSDOF 7
ENDMDL
MODEL 2
REMARK VINA RESULT:      -6.3      1.666      4.084
REMARK  7 active torsions:
REMARK  status: ('A' for Active; 'I' for Inactive)
REMARK    1  A    between atoms: O_1  and  C_9 
REMARK    2  A    between atoms: O_1  and  C_13 
REMARK    3  A    between atoms: N_4  and  C_5 
REMARK    4  A    between atoms: N_4  and  C_6 
REMARK    5  A    between atoms: N_4  and  C_7 
REMARK    6  A    between atoms: C_5  and  C_9 
REMARK    7  A    between atoms: C_12  and  C_13 
ROOT
HETATM    1  O   UNK N   1      29.686  17.230   5.813  0.00  0.00    -0.310 OA
HETATM    2  C   UNK N   1      32.139  17.582   7.299  0.00  0.00     0.157 A 
HETATM    3  C   UNK N   1      32.100  17.256   5.799  0.00  0.00    -0.006 A 
HETATM    4  C   UNK N   1      30.736  17.712   7.924  0.00  0.00    -0.006 A 
HETATM    5  C   UNK N   1      30.852  17.098   5.146  0.00  0.00     0.083 A 
HETATM    6  C   UNK N   1      29.587  17.522   7.123  0.00  0.00     0.083 A 
HETATM    7  C   UNK N   1      33.256  17.105   5.029  0.00  0.00     0.011 A 
HETATM    8  C   UNK N   1      30.552  18.016   9.285  0.00  0.00     0.011 A 
HETATM    9  C   UNK N   1      30.798  16.801   3.780  0.00  0.00     0.038 A 
HETATM   10  C   UNK N   1      28.309  17.634   7.685  0.00  0.00     0.038 A 
HETATM   11  C   UNK N   1      33.201  16.810   3.667  0.00  0.00     0.001 A 
HETATM   12  C   UNK N   1      29.274  18.127   9.837  0.00  0.00     0.001 A 
HETATM   13  C   UNK N   1      31.969  16.657   3.040  0.00  0.00     0.003 A 
HETATM   14  C   UNK N   1      28.151  17.935   9.037  0.00  0.00     0.003 A 
ENDROOT
BRANCH   2  15
HETATM   15  C   UNK N   1      33.381  17.754   8.244  0.00  0.00     0.272 C 
HETATM   16  O   UNK N   1      33.918  18.848   8.267  0.00  0.00    -0.264 OA
BRANCH  15  17
HETATM   17  O   UNK N   1      33.929  16.819   9.077  0.00  0.00    -0.319 OA
BRANCH  17  18
HETATM   18  C   UNK N   1      33.824  15.455   9.098  0.00  0.00     0.206 C 
BRANCH  18  19
HETATM   19  C   UNK N   1      33.850  14.952  10.546  0.00  0.00     0.263 C 
BRANCH  19  20
HETATM   20  N   UNK N   1      35.179  14.521  11.014  0.00  0.00    -0.070 N 
HETATM   21  C   UNK N   1      35.900  15.655  11.585  0.00  0.00     0.272 C 
BRANCH  20  22
HETATM   22  C   UNK N   1      35.919  14.052   9.830  0.00  0.00     0.232 C 
HETATM   23  C   UNK N   1      37.427  14.286   9.923  0.00  0.00     0.035 C 
ENDBRANCH  20  22
BRANCH  20  24
HETATM   24  C   UNK N   1      35.062  13.476  12.046  0.00  0.00     0.232 C 
HETATM   25  C   UNK N   1      35.701  13.862  13.381  0.00  0.00     0.035 C 
ENDBRANCH  20  24
ENDBRANCH  19  20
ENDBRANCH  18  19
ENDBRANCH  17  18
ENDBRANCH  15  17
ENDBRANCH   2  15
TORSDOF 7
ENDMDL
MODEL 3
REMARK VINA RESULT:      -6.2      1.749      4.378
REMARK  7 active torsions:
REMARK  status: ('A' for Active; 'I' for Inactive)
REMARK    1  A    between atoms: O_1  and  C_9 
REMARK    2  A    between atoms: O_1  and  C_13 
REMARK    3  A    between atoms: N_4  and  C_5 
REMARK    4  A    between atoms: N_4  and  C_6 
REMARK    5  A    between atoms: N_4  and  C_7 
REMARK    6  A    between atoms: C_5  and  C_9 
REMARK    7  A    between atoms: C_12  and  C_13 
ROOT
HETATM    1  O   UNK N   1      29.637  17.188   5.792  0.00  0.00    -0.310 OA
HETATM    2  C   UNK N   1      32.128  17.562   7.207  0.00  0.00     0.157 A 
HETATM    3  C   UNK N   1      32.050  17.215   5.713  0.00  0.00    -0.006 A 
HETATM    4  C   UNK N   1      30.742  17.701   7.868  0.00  0.00    -0.006 A 
HETATM    5  C   UNK N   1      30.785  17.048   5.096  0.00  0.00     0.083 A 
HETATM    6  C   UNK N   1      29.573  17.499   7.100  0.00  0.00     0.083 A 
HETATM    7  C   UNK N   1      33.185  17.055   4.915  0.00  0.00     0.011 A 
HETATM    8  C   UNK N   1      30.594  18.024   9.228  0.00  0.00     0.011 A 
HETATM    9  C   UNK N   1      30.695  16.732   3.736  0.00  0.00     0.038 A 
HETATM   10  C   UNK N   1      28.309  17.618   7.694  0.00  0.00     0.038 A 
HETATM   11  C   UNK N   1      33.095  16.740   3.559  0.00  0.00     0.001 A 
HETATM   12  C   UNK N   1      29.331  18.142   9.813  0.00  0.00     0.001 A 
HETATM   13  C   UNK N   1      31.846  16.578   2.967  0.00  0.00     0.003 A 
HETATM   14  C   UNK N   1      28.188  17.937   9.045  0.00  0.00     0.003 A 
ENDROOT
BRANCH   2  15
HETATM   15  C   UNK N   1      33.395  17.749   8.116  0.00  0.00     0.272 C 
HETATM   16  O   UNK N   1      34.130  18.688   7.865  0.00  0.00    -0.264 OA
BRANCH  15  17
HETATM   17  O   UNK N   1      33.768  16.989   9.190  0.00  0.00    -0.319 OA
BRANCH  17  18
HETATM   18  C   UNK N   1      33.637  15.650   9.438  0.00  0.00     0.206 C 
BRANCH  18  19
HETATM   19  C   UNK N   1      34.935  14.921   9.066  0.00  0.00     0.263 C 
BRANCH  19  20
HETATM   20  N   UNK N   1      34.812  14.019   7.907  0.00  0.00    -0.070 N 
HETATM   21  C   UNK N   1      35.326  14.673   6.707  0.00  0.00     0.272 C 
BRANCH  20  22
HETATM   22  C   UNK N   1      33.375  13.762   7.715  0.00  0.00     0.232 C 
HETATM   23  C   UNK N   1      32.969  13.649   6.245  0.00  0.00     0.035 C 
ENDBRANCH  20  22
BRANCH  20  24
HETATM   24  C   UNK N   1      35.575  12.777   8.123  0.00  0.00     0.232 C 
HETATM   25  C   UNK N   1      35.851  12.478   9.597  0.00  0.00     0.035 C 
ENDBRANCH  20  24
ENDBRANCH  19  20
ENDBRANCH  18  19
ENDBRANCH  17  18
ENDBRANCH  15  17
ENDBRANCH   2  15
TORSDOF 7
ENDMDL
MODEL 4
REMARK VINA RESULT:      -5.9     15.126     17.188
REMARK  7 active torsions:
REMARK  status: ('A' for Active; 'I' for Inactive)
REMARK    1  A    between atoms: O_1  and  C_9 
REMARK    2  A    between atoms: O_1  and  C_13 
REMARK    3  A    between atoms: N_4  and  C_5 
REMARK    4  A    between atoms: N_4  and  C_6 
REMARK    5  A    between atoms: N_4  and  C_7 
REMARK    6  A    between atoms: C_5  and  C_9 
REMARK    7  A    between atoms: C_12  and  C_13 
ROOT
HETATM    1  O   UNK N   1      26.653  26.798  -7.125  0.00  0.00    -0.310 OA
HETATM    2  C   UNK N   1      27.216  25.287  -4.728  0.00  0.00     0.157 A 
HETATM    3  C   UNK N   1      27.506  26.788  -4.867  0.00  0.00    -0.006 A 
HETATM    4  C   UNK N   1      26.584  24.674  -5.994  0.00  0.00    -0.006 A 
HETATM    5  C   UNK N   1      27.199  27.453  -6.080  0.00  0.00     0.083 A 
HETATM    6  C   UNK N   1      26.344  25.487  -7.124  0.00  0.00     0.083 A 
HETATM    7  C   UNK N   1      28.067  27.547  -3.837  0.00  0.00     0.011 A 
HETATM    8  C   UNK N   1      26.234  23.314  -6.069  0.00  0.00     0.011 A 
HETATM    9  C   UNK N   1      27.457  28.821  -6.224  0.00  0.00     0.038 A 
HETATM   10  C   UNK N   1      25.775  24.937  -8.281  0.00  0.00     0.038 A 
HETATM   11  C   UNK N   1      28.322  28.911  -3.981  0.00  0.00     0.001 A 
HETATM   12  C   UNK N   1      25.666  22.774  -7.225  0.00  0.00     0.001 A 
HETATM   13  C   UNK N   1      28.016  29.550  -5.178  0.00  0.00     0.003 A 
HETATM   14  C   UNK N   1      25.437  23.587  -8.332  0.00  0.00     0.003 A 
ENDROOT
BRANCH   2  15
HETATM   15  C   UNK N   1      27.507  24.329  -3.518  0.00  0.00     0.272 C 
HETATM   16  O   UNK N   1      26.618  24.179  -2.698  0.00  0.00    -0.264 OA
BRANCH  15  17
HETATM   17  O   UNK N   1      28.645  23.610  -3.280  0.00  0.00    -0.319 OA
BRANCH  17  18
HETATM   18  C   UNK N   1      29.966  23.959  -3.354  0.00  0.00     0.206 C 
BRANCH  18  19
HETATM   19  C   UNK N   1      30.584  23.397  -4.641  0.00  0.00     0.263 C 
BRANCH  19  20
HETATM   20  N   UNK N   1      31.306  22.125  -4.460  0.00  0.00    -0.070 N 
HETATM   21  C   UNK N   1      32.572  22.161  -5.187  0.00  0.00     0.272 C 
BRANCH  20  22
HETATM   22  C   UNK N   1      30.466  21.068  -5.045  0.00  0.00     0.232 C 
HETATM   23  C   UNK N   1      29.551  21.567  -6.164  0.00  0.00     0.035 C 
ENDBRANCH  20  22
BRANCH  20  24
HETATM   24  C   UNK N   1      31.595  21.882  -3.035  0.00  0.00     0.232 C 
HETATM   25  C   UNK N   1      32.964  21.247  -2.790  0.00  0.00     0.035 C 
ENDBRANCH  20  24
ENDBRANCH  19  20
ENDBRANCH  18  19
ENDBRANCH  17  18
ENDBRANCH  15  17
ENDBRANCH   2  15
TORSDOF 7
ENDMDL
MODEL 5
REMARK VINA RESULT:      -5.9     14.041     16.721
REMARK  7 active torsions:
REMARK  status: ('A' for Active; 'I' for Inactive)
REMARK    1  A    between atoms: O_1  and  C_9 
REMARK    2  A    between atoms: O_1  and  C_13 
REMARK    3  A    between atoms: N_4  and  C_5 
REMARK    4  A    between atoms: N_4  and  C_6 
REMARK    5  A    between atoms: N_4  and  C_7 
REMARK    6  A    between atoms: C_5  and  C_9 
REMARK    7  A    between atoms: C_12  and  C_13 
ROOT
HETATM    1  O   UNK N   1      31.261  19.873  -6.218  0.00  0.00    -0.310 OA
HETATM    2  C   UNK N   1      30.262  22.184  -4.801  0.00  0.00     0.157 A 
HETATM    3  C   UNK N   1      29.586  21.605  -6.052  0.00  0.00    -0.006 A 
HETATM    4  C   UNK N   1      31.518  21.399  -4.374  0.00  0.00    -0.006 A 
HETATM    5  C   UNK N   1      30.144  20.467  -6.688  0.00  0.00     0.083 A 
HETATM    6  C   UNK N   1      31.938  20.280  -5.128  0.00  0.00     0.083 A 
HETATM    7  C   UNK N   1      28.427  22.152  -6.606  0.00  0.00     0.011 A 
HETATM    8  C   UNK N   1      32.277  21.761  -3.247  0.00  0.00     0.011 A 
HETATM    9  C   UNK N   1      29.542  19.926  -7.829  0.00  0.00     0.038 A 
HETATM   10  C   UNK N   1      33.082  19.564  -4.750  0.00  0.00     0.038 A 
HETATM   11  C   UNK N   1      27.827  21.611  -7.744  0.00  0.00     0.001 A 
HETATM   12  C   UNK N   1      33.415  21.042  -2.877  0.00  0.00     0.001 A 
HETATM   13  C   UNK N   1      28.386  20.495  -8.357  0.00  0.00     0.003 A 
HETATM   14  C   UNK N   1      33.818  19.943  -3.630  0.00  0.00     0.003 A 
ENDROOT
BRANCH   2  15
HETATM   15  C   UNK N   1      29.867  23.449  -3.958  0.00  0.00     0.272 C 
HETATM   16  O   UNK N   1      29.202  23.266  -2.952  0.00  0.00    -0.264 OA
BRANCH  15  17
HETATM   17  O   UNK N   1      30.205  24.751  -4.202  0.00  0.00    -0.319 OA
BRANCH  17  18
HETATM   18  C   UNK N   1      29.458  25.897  -4.179  0.00  0.00     0.206 C 
BRANCH  18  19
HETATM   19  C   UNK N   1      28.364  25.830  -5.252  0.00  0.00     0.263 C 
BRANCH  19  20
HETATM   20  N   UNK N   1      27.065  26.381  -4.827  0.00  0.00    -0.070 N 
HETATM   21  C   UNK N   1      27.263  27.655  -4.141  0.00  0.00     0.272 C 
BRANCH  20  22
HETATM   22  C   UNK N   1      26.486  25.425  -3.869  0.00  0.00     0.232 C 
HETATM   23  C   UNK N   1      26.184  24.057  -4.483  0.00  0.00     0.035 C 
ENDBRANCH  20  22
BRANCH  20  24
HETATM   24  C   UNK N   1      26.185  26.609  -5.986  0.00  0.00     0.232 C 
HETATM   25  C   UNK N   1      24.825  27.199  -5.614  0.00  0.00     0.035 C 
ENDBRANCH  20  24
ENDBRANCH  19  20
ENDBRANCH  18  19
ENDBRANCH  17  18
ENDBRANCH  15  17
ENDBRANCH   2  15
TORSDOF 7
ENDMDL
MODEL 6
REMARK VINA RESULT:      -5.9     15.231     17.313
REMARK  7 active torsions:
REMARK  status: ('A' for Active; 'I' for Inactive)
REMARK    1  A    between atoms: O_1  and  C_9 
REMARK    2  A    between atoms: O_1  and  C_13 
REMARK    3  A    between atoms: N_4  and  C_5 
REMARK    4  A    between atoms: N_4  and  C_6 
REMARK    5  A    between atoms: N_4  and  C_7 
REMARK    6  A    between atoms: C_5  and  C_9 
REMARK    7  A    between atoms: C_12  and  C_13 
ROOT
HETATM    1  O   UNK N   1      26.799  28.836  -2.863  0.00  0.00    -0.310 OA
HETATM    2  C   UNK N   1      29.078  27.897  -4.369  0.00  0.00     0.157 A 
HETATM    3  C   UNK N   1      27.624  27.652  -4.798  0.00  0.00    -0.006 A 
HETATM    4  C   UNK N   1      29.194  28.704  -3.060  0.00  0.00    -0.006 A 
HETATM    5  C   UNK N   1      26.564  28.148  -4.000  0.00  0.00     0.083 A 
HETATM    6  C   UNK N   1      28.025  29.123  -2.386  0.00  0.00     0.083 A 
HETATM    7  C   UNK N   1      27.288  26.953  -5.960  0.00  0.00     0.011 A 
HETATM    8  C   UNK N   1      30.439  29.042  -2.500  0.00  0.00     0.011 A 
HETATM    9  C   UNK N   1      25.233  27.934  -4.376  0.00  0.00     0.038 A 
HETATM   10  C   UNK N   1      28.121  29.852  -1.194  0.00  0.00     0.038 A 
HETATM   11  C   UNK N   1      25.961  26.742  -6.335  0.00  0.00     0.001 A 
HETATM   12  C   UNK N   1      30.526  29.770  -1.312  0.00  0.00     0.001 A 
HETATM   13  C   UNK N   1      24.930  27.233  -5.540  0.00  0.00     0.003 A 
HETATM   14  C   UNK N   1      29.365  30.175  -0.658  0.00  0.00     0.003 A 
ENDROOT
BRANCH   2  15
HETATM   15  C   UNK N   1      30.408  27.414  -5.051  0.00  0.00     0.272 C 
HETATM   16  O   UNK N   1      30.838  28.083  -5.974  0.00  0.00    -0.264 OA
BRANCH  15  17
HETATM   17  O   UNK N   1      31.170  26.329  -4.714  0.00  0.00    -0.319 OA
BRANCH  17  18
HETATM   18  C   UNK N   1      30.935  24.987  -4.837  0.00  0.00     0.206 C 
BRANCH  18  19
HETATM   19  C   UNK N   1      30.629  24.383  -3.461  0.00  0.00     0.263 C 
BRANCH  19  20
HETATM   20  N   UNK N   1      29.557  23.372  -3.468  0.00  0.00    -0.070 N 
HETATM   21  C   UNK N   1      29.152  23.061  -2.100  0.00  0.00     0.272 C 
BRANCH  20  22
HETATM   22  C   UNK N   1      30.120  22.154  -4.073  0.00  0.00     0.232 C 
HETATM   23  C   UNK N   1      31.220  21.509  -3.229  0.00  0.00     0.035 C 
ENDBRANCH  20  22
BRANCH  20  24
HETATM   24  C   UNK N   1      28.376  23.862  -4.202  0.00  0.00     0.232 C 
HETATM   25  C   UNK N   1      27.225  24.290  -3.291  0.00  0.00     0.035 C 
ENDBRANCH  20  24
ENDBRANCH  19  20
ENDBRANCH  18  19
ENDBRANCH  17  18
ENDBRANCH  15  17
ENDBRANCH   2  15
TORSDOF 7
ENDMDL
MODEL 7
REMARK VINA RESULT:      -5.9      5.589      9.453
REMARK  7 active torsions:
REMARK  status: ('A' for Active; 'I' for Inactive)
REMARK    1  A    between atoms: O_1  and  C_9 
REMARK    2  A    between atoms: O_1  and  C_13 
REMARK    3  A    between atoms: N_4  and  C_5 
REMARK    4  A    between atoms: N_4  and  C_6 
REMARK    5  A    between atoms: N_4  and  C_7 
REMARK    6  A    between atoms: C_5  and  C_9 
REMARK    7  A    between atoms: C_12  and  C_13 
ROOT
HETATM    1  O   UNK N   1      35.531   9.789  17.497  0.00  0.00    -0.310 OA
HETATM    2  C   UNK N   1      35.565  11.659  15.296  0.00  0.00     0.157 A 
HETATM    3  C   UNK N   1      35.431  12.087  16.765  0.00  0.00    -0.006 A 
HETATM    4  C   UNK N   1      35.691  10.133  15.121  0.00  0.00    -0.006 A 
HETATM    5  C   UNK N   1      35.422  11.103  17.784  0.00  0.00     0.083 A 
HETATM    6  C   UNK N   1      35.662   9.290  16.254  0.00  0.00     0.083 A 
HETATM    7  C   UNK N   1      35.317  13.424  17.154  0.00  0.00     0.011 A 
HETATM    8  C   UNK N   1      35.832   9.537  13.855  0.00  0.00     0.011 A 
HETATM    9  C   UNK N   1      35.301  11.475  19.128  0.00  0.00     0.038 A 
HETATM   10  C   UNK N   1      35.771   7.901  16.103  0.00  0.00     0.038 A 
HETATM   11  C   UNK N   1      35.197  13.793  18.494  0.00  0.00     0.001 A 
HETATM   12  C   UNK N   1      35.940   8.152  13.713  0.00  0.00     0.001 A 
HETATM   13  C   UNK N   1      35.189  12.816  19.484  0.00  0.00     0.003 A 
HETATM   14  C   UNK N   1      35.909   7.333  14.838  0.00  0.00     0.003 A 
ENDROOT
BRANCH   2  15
HETATM   15  C   UNK N   1      35.553  12.547  14.000  0.00  0.00     0.272 C 
HETATM   16  O   UNK N   1      34.487  13.038  13.669  0.00  0.00    -0.264 OA
BRANCH  15  17
HETATM   17  O   UNK N   1      36.613  12.863  13.197  0.00  0.00    -0.319 OA
BRANCH  17  18
HETATM   18  C   UNK N   1      36.875  12.564  11.888  0.00  0.00     0.206 C 
BRANCH  18  19
HETATM   19  C   UNK N   1      36.810  13.840  11.039  0.00  0.00     0.263 C 
BRANCH  19  20
HETATM   20  N   UNK N   1      35.582  13.969  10.234  0.00  0.00    -0.070 N 
HETATM   21  C   UNK N   1      34.879  12.690  10.185  0.00  0.00     0.272 C 
BRANCH  20  22
HETATM   22  C   UNK N   1      36.000  14.320   8.867  0.00  0.00     0.232 C 
HETATM   23  C   UNK N   1      37.372  13.763   8.488  0.00  0.00     0.035 C 
ENDBRANCH  20  22
BRANCH  20  24
HETATM   24  C   UNK N   1      34.676  14.976  10.814  0.00  0.00     0.232 C 
HETATM   25  C   UNK N   1      35.367  16.297  11.152  0.00  0.00     0.035 C 
ENDBRANCH  20  24
ENDBRANCH  19  20
ENDBRANCH  18  19
ENDBRANCH  17  18
ENDBRANCH  15  17
ENDBRANCH   2  15
TORSDOF 7
ENDMDL
MODEL 8
REMARK VINA RESULT:      -5.9     14.765     16.743
REMARK  7 active torsions:
REMARK  status: ('A' for Active; 'I' for Inactive)
REMARK    1  A    between atoms: O_1  and  C_9 
REMARK    2  A    between atoms: O_1  and  C_13 
REMARK    3  A    between atoms: N_4  and  C_5 
REMARK    4  A    between atoms: N_4  and  C_6 
REMARK    5  A    between atoms: N_4  and  C_7 
REMARK    6  A    between atoms: C_5  and  C_9 
REMARK    7  A    between atoms: C_12  and  C_13 
ROOT
HETATM    1  O   UNK N   1      25.307  25.167  -6.721  0.00  0.00    -0.310 OA
HETATM    2  C   UNK N   1      27.662  24.462  -5.203  0.00  0.00     0.157 A 
HETATM    3  C   UNK N   1      26.813  25.708  -4.913  0.00  0.00    -0.006 A 
HETATM    4  C   UNK N   1      27.121  23.623  -6.379  0.00  0.00    -0.006 A 
HETATM    5  C   UNK N   1      25.672  25.981  -5.708  0.00  0.00     0.083 A 
HETATM    6  C   UNK N   1      25.962  24.043  -7.068  0.00  0.00     0.083 A 
HETATM    7  C   UNK N   1      27.114  26.603  -3.884  0.00  0.00     0.011 A 
HETATM    8  C   UNK N   1      27.750  22.437  -6.799  0.00  0.00     0.011 A 
HETATM    9  C   UNK N   1      24.887  27.111  -5.458  0.00  0.00     0.038 A 
HETATM   10  C   UNK N   1      25.467  23.289  -8.141  0.00  0.00     0.038 A 
HETATM   11  C   UNK N   1      26.330  27.730  -3.635  0.00  0.00     0.001 A 
HETATM   12  C   UNK N   1      27.249  21.691  -7.868  0.00  0.00     0.001 A 
HETATM   13  C   UNK N   1      25.213  27.985  -4.424  0.00  0.00     0.003 A 
HETATM   14  C   UNK N   1      26.107  22.118  -8.540  0.00  0.00     0.003 A 
ENDROOT
BRANCH   2  15
HETATM   15  C   UNK N   1      28.981  23.976  -4.503  0.00  0.00     0.272 C 
HETATM   16  O   UNK N   1      30.008  24.576  -4.769  0.00  0.00    -0.264 OA
BRANCH  15  17
HETATM   17  O   UNK N   1      29.118  22.962  -3.597  0.00  0.00    -0.319 OA
BRANCH  17  18
HETATM   18  C   UNK N   1      30.231  22.399  -3.032  0.00  0.00     0.206 C 
BRANCH  18  19
HETATM   19  C   UNK N   1      30.554  21.071  -3.729  0.00  0.00     0.263 C 
BRANCH  19  20
HETATM   20  N   UNK N   1      31.700  21.136  -4.653  0.00  0.00    -0.070 N 
HETATM   21  C   UNK N   1      32.441  19.878  -4.620  0.00  0.00     0.272 C 
BRANCH  20  22
HETATM   22  C   UNK N   1      32.585  22.207  -4.164  0.00  0.00     0.232 C 
HETATM   23  C   UNK N   1      33.325  22.942  -5.282  0.00  0.00     0.035 C 
ENDBRANCH  20  22
BRANCH  20  24
HETATM   24  C   UNK N   1      31.250  21.375  -6.035  0.00  0.00     0.232 C 
HETATM   25  C   UNK N   1      30.628  20.144  -6.696  0.00  0.00     0.035 C 
ENDBRANCH  20  24
ENDBRANCH  19  20
ENDBRANCH  18  19
ENDBRANCH  17  18
ENDBRANCH  15  17
ENDBRANCH   2  15
TORSDOF 7
ENDMDL
MODEL 9
REMARK VINA RESULT:      -5.8      5.976     10.299
REMARK  7 active torsions:
REMARK  status: ('A' for Active; 'I' for Inactive)
REMARK    1  A    between atoms: O_1  and  C_9 
REMARK    2  A    between atoms: O_1  and  C_13 
REMARK    3  A    between atoms: N_4  and  C_5 
REMARK    4  A    between atoms: N_4  and  C_6 
REMARK    5  A    between atoms: N_4  and  C_7 
REMARK    6  A    between atoms: C_5  and  C_9 
REMARK    7  A    between atoms: C_12  and  C_13 
ROOT
HETATM    1  O   UNK N   1      35.612   9.508  17.906  0.00  0.00    -0.310 OA
HETATM    2  C   UNK N   1      35.424  11.269  15.624  0.00  0.00     0.157 A 
HETATM    3  C   UNK N   1      35.593   9.748  15.504  0.00  0.00    -0.006 A 
HETATM    4  C   UNK N   1      35.353  11.755  17.086  0.00  0.00    -0.006 A 
HETATM    5  C   UNK N   1      35.678   8.956  16.676  0.00  0.00     0.083 A 
HETATM    6  C   UNK N   1      35.456  10.824  18.143  0.00  0.00     0.083 A 
HETATM    7  C   UNK N   1      35.667   9.092  14.273  0.00  0.00     0.011 A 
HETATM    8  C   UNK N   1      35.191  13.114  17.412  0.00  0.00     0.011 A 
HETATM    9  C   UNK N   1      35.832   7.569  16.586  0.00  0.00     0.038 A 
HETATM   10  C   UNK N   1      35.398  11.258  19.474  0.00  0.00     0.038 A 
HETATM   11  C   UNK N   1      35.820   7.708  14.184  0.00  0.00     0.001 A 
HETATM   12  C   UNK N   1      35.133  13.538  18.742  0.00  0.00     0.001 A 
HETATM   13  C   UNK N   1      35.903   6.944  15.343  0.00  0.00     0.003 A 
HETATM   14  C   UNK N   1      35.238  12.609  19.773  0.00  0.00     0.003 A 
ENDROOT
BRANCH   2  15
HETATM   15  C   UNK N   1      35.354  12.351  14.488  0.00  0.00     0.272 C 
HETATM   16  O   UNK N   1      34.255  12.606  14.025  0.00  0.00    -0.264 OA
BRANCH  15  17
HETATM   17  O   UNK N   1      36.388  13.075  13.963  0.00  0.00    -0.319 OA
BRANCH  17  18
HETATM   18  C   UNK N   1      36.402  14.123  13.083  0.00  0.00     0.206 C 
BRANCH  18  19
HETATM   19  C   UNK N   1      36.727  13.617  11.673  0.00  0.00     0.263 C 
BRANCH  19  20
HETATM   20  N   UNK N   1      35.609  13.728  10.718  0.00  0.00    -0.070 N 
HETATM   21  C   UNK N   1      34.632  14.699  11.203  0.00  0.00     0.272 C 
BRANCH  20  22
HETATM   22  C   UNK N   1      34.960  12.408  10.662  0.00  0.00     0.232 C 
HETATM   23  C   UNK N   1      35.917  11.247  10.936  0.00  0.00     0.035 C 
ENDBRANCH  20  22
BRANCH  20  24
HETATM   24  C   UNK N   1      36.087  14.169   9.396  0.00  0.00     0.232 C 
HETATM   25  C   UNK N   1      37.605  14.086   9.237  0.00  0.00     0.035 C 
ENDBRANCH  20  24
ENDBRANCH  19  20
ENDBRANCH  18  19
ENDBRANCH  17  18
ENDBRANCH  15  17
ENDBRANCH   2  15
TORSDOF 7
ENDMDL
