MODEL 1
REMARK VINA RESULT:      -6.5      0.000      0.000
REMARK  6 active torsions:
REMARK  status: ('A' for Active; 'I' for Inactive)
REMARK    1  A    between atoms: O_1  and  C_4 
REMARK    2  A    between atoms: N_2  and  C_10 
REMARK    3  A    between atoms: C_3  and  C_4 
REMARK    4  A    between atoms: C_4  and  C_9 
REMARK    5  A    between atoms: C_4  and  C_11 
REMARK    6  A    between atoms: C_9  and  C_10 
ROOT
HETATM    1  C   UNK N   1      35.544  11.688  15.674  0.00  0.00     0.090 C 
ENDROOT
BRANCH   1   2
HETATM    2  O   UNK N   1      36.868  11.287  15.466  0.00  0.00    -0.385 OA
HETATM    3  H   UNK N   1      37.302  10.605  16.001  0.00  0.00     0.211 HD
ENDBRANCH   1   2
BRANCH   1   4
HETATM    4  C   UNK N   1      34.648  10.471  15.288  0.00  0.00     0.025 C 
HETATM    5  C   UNK N   1      35.421   9.332  14.646  0.00  0.00     0.008 C 
HETATM    6  C   UNK N   1      35.294   9.543  13.157  0.00  0.00     0.001 C 
HETATM    7  C   UNK N   1      33.964  10.243  12.955  0.00  0.00     0.001 C 
HETATM    8  C   UNK N   1      33.521  10.773  14.314  0.00  0.00     0.008 C 
ENDBRANCH   1   4
BRANCH   1   9
HETATM    9  C   UNK N   1      35.289  12.908  14.750  0.00  0.00     0.073 C 
BRANCH   9  10
HETATM   10  C   UNK N   1      36.523  13.613  14.162  0.00  0.00     0.276 C 
BRANCH  10  11
HETATM   11  N   UNK N   1      36.493  13.677  12.710  0.00  0.00     0.088 N 
HETATM   12  C   UNK N   1      35.093  13.590  12.291  0.00  0.00     0.272 C 
HETATM   13  C   UNK N   1      34.997  13.638  10.768  0.00  0.00     0.030 C 
HETATM   14  C   UNK N   1      35.781  12.475  10.170  0.00  0.00     0.003 C 
HETATM   15  C   UNK N   1      37.214  12.484  10.691  0.00  0.00     0.030 C 
HETATM   16  C   UNK N   1      37.204  12.497  12.218  0.00  0.00     0.272 C 
ENDBRANCH  10  11
ENDBRANCH   9  10
ENDBRANCH   1   9
BRANCH   1  17
HETATM   17  C   UNK N   1      35.434  12.058  17.149  0.00  0.00    -0.024 A 
HETATM   18  C   UNK N   1      35.197  13.379  17.565  0.00  0.00     0.010 A 
HETATM   19  C   UNK N   1      35.077  13.684  18.925  0.00  0.00     0.001 A 
HETATM   20  C   UNK N   1      35.184  12.671  19.881  0.00  0.00     0.000 A 
HETATM   21  C   UNK N   1      35.414  11.353  19.480  0.00  0.00     0.001 A 
HETATM   22  C   UNK N   1      35.538  11.048  18.122  0.00  0.00     0.010 A 
ENDBRANCH   1  17
TORSDOF 6
ENDMDL
MODEL 2
REMARK VINA RESULT:      -6.3      1.713      2.467
REMARK  6 active torsions:
REMARK  status: ('A' for Active; 'I' for Inactive)
REMARK    1  A    between atoms: O_1  and  C_4 
REMARK    2  A    between atoms: N_2  and  C_10 
REMARK    3  A    between atoms: C_3  and  C_4 
REMARK    4  A    between atoms: C_4  and  C_9 
REMARK    5  A    between atoms: C_4  and  C_11 
REMARK    6  A    between atoms: C_9  and  C_10 
ROOT
HETATM    1  C   UNK N   1      36.218  12.636  14.640  0.00  0.00     0.090 C 
ENDROOT
BRANCH   1   2
HETATM    2  O   UNK N   1      37.518  12.179  14.401  0.00  0.00    -0.385 OA
HETATM    3  H   UNK N   1      38.276  12.434  14.950  0.00  0.00     0.211 HD
ENDBRANCH   1   2
BRANCH   1   4
HETATM    4  C   UNK N   1      35.381  11.391  15.061  0.00  0.00     0.025 C 
HETATM    5  C   UNK N   1      36.016  10.071  14.656  0.00  0.00     0.008 C 
HETATM    6  C   UNK N   1      35.382   9.703  13.336  0.00  0.00     0.001 C 
HETATM    7  C   UNK N   1      33.994  10.312  13.366  0.00  0.00     0.001 C 
HETATM    8  C   UNK N   1      33.970  11.331  14.500  0.00  0.00     0.008 C 
ENDBRANCH   1   4
BRANCH   1   9
HETATM    9  C   UNK N   1      35.704  13.254  13.312  0.00  0.00     0.073 C 
BRANCH   9  10
HETATM   10  C   UNK N   1      36.629  13.153  12.087  0.00  0.00     0.276 C 
BRANCH  10  11
HETATM   11  N   UNK N   1      36.484  14.281  11.182  0.00  0.00     0.088 N 
HETATM   12  C   UNK N   1      35.711  15.312  11.878  0.00  0.00     0.272 C 
HETATM   13  C   UNK N   1      35.513  16.522  10.968  0.00  0.00     0.030 C 
HETATM   14  C   UNK N   1      34.773  16.096   9.704  0.00  0.00     0.003 C 
HETATM   15  C   UNK N   1      35.506  14.940   9.030  0.00  0.00     0.030 C 
HETATM   16  C   UNK N   1      35.709  13.808  10.035  0.00  0.00     0.272 C 
ENDBRANCH  10  11
ENDBRANCH   9  10
ENDBRANCH   1   9
BRANCH   1  17
HETATM   17  C   UNK N   1      36.326  13.678  15.748  0.00  0.00    -0.024 A 
HETATM   18  C   UNK N   1      37.165  14.800  15.631  0.00  0.00     0.010 A 
HETATM   19  C   UNK N   1      37.224  15.751  16.655  0.00  0.00     0.001 A 
HETATM   20  C   UNK N   1      36.441  15.595  17.801  0.00  0.00     0.000 A 
HETATM   21  C   UNK N   1      35.600  14.487  17.927  0.00  0.00     0.001 A 
HETATM   22  C   UNK N   1      35.542  13.534  16.907  0.00  0.00     0.010 A 
ENDBRANCH   1  17
TORSDOF 6
ENDMDL
MODEL 3
REMARK VINA RESULT:      -5.9     21.545     24.999
REMARK  6 active torsions:
REMARK  status: ('A' for Active; 'I' for Inactive)
REMARK    1  A    between atoms: O_1  and  C_4 
REMARK    2  A    between atoms: N_2  and  C_10 
REMARK    3  A    between atoms: C_3  and  C_4 
REMARK    4  A    between atoms: C_4  and  C_9 
REMARK    5  A    between atoms: C_4  and  C_11 
REMARK    6  A    between atoms: C_9  and  C_10 
ROOT
HETATM    1  C   UNK N   1      27.342  25.184  -4.181  0.00  0.00     0.090 C 
ENDROOT
BRANCH   1   2
HETATM    2  O   UNK N   1      26.216  24.659  -3.542  0.00  0.00    -0.385 OA
HETATM    3  H   UNK N   1      25.462  25.204  -3.268  0.00  0.00     0.211 HD
ENDBRANCH   1   2
BRANCH   1   4
HETATM    4  C   UNK N   1      27.387  26.701  -3.824  0.00  0.00     0.025 C 
HETATM    5  C   UNK N   1      26.062  27.240  -3.311  0.00  0.00     0.008 C 
HETATM    6  C   UNK N   1      25.370  27.829  -4.516  0.00  0.00     0.001 C 
HETATM    7  C   UNK N   1      26.480  28.289  -5.441  0.00  0.00     0.001 C 
HETATM    8  C   UNK N   1      27.769  27.630  -4.964  0.00  0.00     0.008 C 
ENDBRANCH   1   4
BRANCH   1   9
HETATM    9  C   UNK N   1      27.148  24.957  -5.704  0.00  0.00     0.073 C 
BRANCH   9  10
HETATM   10  C   UNK N   1      25.939  24.108  -6.137  0.00  0.00     0.276 C 
BRANCH  10  11
HETATM   11  N   UNK N   1      26.318  22.771  -6.564  0.00  0.00     0.088 N 
HETATM   12  C   UNK N   1      27.680  22.845  -7.097  0.00  0.00     0.272 C 
HETATM   13  C   UNK N   1      28.130  21.467  -7.576  0.00  0.00     0.030 C 
HETATM   14  C   UNK N   1      27.184  20.970  -8.664  0.00  0.00     0.003 C 
HETATM   15  C   UNK N   1      25.744  21.001  -8.162  0.00  0.00     0.030 C 
HETATM   16  C   UNK N   1      25.410  22.400  -7.649  0.00  0.00     0.272 C 
ENDBRANCH  10  11
ENDBRANCH   9  10
ENDBRANCH   1   9
BRANCH   1  17
HETATM   17  C   UNK N   1      28.542  24.414  -3.639  0.00  0.00    -0.024 A 
HETATM   18  C   UNK N   1      29.832  24.581  -4.172  0.00  0.00     0.010 A 
HETATM   19  C   UNK N   1      30.916  23.878  -3.638  0.00  0.00     0.001 A 
HETATM   20  C   UNK N   1      30.725  23.008  -2.562  0.00  0.00     0.000 A 
HETATM   21  C   UNK N   1      29.449  22.837  -2.020  0.00  0.00     0.001 A 
HETATM   22  C   UNK N   1      28.364  23.536  -2.556  0.00  0.00     0.010 A 
ENDBRANCH   1  17
TORSDOF 6
ENDMDL
MODEL 4
REMARK VINA RESULT:      -5.8      1.697      3.438
REMARK  6 active torsions:
REMARK  status: ('A' for Active; 'I' for Inactive)
REMARK    1  A    between atoms: O_1  and  C_4 
REMARK    2  A    between atoms: N_2  and  C_10 
REMARK    3  A    between atoms: C_3  and  C_4 
REMARK    4  A    between atoms: C_4  and  C_9 
REMARK    5  A    between atoms: C_4  and  C_11 
REMARK    6  A    between atoms: C_9  and  C_10 
ROOT
HETATM    1  C   UNK N   1      35.314  12.137  15.563  0.00  0.00     0.090 C 
ENDROOT
BRANCH   1   2
HETATM    2  O   UNK N   1      34.309  13.039  15.201  0.00  0.00    -0.385 OA
HETATM    3  H   UNK N   1      33.372  12.894  15.403  0.00  0.00     0.211 HD
ENDBRANCH   1   2
BRANCH   1   4
HETATM    4  C   UNK N   1      36.649  12.713  15.003  0.00  0.00     0.025 C 
HETATM    5  C   UNK N   1      36.456  13.931  14.115  0.00  0.00     0.008 C 
HETATM    6  C   UNK N   1      36.415  13.402  12.702  0.00  0.00     0.001 C 
HETATM    7  C   UNK N   1      37.270  12.150  12.709  0.00  0.00     0.001 C 
HETATM    8  C   UNK N   1      37.476  11.750  14.166  0.00  0.00     0.008 C 
ENDBRANCH   1   4
BRANCH   1   9
HETATM    9  C   UNK N   1      34.956  10.774  14.913  0.00  0.00     0.073 C 
BRANCH   9  10
HETATM   10  C   UNK N   1      33.773  10.756  13.928  0.00  0.00     0.276 C 
BRANCH  10  11
HETATM   11  N   UNK N   1      33.989   9.851  12.811  0.00  0.00     0.088 N 
HETATM   12  C   UNK N   1      35.189   9.065  13.102  0.00  0.00     0.272 C 
HETATM   13  C   UNK N   1      35.476   8.102  11.953  0.00  0.00     0.030 C 
HETATM   14  C   UNK N   1      35.685   8.891  10.665  0.00  0.00     0.003 C 
HETATM   15  C   UNK N   1      34.491   9.806  10.410  0.00  0.00     0.030 C 
HETATM   16  C   UNK N   1      34.248  10.683  11.636  0.00  0.00     0.272 C 
ENDBRANCH  10  11
ENDBRANCH   9  10
ENDBRANCH   1   9
BRANCH   1  17
HETATM   17  C   UNK N   1      35.296  12.062  17.086  0.00  0.00    -0.024 A 
HETATM   18  C   UNK N   1      35.480  10.849  17.771  0.00  0.00     0.010 A 
HETATM   19  C   UNK N   1      35.482  10.817  19.170  0.00  0.00     0.001 A 
HETATM   20  C   UNK N   1      35.308  11.997  19.897  0.00  0.00     0.000 A 
HETATM   21  C   UNK N   1      35.129  13.210  19.228  0.00  0.00     0.001 A 
HETATM   22  C   UNK N   1      35.123  13.243  17.831  0.00  0.00     0.010 A 
ENDBRANCH   1  17
TORSDOF 6
ENDMDL
MODEL 5
REMARK VINA RESULT:      -5.8     20.902     24.542
REMARK  6 active torsions:
REMARK  status: ('A' for Active; 'I' for Inactive)
REMARK    1  A    between atoms: O_1  and  C_4 
REMARK    2  A    between atoms: N_2  and  C_10 
REMARK    3  A    between atoms: C_3  and  C_4 
REMARK    4  A    between atoms: C_4  and  C_9 
REMARK    5  A    between atoms: C_4  and  C_11 
REMARK    6  A    between atoms: C_9  and  C_10 
ROOT
HETATM    1  C   UNK N   1      27.025  24.781  -4.067  0.00  0.00     0.090 C 
ENDROOT
BRANCH   1   2
HETATM    2  O   UNK N   1      26.517  24.416  -2.817  0.00  0.00    -0.385 OA
HETATM    3  H   UNK N   1      26.168  23.531  -2.628  0.00  0.00     0.211 HD
ENDBRANCH   1   2
BRANCH   1   4
HETATM    4  C   UNK N   1      26.002  24.273  -5.127  0.00  0.00     0.025 C 
HETATM    5  C   UNK N   1      26.624  23.383  -6.191  0.00  0.00     0.008 C 
HETATM    6  C   UNK N   1      26.945  24.298  -7.348  0.00  0.00     0.001 C 
HETATM    7  C   UNK N   1      25.920  25.413  -7.285  0.00  0.00     0.001 C 
HETATM    8  C   UNK N   1      25.273  25.356  -5.906  0.00  0.00     0.008 C 
ENDBRANCH   1   4
BRANCH   1   9
HETATM    9  C   UNK N   1      28.404  24.085  -4.218  0.00  0.00     0.073 C 
BRANCH   9  10
HETATM   10  C   UNK N   1      29.045  23.515  -2.940  0.00  0.00     0.276 C 
BRANCH  10  11
HETATM   11  N   UNK N   1      29.881  22.355  -3.203  0.00  0.00     0.088 N 
HETATM   12  C   UNK N   1      31.233  22.669  -2.737  0.00  0.00     0.272 C 
HETATM   13  C   UNK N   1      32.166  21.489  -3.000  0.00  0.00     0.030 C 
HETATM   14  C   UNK N   1      32.199  21.187  -4.494  0.00  0.00     0.003 C 
HETATM   15  C   UNK N   1      30.783  20.974  -5.019  0.00  0.00     0.030 C 
HETATM   16  C   UNK N   1      29.915  22.177  -4.654  0.00  0.00     0.272 C 
ENDBRANCH  10  11
ENDBRANCH   9  10
ENDBRANCH   1   9
BRANCH   1  17
HETATM   17  C   UNK N   1      27.154  26.301  -4.052  0.00  0.00    -0.024 A 
HETATM   18  C   UNK N   1      28.172  26.966  -4.756  0.00  0.00     0.010 A 
HETATM   19  C   UNK N   1      28.250  28.362  -4.741  0.00  0.00     0.001 A 
HETATM   20  C   UNK N   1      27.306  29.107  -4.031  0.00  0.00     0.000 A 
HETATM   21  C   UNK N   1      26.286  28.459  -3.331  0.00  0.00     0.001 A 
HETATM   22  C   UNK N   1      26.210  27.064  -3.341  0.00  0.00     0.010 A 
ENDBRANCH   1  17
TORSDOF 6
ENDMDL
MODEL 6
REMARK VINA RESULT:      -5.8     21.476     25.646
REMARK  6 active torsions:
REMARK  status: ('A' for Active; 'I' for Inactive)
REMARK    1  A    between atoms: O_1  and  C_4 
REMARK    2  A    between atoms: N_2  and  C_10 
REMARK    3  A    between atoms: C_3  and  C_4 
REMARK    4  A    between atoms: C_4  and  C_9 
REMARK    5  A    between atoms: C_4  and  C_11 
REMARK    6  A    between atoms: C_9  and  C_10 
ROOT
HETATM    1  C   UNK N   1      26.858  24.384  -6.535  0.00  0.00     0.090 C 
ENDROOT
BRANCH   1   2
HETATM    2  O   UNK N   1      28.060  24.715  -7.169  0.00  0.00    -0.385 OA
HETATM    3  H   UNK N   1      28.904  24.291  -6.951  0.00  0.00     0.211 HD
ENDBRANCH   1   2
BRANCH   1   4
HETATM    4  C   UNK N   1      25.855  25.533  -6.861  0.00  0.00     0.025 C 
HETATM    5  C   UNK N   1      26.501  26.718  -7.559  0.00  0.00     0.008 C 
HETATM    6  C   UNK N   1      26.838  27.700  -6.463  0.00  0.00     0.001 C 
HETATM    7  C   UNK N   1      25.806  27.470  -5.376  0.00  0.00     0.001 C 
HETATM    8  C   UNK N   1      25.136  26.132  -5.664  0.00  0.00     0.008 C 
ENDBRANCH   1   4
BRANCH   1   9
HETATM    9  C   UNK N   1      27.155  24.293  -5.015  0.00  0.00     0.073 C 
BRANCH   9  10
HETATM   10  C   UNK N   1      28.612  24.516  -4.571  0.00  0.00     0.276 C 
BRANCH  10  11
HETATM   11  N   UNK N   1      29.193  23.338  -3.948  0.00  0.00     0.088 N 
HETATM   12  C   UNK N   1      30.305  23.785  -3.107  0.00  0.00     0.272 C 
HETATM   13  C   UNK N   1      30.967  22.586  -2.433  0.00  0.00     0.030 C 
HETATM   14  C   UNK N   1      31.488  21.625  -3.497  0.00  0.00     0.003 C 
HETATM   15  C   UNK N   1      30.364  21.242  -4.455  0.00  0.00     0.030 C 
HETATM   16  C   UNK N   1      29.726  22.507  -5.027  0.00  0.00     0.272 C 
ENDBRANCH  10  11
ENDBRANCH   9  10
ENDBRANCH   1   9
BRANCH   1  17
HETATM   17  C   UNK N   1      26.424  23.041  -7.112  0.00  0.00    -0.024 A 
HETATM   18  C   UNK N   1      27.273  22.278  -7.933  0.00  0.00     0.010 A 
HETATM   19  C   UNK N   1      26.856  21.038  -8.427  0.00  0.00     0.001 A 
HETATM   20  C   UNK N   1      25.591  20.544  -8.100  0.00  0.00     0.000 A 
HETATM   21  C   UNK N   1      24.740  21.290  -7.281  0.00  0.00     0.001 A 
HETATM   22  C   UNK N   1      25.154  22.531  -6.790  0.00  0.00     0.010 A 
ENDBRANCH   1  17
TORSDOF 6
ENDMDL
MODEL 7
REMARK VINA RESULT:      -5.7      2.014      4.869
REMARK  6 active torsions:
REMARK  status: ('A' for Active; 'I' for Inactive)
REMARK    1  A    between atoms: O_1  and  C_4 
REMARK    2  A    between atoms: N_2  and  C_10 
REMARK    3  A    between atoms: C_3  and  C_4 
REMARK    4  A    between atoms: C_4  and  C_9 
REMARK    5  A    between atoms: C_4  and  C_11 
REMARK    6  A    between atoms: C_9  and  C_10 
ROOT
HETATM    1  C   UNK N   1      35.943  12.802  14.319  0.00  0.00     0.090 C 
ENDROOT
BRANCH   1   2
HETATM    2  O   UNK N   1      34.567  12.591  14.181  0.00  0.00    -0.385 OA
HETATM    3  H   UNK N   1      34.194  11.808  13.747  0.00  0.00     0.211 HD
ENDBRANCH   1   2
BRANCH   1   4
HETATM    4  C   UNK N   1      36.421  13.478  12.998  0.00  0.00     0.025 C 
HETATM    5  C   UNK N   1      35.280  13.970  12.124  0.00  0.00     0.008 C 
HETATM    6  C   UNK N   1      35.019  12.860  11.134  0.00  0.00     0.001 C 
HETATM    7  C   UNK N   1      36.352  12.161  10.943  0.00  0.00     0.001 C 
HETATM    8  C   UNK N   1      37.262  12.603  12.083  0.00  0.00     0.008 C 
ENDBRANCH   1   4
BRANCH   1   9
HETATM    9  C   UNK N   1      36.597  11.410  14.523  0.00  0.00     0.073 C 
BRANCH   9  10
HETATM   10  C   UNK N   1      35.657  10.192  14.566  0.00  0.00     0.276 C 
BRANCH  10  11
HETATM   11  N   UNK N   1      35.644   9.540  15.865  0.00  0.00     0.088 N 
HETATM   12  C   UNK N   1      34.517  10.085  16.624  0.00  0.00     0.272 C 
HETATM   13  C   UNK N   1      34.460   9.446  18.009  0.00  0.00     0.030 C 
HETATM   14  C   UNK N   1      35.761   9.726  18.756  0.00  0.00     0.003 C 
HETATM   15  C   UNK N   1      36.954   9.269  17.922  0.00  0.00     0.030 C 
HETATM   16  C   UNK N   1      36.888   9.913  16.539  0.00  0.00     0.272 C 
ENDBRANCH  10  11
ENDBRANCH   9  10
ENDBRANCH   1   9
BRANCH   1  17
HETATM   17  C   UNK N   1      36.120  13.699  15.540  0.00  0.00    -0.024 A 
HETATM   18  C   UNK N   1      35.400  13.484  16.728  0.00  0.00     0.010 A 
HETATM   19  C   UNK N   1      35.602  14.309  17.838  0.00  0.00     0.001 A 
HETATM   20  C   UNK N   1      36.531  15.351  17.776  0.00  0.00     0.000 A 
HETATM   21  C   UNK N   1      37.256  15.571  16.603  0.00  0.00     0.001 A 
HETATM   22  C   UNK N   1      37.052  14.751  15.491  0.00  0.00     0.010 A 
ENDBRANCH   1  17
TORSDOF 6
ENDMDL
MODEL 8
REMARK VINA RESULT:      -5.7     24.527     25.918
REMARK  6 active torsions:
REMARK  status: ('A' for Active; 'I' for Inactive)
REMARK    1  A    between atoms: O_1  and  C_4 
REMARK    2  A    between atoms: N_2  and  C_10 
REMARK    3  A    between atoms: C_3  and  C_4 
REMARK    4  A    between atoms: C_4  and  C_9 
REMARK    5  A    between atoms: C_4  and  C_11 
REMARK    6  A    between atoms: C_9  and  C_10 
ROOT
HETATM    1  C   UNK N   1      27.321  28.096  -3.647  0.00  0.00     0.090 C 
ENDROOT
BRANCH   1   2
HETATM    2  O   UNK N   1      26.240  28.016  -2.764  0.00  0.00    -0.385 OA
HETATM    3  H   UNK N   1      26.171  28.560  -1.964  0.00  0.00     0.211 HD
ENDBRANCH   1   2
BRANCH   1   4
HETATM    4  C   UNK N   1      26.858  28.995  -4.833  0.00  0.00     0.025 C 
HETATM    5  C   UNK N   1      27.171  28.403  -6.197  0.00  0.00     0.008 C 
HETATM    6  C   UNK N   1      28.486  29.015  -6.613  0.00  0.00     0.001 C 
HETATM    7  C   UNK N   1      28.532  30.377  -5.950  0.00  0.00     0.001 C 
HETATM    8  C   UNK N   1      27.457  30.391  -4.869  0.00  0.00     0.008 C 
ENDBRANCH   1   4
BRANCH   1   9
HETATM    9  C   UNK N   1      27.639  26.649  -4.109  0.00  0.00     0.073 C 
BRANCH   9  10
HETATM   10  C   UNK N   1      26.707  25.532  -3.607  0.00  0.00     0.276 C 
BRANCH  10  11
HETATM   11  N   UNK N   1      26.820  24.314  -4.392  0.00  0.00     0.088 N 
HETATM   12  C   UNK N   1      28.137  24.320  -5.032  0.00  0.00     0.272 C 
HETATM   13  C   UNK N   1      28.311  23.066  -5.885  0.00  0.00     0.030 C 
HETATM   14  C   UNK N   1      27.224  23.020  -6.954  0.00  0.00     0.003 C 
HETATM   15  C   UNK N   1      25.846  23.133  -6.309  0.00  0.00     0.030 C 
HETATM   16  C   UNK N   1      25.793  24.381  -5.431  0.00  0.00     0.272 C 
ENDBRANCH  10  11
ENDBRANCH   9  10
ENDBRANCH   1   9
BRANCH   1  17
HETATM   17  C   UNK N   1      28.475  28.707  -2.858  0.00  0.00    -0.024 A 
HETATM   18  C   UNK N   1      28.255  29.609  -1.802  0.00  0.00     0.010 A 
HETATM   19  C   UNK N   1      29.333  30.134  -1.083  0.00  0.00     0.001 A 
HETATM   20  C   UNK N   1      30.639  29.758  -1.405  0.00  0.00     0.000 A 
HETATM   21  C   UNK N   1      30.870  28.859  -2.448  0.00  0.00     0.001 A 
HETATM   22  C   UNK N   1      29.795  28.337  -3.171  0.00  0.00     0.010 A 
ENDBRANCH   1  17
TORSDOF 6
ENDMDL
MODEL 9
REMARK VINA RESULT:      -5.6     21.703     25.035
REMARK  6 active torsions:
REMARK  status: ('A' for Active; 'I' for Inactive)
REMARK    1  A    between atoms: O_1  and  C_4 
REMARK    2  A    between atoms: N_2  and  C_10 
REMARK    3  A    between atoms: C_3  and  C_4 
REMARK    4  A    between atoms: C_4  and  C_9 
REMARK    5  A    between atoms: C_4  and  C_11 
REMARK    6  A    between atoms: C_9  and  C_10 
ROOT
HETATM    1  C   UNK N   1      28.682  23.535  -5.602  0.00  0.00     0.090 C 
ENDROOT
BRANCH   1   2
HETATM    2  O   UNK N   1      29.424  24.361  -6.453  0.00  0.00    -0.385 OA
HETATM    3  H   UNK N   1      29.311  25.323  -6.483  0.00  0.00     0.211 HD
ENDBRANCH   1   2
BRANCH   1   4
HETATM    4  C   UNK N   1      27.408  23.113  -6.395  0.00  0.00     0.025 C 
HETATM    5  C   UNK N   1      27.412  23.585  -7.840  0.00  0.00     0.008 C 
HETATM    6  C   UNK N   1      26.646  24.885  -7.845  0.00  0.00     0.001 C 
HETATM    7  C   UNK N   1      25.648  24.776  -6.709  0.00  0.00     0.001 C 
HETATM    8  C   UNK N   1      26.090  23.613  -5.828  0.00  0.00     0.008 C 
ENDBRANCH   1   4
BRANCH   1   9
HETATM    9  C   UNK N   1      28.328  24.377  -4.348  0.00  0.00     0.073 C 
BRANCH   9  10
HETATM   10  C   UNK N   1      29.038  25.733  -4.190  0.00  0.00     0.276 C 
BRANCH  10  11
HETATM   11  N   UNK N   1      28.106  26.842  -4.067  0.00  0.00     0.088 N 
HETATM   12  C   UNK N   1      26.849  26.308  -3.540  0.00  0.00     0.272 C 
HETATM   13  C   UNK N   1      25.821  27.429  -3.401  0.00  0.00     0.030 C 
HETATM   14  C   UNK N   1      25.572  28.065  -4.765  0.00  0.00     0.003 C 
HETATM   15  C   UNK N   1      26.891  28.520  -5.382  0.00  0.00     0.030 C 
HETATM   16  C   UNK N   1      27.870  27.348  -5.419  0.00  0.00     0.272 C 
ENDBRANCH  10  11
ENDBRANCH   9  10
ENDBRANCH   1   9
BRANCH   1  17
HETATM   17  C   UNK N   1      29.582  22.353  -5.259  0.00  0.00    -0.024 A 
HETATM   18  C   UNK N   1      30.022  21.447  -6.240  0.00  0.00     0.010 A 
HETATM   19  C   UNK N   1      30.866  20.386  -5.898  0.00  0.00     0.001 A 
HETATM   20  C   UNK N   1      31.287  20.224  -4.576  0.00  0.00     0.000 A 
HETATM   21  C   UNK N   1      30.862  21.121  -3.593  0.00  0.00     0.001 A 
HETATM   22  C   UNK N   1      30.014  22.179  -3.932  0.00  0.00     0.010 A 
ENDBRANCH   1  17
TORSDOF 6
ENDMDL
