MODEL 1
REMARK VINA RESULT:      -5.7      0.000      0.000
REMARK  4 active torsions:
REMARK  status: ('A' for Active; 'I' for Inactive)
REMARK    1  A    between atoms: O_2  and  C_12 
REMARK    2  A    between atoms: C_8  and  N_4 
REMARK    3  A    between atoms: N_7  and  C_16 
REMARK    4  A    between atoms: C_11  and  C_12 
ROOT
HETATM    1  O   UNK N   1      26.433  24.634  -3.212  0.00  0.00    -0.246 OA
HETATM    2  N   UNK N   1      26.273  25.564  -5.275  0.00  0.00    -0.282 N 
HETATM    3  N   UNK N   1      26.212  26.854  -3.271  0.00  0.00    -0.295 N 
ATOM      4  HN  UNK N   1      26.241  26.902  -2.253  1.00  0.00     0.172 HD
HETATM    5  C   UNK N   1      26.137  26.704  -6.004  0.00  0.00     0.102 A 
HETATM    6  C   UNK N   1      26.312  25.637  -3.890  0.00  0.00     0.330 A 
HETATM    7  C   UNK N   1      26.036  27.943  -5.377  0.00  0.00     0.065 A 
HETATM    8  C   UNK N   1      26.076  27.994  -3.988  0.00  0.00     0.103 A 
ENDROOT
BRANCH   2   9
HETATM    9  C   UNK N   1      26.376  24.286  -5.990  0.00  0.00     0.232 A 
HETATM   10  O   UNK N   1      25.201  23.593  -6.306  0.00  0.00    -0.359 OA
HETATM   11  C   UNK N   1      25.697  22.467  -6.969  0.00  0.00     0.147 A 
HETATM   12  C   UNK N   1      27.206  22.384  -7.092  0.00  0.00     0.038 A 
HETATM   13  C   UNK N   1      27.675  23.641  -6.423  0.00  0.00     0.057 A 
BRANCH  11  14
HETATM   14  C   UNK N   1      24.734  21.418  -7.486  0.00  0.00     0.196 C 
BRANCH  14  15
HETATM   15  O   UNK N   1      23.632  22.036  -8.076  0.00  0.00    -0.398 OA
HETATM   16  H   UNK N   1      23.666  22.980  -8.297  0.00  0.00     0.209 HD
ENDBRANCH  14  15
ENDBRANCH  11  14
ENDBRANCH   2   9
BRANCH   8  17
HETATM   17  N   UNK N   1      25.976  29.233  -3.327  0.00  0.00    -0.385 N 
HETATM   18  H   UNK N   1      25.371  29.332  -2.557  0.00  0.00     0.157 HD
HETATM   19  H   UNK N   1      26.511  30.000  -3.636  0.00  0.00     0.157 HD
ENDBRANCH   8  17
TORSDOF 4
ENDMDL
MODEL 2
REMARK VINA RESULT:      -5.5     10.453     12.058
REMARK  4 active torsions:
REMARK  status: ('A' for Active; 'I' for Inactive)
REMARK    1  A    between atoms: O_2  and  C_12 
REMARK    2  A    between atoms: C_8  and  N_4 
REMARK    3  A    between atoms: N_7  and  C_16 
REMARK    4  A    between atoms: C_11  and  C_12 
ROOT
HETATM    1  O   UNK N   1      22.322  21.573   2.708  0.00  0.00    -0.246 OA
HETATM    2  N   UNK N   1      22.788  19.440   3.320  0.00  0.00    -0.282 N 
HETATM    3  N   UNK N   1      20.622  20.132   2.605  0.00  0.00    -0.295 N 
ATOM      4  HN  UNK N   1      19.996  20.866   2.274  1.00  0.00     0.172 HD
HETATM    5  C   UNK N   1      22.318  18.174   3.492  0.00  0.00     0.102 A 
HETATM    6  C   UNK N   1      21.931  20.433   2.871  0.00  0.00     0.330 A 
HETATM    7  C   UNK N   1      20.988  17.865   3.222  0.00  0.00     0.065 A 
HETATM    8  C   UNK N   1      20.145  18.876   2.772  0.00  0.00     0.103 A 
ENDROOT
BRANCH   2   9
HETATM    9  C   UNK N   1      24.200  19.707   3.621  0.00  0.00     0.232 A 
HETATM   10  O   UNK N   1      24.699  19.358   4.881  0.00  0.00    -0.359 OA
HETATM   11  C   UNK N   1      26.037  19.751   4.782  0.00  0.00     0.147 A 
HETATM   12  C   UNK N   1      26.446  20.378   3.464  0.00  0.00     0.038 A 
HETATM   13  C   UNK N   1      25.182  20.343   2.660  0.00  0.00     0.057 A 
BRANCH  11  14
HETATM   14  C   UNK N   1      26.964  19.556   5.964  0.00  0.00     0.196 C 
BRANCH  14  15
HETATM   15  O   UNK N   1      26.519  20.316   7.046  0.00  0.00    -0.398 OA
HETATM   16  H   UNK N   1      25.571  20.385   7.233  0.00  0.00     0.209 HD
ENDBRANCH  14  15
ENDBRANCH  11  14
ENDBRANCH   2   9
BRANCH   8  17
HETATM   17  N   UNK N   1      18.795  18.593   2.491  0.00  0.00    -0.385 N 
HETATM   18  H   UNK N   1      18.547  18.183   1.631  0.00  0.00     0.157 HD
HETATM   19  H   UNK N   1      18.099  18.804   3.156  0.00  0.00     0.157 HD
ENDBRANCH   8  17
TORSDOF 4
ENDMDL
MODEL 3
REMARK VINA RESULT:      -5.4     17.702     18.876
REMARK  4 active torsions:
REMARK  status: ('A' for Active; 'I' for Inactive)
REMARK    1  A    between atoms: O_2  and  C_12 
REMARK    2  A    between atoms: C_8  and  N_4 
REMARK    3  A    between atoms: N_7  and  C_16 
REMARK    4  A    between atoms: C_11  and  C_12 
ROOT
HETATM    1  O   UNK N   1      19.441  13.931   9.915  0.00  0.00    -0.246 OA
HETATM    2  N   UNK N   1      21.543  13.912   9.064  0.00  0.00    -0.282 N 
HETATM    3  N   UNK N   1      20.942  12.723  11.041  0.00  0.00    -0.295 N 
ATOM      4  HN  UNK N   1      20.236  12.454  11.727  1.00  0.00     0.172 HD
HETATM    5  C   UNK N   1      22.820  13.458   9.189  0.00  0.00     0.102 A 
HETATM    6  C   UNK N   1      20.590  13.541  10.001  0.00  0.00     0.330 A 
HETATM    7  C   UNK N   1      23.180  12.626  10.246  0.00  0.00     0.065 A 
HETATM    8  C   UNK N   1      22.209  12.266  11.174  0.00  0.00     0.103 A 
ENDROOT
BRANCH   2   9
HETATM    9  C   UNK N   1      21.222  14.786   7.929  0.00  0.00     0.232 A 
HETATM   10  O   UNK N   1      21.553  16.144   8.009  0.00  0.00    -0.359 OA
HETATM   11  C   UNK N   1      21.108  16.623   6.773  0.00  0.00     0.147 A 
HETATM   12  C   UNK N   1      20.463  15.599   5.859  0.00  0.00     0.038 A 
HETATM   13  C   UNK N   1      20.547  14.331   6.653  0.00  0.00     0.057 A 
BRANCH  11  14
HETATM   14  C   UNK N   1      21.268  18.092   6.439  0.00  0.00     0.196 C 
BRANCH  14  15
HETATM   15  O   UNK N   1      20.744  18.873   7.468  0.00  0.00    -0.398 OA
HETATM   16  H   UNK N   1      20.862  18.601   8.391  0.00  0.00     0.209 HD
ENDBRANCH  14  15
ENDBRANCH  11  14
ENDBRANCH   2   9
BRANCH   8  17
HETATM   17  N   UNK N   1      22.544  11.427  12.253  0.00  0.00    -0.385 N 
HETATM   18  H   UNK N   1      22.434  11.746  13.178  0.00  0.00     0.157 HD
HETATM   19  H   UNK N   1      22.888  10.520  12.082  0.00  0.00     0.157 HD
ENDBRANCH   8  17
TORSDOF 4
ENDMDL
MODEL 4
REMARK VINA RESULT:      -5.3     25.244     26.676
REMARK  4 active torsions:
REMARK  status: ('A' for Active; 'I' for Inactive)
REMARK    1  A    between atoms: O_2  and  C_12 
REMARK    2  A    between atoms: C_8  and  N_4 
REMARK    3  A    between atoms: N_7  and  C_16 
REMARK    4  A    between atoms: C_11  and  C_12 
ROOT
HETATM    1  O   UNK N   1      37.478  14.592  15.923  0.00  0.00    -0.246 OA
HETATM    2  N   UNK N   1      35.987  13.143  15.017  0.00  0.00    -0.282 N 
HETATM    3  N   UNK N   1      36.819  15.041  13.839  0.00  0.00    -0.295 N 
ATOM      4  HN  UNK N   1      37.413  15.870  13.810  1.00  0.00     0.172 HD
HETATM    5  C   UNK N   1      35.231  12.812  13.934  0.00  0.00     0.102 A 
HETATM    6  C   UNK N   1      36.792  14.271  14.971  0.00  0.00     0.330 A 
HETATM    7  C   UNK N   1      35.258  13.593  12.782  0.00  0.00     0.065 A 
HETATM    8  C   UNK N   1      36.072  14.720  12.757  0.00  0.00     0.103 A 
ENDROOT
BRANCH   2   9
HETATM    9  C   UNK N   1      35.919  12.282  16.204  0.00  0.00     0.232 A 
HETATM   10  O   UNK N   1      35.375  12.803  17.384  0.00  0.00    -0.359 OA
HETATM   11  C   UNK N   1      35.476  11.714  18.255  0.00  0.00     0.147 A 
HETATM   12  C   UNK N   1      36.099  10.459  17.675  0.00  0.00     0.038 A 
HETATM   13  C   UNK N   1      36.399  10.848  16.259  0.00  0.00     0.057 A 
BRANCH  11  14
HETATM   14  C   UNK N   1      34.996  11.851  19.685  0.00  0.00     0.196 C 
BRANCH  14  15
HETATM   15  O   UNK N   1      35.766  12.802  20.354  0.00  0.00    -0.398 OA
HETATM   16  H   UNK N   1      35.635  12.952  21.303  0.00  0.00     0.209 HD
ENDBRANCH  14  15
ENDBRANCH  11  14
ENDBRANCH   2   9
BRANCH   8  17
HETATM   17  N   UNK N   1      36.118  15.528  11.605  0.00  0.00    -0.385 N 
HETATM   18  H   UNK N   1      36.557  16.409  11.639  0.00  0.00     0.157 HD
HETATM   19  H   UNK N   1      35.711  15.212  10.766  0.00  0.00     0.157 HD
ENDBRANCH   8  17
TORSDOF 4
ENDMDL
MODEL 5
REMARK VINA RESULT:      -5.3     20.053     21.459
REMARK  4 active torsions:
REMARK  status: ('A' for Active; 'I' for Inactive)
REMARK    1  A    between atoms: O_2  and  C_12 
REMARK    2  A    between atoms: C_8  and  N_4 
REMARK    3  A    between atoms: N_7  and  C_16 
REMARK    4  A    between atoms: C_11  and  C_12 
ROOT
HETATM    1  O   UNK N   1      37.612  14.471   9.678  0.00  0.00    -0.246 OA
HETATM    2  N   UNK N   1      35.622  14.610  10.756  0.00  0.00    -0.282 N 
HETATM    3  N   UNK N   1      37.518  13.505  11.687  0.00  0.00    -0.295 N 
ATOM      4  HN  UNK N   1      38.492  13.212  11.611  1.00  0.00     0.172 HD
HETATM    5  C   UNK N   1      34.904  14.301  11.870  0.00  0.00     0.102 A 
HETATM    6  C   UNK N   1      36.946  14.209  10.661  0.00  0.00     0.330 A 
HETATM    7  C   UNK N   1      35.484  13.586  12.914  0.00  0.00     0.065 A 
HETATM    8  C   UNK N   1      36.813  13.192  12.799  0.00  0.00     0.103 A 
ENDROOT
BRANCH   2   9
HETATM    9  C   UNK N   1      34.958  15.366   9.687  0.00  0.00     0.232 A 
HETATM   10  O   UNK N   1      35.164  16.749   9.611  0.00  0.00    -0.359 OA
HETATM   11  C   UNK N   1      34.395  17.095   8.495  0.00  0.00     0.147 A 
HETATM   12  C   UNK N   1      33.658  15.955   7.820  0.00  0.00     0.038 A 
HETATM   13  C   UNK N   1      34.050  14.762   8.638  0.00  0.00     0.057 A 
BRANCH  11  14
HETATM   14  C   UNK N   1      34.328  18.542   8.053  0.00  0.00     0.196 C 
BRANCH  14  15
HETATM   15  O   UNK N   1      35.381  19.261   8.618  0.00  0.00    -0.398 OA
HETATM   16  H   UNK N   1      35.480  19.297   9.582  0.00  0.00     0.209 HD
ENDBRANCH  14  15
ENDBRANCH  11  14
ENDBRANCH   2   9
BRANCH   8  17
HETATM   17  N   UNK N   1      37.425  12.468  13.839  0.00  0.00    -0.385 N 
HETATM   18  H   UNK N   1      37.069  11.588  14.102  0.00  0.00     0.157 HD
HETATM   19  H   UNK N   1      38.209  12.842  14.304  0.00  0.00     0.157 HD
ENDBRANCH   8  17
TORSDOF 4
ENDMDL
MODEL 6
REMARK VINA RESULT:      -5.3     24.045     25.339
REMARK  4 active torsions:
REMARK  status: ('A' for Active; 'I' for Inactive)
REMARK    1  A    between atoms: O_2  and  C_12 
REMARK    2  A    between atoms: C_8  and  N_4 
REMARK    3  A    between atoms: N_7  and  C_16 
REMARK    4  A    between atoms: C_11  and  C_12 
ROOT
HETATM    1  O   UNK N   1      37.627  15.295  15.639  0.00  0.00    -0.246 OA
HETATM    2  N   UNK N   1      36.109  13.654  15.256  0.00  0.00    -0.282 N 
HETATM    3  N   UNK N   1      36.381  14.687  17.388  0.00  0.00    -0.295 N 
ATOM      4  HN  UNK N   1      36.852  15.368  17.983  1.00  0.00     0.172 HD
HETATM    5  C   UNK N   1      35.127  12.865  15.772  0.00  0.00     0.102 A 
HETATM    6  C   UNK N   1      36.746  14.577  16.072  0.00  0.00     0.330 A 
HETATM    7  C   UNK N   1      34.755  12.975  17.109  0.00  0.00     0.065 A 
HETATM    8  C   UNK N   1      35.405  13.907  17.910  0.00  0.00     0.103 A 
ENDROOT
BRANCH   2   9
HETATM    9  C   UNK N   1      36.460  13.494  13.840  0.00  0.00     0.232 A 
HETATM   10  O   UNK N   1      36.203  14.550  12.958  0.00  0.00    -0.359 OA
HETATM   11  C   UNK N   1      36.667  14.033  11.744  0.00  0.00     0.147 A 
HETATM   12  C   UNK N   1      37.226  12.624  11.795  0.00  0.00     0.038 A 
HETATM   13  C   UNK N   1      37.089  12.254  13.241  0.00  0.00     0.057 A 
BRANCH  11  14
HETATM   14  C   UNK N   1      36.567  14.872  10.487  0.00  0.00     0.196 C 
BRANCH  14  15
HETATM   15  O   UNK N   1      36.822  16.210  10.788  0.00  0.00    -0.398 OA
HETATM   16  H   UNK N   1      37.260  16.778  10.136  0.00  0.00     0.209 HD
ENDBRANCH  14  15
ENDBRANCH  11  14
ENDBRANCH   2   9
BRANCH   8  17
HETATM   17  N   UNK N   1      35.049  14.040  19.265  0.00  0.00    -0.385 N 
HETATM   18  H   UNK N   1      34.141  14.330  19.510  0.00  0.00     0.157 HD
HETATM   19  H   UNK N   1      35.710  13.843  19.969  0.00  0.00     0.157 HD
ENDBRANCH   8  17
TORSDOF 4
ENDMDL
MODEL 7
REMARK VINA RESULT:      -5.3     15.598     17.085
REMARK  4 active torsions:
REMARK  status: ('A' for Active; 'I' for Inactive)
REMARK    1  A    between atoms: O_2  and  C_12 
REMARK    2  A    between atoms: C_8  and  N_4 
REMARK    3  A    between atoms: N_7  and  C_16 
REMARK    4  A    between atoms: C_11  and  C_12 
ROOT
HETATM    1  O   UNK N   1      30.058  18.743   9.628  0.00  0.00    -0.246 OA
HETATM    2  N   UNK N   1      30.699  17.613   7.769  0.00  0.00    -0.282 N 
HETATM    3  N   UNK N   1      28.529  18.569   8.012  0.00  0.00    -0.295 N 
ATOM      4  HN  UNK N   1      27.855  19.095   8.569  1.00  0.00     0.172 HD
HETATM    5  C   UNK N   1      30.353  17.161   6.533  0.00  0.00     0.102 A 
HETATM    6  C   UNK N   1      29.777  18.327   8.520  0.00  0.00     0.330 A 
HETATM    7  C   UNK N   1      29.085  17.407   6.014  0.00  0.00     0.065 A 
HETATM    8  C   UNK N   1      28.175  18.124   6.784  0.00  0.00     0.103 A 
ENDROOT
BRANCH   2   9
HETATM    9  C   UNK N   1      32.050  17.324   8.264  0.00  0.00     0.232 A 
HETATM   10  O   UNK N   1      32.255  16.175   9.036  0.00  0.00    -0.359 OA
HETATM   11  C   UNK N   1      33.626  16.244   9.302  0.00  0.00     0.147 A 
HETATM   12  C   UNK N   1      34.352  17.443   8.724  0.00  0.00     0.038 A 
HETATM   13  C   UNK N   1      33.268  18.185   8.003  0.00  0.00     0.057 A 
BRANCH  11  14
HETATM   14  C   UNK N   1      34.280  15.166  10.142  0.00  0.00     0.196 C 
BRANCH  14  15
HETATM   15  O   UNK N   1      33.474  14.865  11.239  0.00  0.00    -0.398 OA
HETATM   16  H   UNK N   1      32.510  14.944  11.169  0.00  0.00     0.209 HD
ENDBRANCH  14  15
ENDBRANCH  11  14
ENDBRANCH   2   9
BRANCH   8  17
HETATM   17  N   UNK N   1      26.885  18.387   6.285  0.00  0.00    -0.385 N 
HETATM   18  H   UNK N   1      26.597  19.316   6.131  0.00  0.00     0.157 HD
HETATM   19  H   UNK N   1      26.272  17.642   6.090  0.00  0.00     0.157 HD
ENDBRANCH   8  17
TORSDOF 4
ENDMDL
MODEL 8
REMARK VINA RESULT:      -5.2      9.994     11.149
REMARK  4 active torsions:
REMARK  status: ('A' for Active; 'I' for Inactive)
REMARK    1  A    between atoms: O_2  and  C_12 
REMARK    2  A    between atoms: C_8  and  N_4 
REMARK    3  A    between atoms: N_7  and  C_16 
REMARK    4  A    between atoms: C_11  and  C_12 
ROOT
HETATM    1  O   UNK N   1      24.559  17.204   3.376  0.00  0.00    -0.246 OA
HETATM    2  N   UNK N   1      24.631  19.461   3.585  0.00  0.00    -0.282 N 
HETATM    3  N   UNK N   1      26.548  18.077   3.887  0.00  0.00    -0.295 N 
ATOM      4  HN  UNK N   1      26.972  17.149   3.900  1.00  0.00     0.172 HD
HETATM    5  C   UNK N   1      25.392  20.559   3.846  0.00  0.00     0.102 A 
HETATM    6  C   UNK N   1      25.214  18.203   3.605  0.00  0.00     0.330 A 
HETATM    7  C   UNK N   1      26.748  20.433   4.133  0.00  0.00     0.065 A 
HETATM    8  C   UNK N   1      27.314  19.163   4.148  0.00  0.00     0.103 A 
ENDROOT
BRANCH   2   9
HETATM    9  C   UNK N   1      23.206  19.655   3.290  0.00  0.00     0.232 A 
HETATM   10  O   UNK N   1      22.845  20.476   2.215  0.00  0.00    -0.359 OA
HETATM   11  C   UNK N   1      21.449  20.405   2.252  0.00  0.00     0.147 A 
HETATM   12  C   UNK N   1      20.859  19.549   3.356  0.00  0.00     0.038 A 
HETATM   13  C   UNK N   1      22.070  19.027   4.068  0.00  0.00     0.057 A 
BRANCH  11  14
HETATM   14  C   UNK N   1      20.634  21.179   1.236  0.00  0.00     0.196 C 
BRANCH  14  15
HETATM   15  O   UNK N   1      20.656  20.519   0.008  0.00  0.00    -0.398 OA
HETATM   16  H   UNK N   1      21.121  19.672  -0.079  0.00  0.00     0.209 HD
ENDBRANCH  14  15
ENDBRANCH  11  14
ENDBRANCH   2   9
BRANCH   8  17
HETATM   17  N   UNK N   1      28.682  19.005   4.434  0.00  0.00    -0.385 N 
HETATM   18  H   UNK N   1      29.002  18.188   4.880  0.00  0.00     0.157 HD
HETATM   19  H   UNK N   1      29.321  19.714   4.188  0.00  0.00     0.157 HD
ENDBRANCH   8  17
TORSDOF 4
ENDMDL
MODEL 9
REMARK VINA RESULT:      -5.1     25.112     26.344
REMARK  4 active torsions:
REMARK  status: ('A' for Active; 'I' for Inactive)
REMARK    1  A    between atoms: O_2  and  C_12 
REMARK    2  A    between atoms: C_8  and  N_4 
REMARK    3  A    between atoms: N_7  and  C_16 
REMARK    4  A    between atoms: C_11  and  C_12 
ROOT
HETATM    1  O   UNK N   1      35.533  10.460  16.496  0.00  0.00    -0.246 OA
HETATM    2  N   UNK N   1      35.678  12.710  16.248  0.00  0.00    -0.282 N 
HETATM    3  N   UNK N   1      35.231  11.670  18.346  0.00  0.00    -0.295 N 
ATOM      4  HN  UNK N   1      35.088  10.823  18.898  1.00  0.00     0.172 HD
HETATM    5  C   UNK N   1      35.615  13.929  16.848  0.00  0.00     0.102 A 
HETATM    6  C   UNK N   1      35.483  11.563  17.004  0.00  0.00     0.330 A 
HETATM    7  C   UNK N   1      35.358  14.040  18.211  0.00  0.00     0.065 A 
HETATM    8  C   UNK N   1      35.166  12.878  18.952  0.00  0.00     0.103 A 
ENDROOT
BRANCH   2   9
HETATM    9  C   UNK N   1      35.952  12.654  14.807  0.00  0.00     0.232 A 
HETATM   10  O   UNK N   1      35.004  13.177  13.919  0.00  0.00    -0.359 OA
HETATM   11  C   UNK N   1      35.611  12.952  12.680  0.00  0.00     0.147 A 
HETATM   12  C   UNK N   1      36.963  12.265  12.721  0.00  0.00     0.038 A 
HETATM   13  C   UNK N   1      37.201  12.065  14.188  0.00  0.00     0.057 A 
BRANCH  11  14
HETATM   14  C   UNK N   1      34.899  13.370  11.410  0.00  0.00     0.196 C 
BRANCH  14  15
HETATM   15  O   UNK N   1      33.990  14.390  11.691  0.00  0.00    -0.398 OA
HETATM   16  H   UNK N   1      33.516  14.398  12.536  0.00  0.00     0.209 HD
ENDBRANCH  14  15
ENDBRANCH  11  14
ENDBRANCH   2   9
BRANCH   8  17
HETATM   17  N   UNK N   1      34.905  12.959  20.333  0.00  0.00    -0.385 N 
HETATM   18  H   UNK N   1      35.637  12.838  20.980  0.00  0.00     0.157 HD
HETATM   19  H   UNK N   1      33.990  13.138  20.651  0.00  0.00     0.157 HD
ENDBRANCH   8  17
TORSDOF 4
ENDMDL
