MODEL 1
REMARK VINA RESULT:      -6.8      0.000      0.000
REMARK  17 active torsions:
REMARK  status: ('A' for Active; 'I' for Inactive)
REMARK    1  A    between atoms: O_1  and  C_31 
REMARK    2  A    between atoms: O_1  and  C_33 
REMARK    3  A    between atoms: O_2  and  C_32 
REMARK    4  A    between atoms: O_2  and  C_34 
REMARK    5  A    between atoms: N_5  and  C_19 
REMARK    6  A    between atoms: N_6  and  C_20 
REMARK    7  A    between atoms: N_7  and  C_17 
REMARK       I    between atoms: N_7  and  C_33 
REMARK    8  A    between atoms: N_8  and  C_18 
REMARK       I    between atoms: N_8  and  C_34 
REMARK    9  A    between atoms: C_9  and  C_10 
REMARK   10  A    between atoms: C_9  and  C_11 
REMARK   11  A    between atoms: C_10  and  C_12 
REMARK   12  A    between atoms: C_11  and  C_13 
REMARK   13  A    between atoms: C_12  and  C_14 
REMARK   14  A    between atoms: C_13  and  C_15 
REMARK   15  A    between atoms: C_14  and  C_16 
REMARK   16  A    between atoms: C_15  and  C_17 
REMARK   17  A    between atoms: C_16  and  C_18 
ROOT
HETATM    1  C   UNK N   1      28.067  18.629   8.393  0.00  0.00     0.000 C 
ENDROOT
BRANCH   1   2
HETATM    2  C   UNK N   1      29.206  17.829   9.004  0.00  0.00     0.000 C 
BRANCH   2   3
HETATM    3  C   UNK N   1      30.518  18.112   8.293  0.00  0.00     0.000 C 
BRANCH   3   4
HETATM    4  C   UNK N   1      31.080  16.828   7.722  0.00  0.00     0.002 C 
BRANCH   4   5
HETATM    5  C   UNK N   1      32.561  16.997   7.441  0.00  0.00     0.020 C 
BRANCH   5   6
HETATM    6  C   UNK N   1      33.318  17.235   8.741  0.00  0.00     0.127 C 
BRANCH   6   7
HETATM    7  N   UNK N   1      34.433  16.317   8.865  0.00  0.00    -0.332 N 
HETATM    8  C   UNK N   1      35.296  16.433   9.930  0.00  0.00     0.367 C 
HETATM    9  O   UNK N   1      35.108  17.340  10.730  0.00  0.00    -0.238 OA
HETATM   10  C   UNK N   1      34.565  15.327   7.836  0.00  0.00     0.155 C 
BRANCH   8  11
HETATM   11  O   UNK N   1      36.374  15.620  10.176  0.00  0.00    -0.261 OA
BRANCH  11  12
HETATM   12  C   UNK N   1      36.733  14.471  10.816  0.00  0.00     0.083 A 
HETATM   13  C   UNK N   1      36.363  14.142  12.126  0.00  0.00     0.074 A 
HETATM   14  C   UNK N   1      36.789  12.937  12.734  0.00  0.00     0.138 A 
HETATM   15  C   UNK N   1      37.633  12.083  11.997  0.00  0.00     0.037 A 
HETATM   16  C   UNK N   1      38.013  12.407  10.697  0.00  0.00     0.005 A 
HETATM   17  C   UNK N   1      37.562  13.589  10.114  0.00  0.00     0.037 A 
BRANCH  14  18
HETATM   18  N   UNK N   1      36.409  12.591  14.083  0.00  0.00    -0.049 N 
HETATM   19  C   UNK N   1      37.349  11.630  14.599  0.00  0.00     0.278 C 
HETATM   20  C   UNK N   1      35.109  11.964  14.095  0.00  0.00     0.278 C 
HETATM   21  C   UNK N   1      36.391  13.733  14.967  0.00  0.00     0.278 C 
ENDBRANCH  14  18
ENDBRANCH  11  12
ENDBRANCH   8  11
ENDBRANCH   6   7
ENDBRANCH   5   6
ENDBRANCH   4   5
ENDBRANCH   3   4
ENDBRANCH   2   3
ENDBRANCH   1   2
BRANCH   1  22
HETATM   22  C   UNK N   1      28.442  19.152   7.017  0.00  0.00     0.000 C 
BRANCH  22  23
HETATM   23  C   UNK N   1      27.401  20.141   6.542  0.00  0.00     0.002 C 
BRANCH  23  24
HETATM   24  C   UNK N   1      27.430  20.230   5.029  0.00  0.00     0.020 C 
BRANCH  24  25
HETATM   25  C   UNK N   1      26.798  18.988   4.414  0.00  0.00     0.127 C 
BRANCH  25  26
HETATM   26  N   UNK N   1      25.363  19.146   4.289  0.00  0.00    -0.332 N 
HETATM   27  C   UNK N   1      24.523  18.180   4.796  0.00  0.00     0.367 C 
HETATM   28  O   UNK N   1      25.025  17.193   5.316  0.00  0.00    -0.238 OA
HETATM   29  C   UNK N   1      24.905  20.330   3.625  0.00  0.00     0.155 C 
BRANCH  27  30
HETATM   30  O   UNK N   1      23.152  18.217   4.762  0.00  0.00    -0.261 OA
BRANCH  30  31
HETATM   31  C   UNK N   1      22.089  18.054   3.925  0.00  0.00     0.083 A 
HETATM   32  C   UNK N   1      21.785  16.865   3.248  0.00  0.00     0.074 A 
HETATM   33  C   UNK N   1      20.671  16.774   2.378  0.00  0.00     0.138 A 
HETATM   34  C   UNK N   1      19.885  17.927   2.181  0.00  0.00     0.037 A 
HETATM   35  C   UNK N   1      20.186  19.114   2.844  0.00  0.00     0.005 A 
HETATM   36  C   UNK N   1      21.276  19.171   3.710  0.00  0.00     0.037 A 
BRANCH  33  37
HETATM   37  N   UNK N   1      20.352  15.553   1.678  0.00  0.00    -0.049 N 
HETATM   38  C   UNK N   1      21.574  14.951   1.213  0.00  0.00     0.278 C 
HETATM   39  C   UNK N   1      19.547  15.836   0.514  0.00  0.00     0.278 C 
HETATM   40  C   UNK N   1      19.659  14.598   2.510  0.00  0.00     0.278 C 
ENDBRANCH  33  37
ENDBRANCH  30  31
ENDBRANCH  27  30
ENDBRANCH  25  26
ENDBRANCH  24  25
ENDBRANCH  23  24
ENDBRANCH  22  23
ENDBRANCH   1  22
TORSDOF 17
ENDMDL
MODEL 2
REMARK VINA RESULT:      -6.6      3.072      5.244
REMARK  17 active torsions:
REMARK  status: ('A' for Active; 'I' for Inactive)
REMARK    1  A    between atoms: O_1  and  C_31 
REMARK    2  A    between atoms: O_1  and  C_33 
REMARK    3  A    between atoms: O_2  and  C_32 
REMARK    4  A    between atoms: O_2  and  C_34 
REMARK    5  A    between atoms: N_5  and  C_19 
REMARK    6  A    between atoms: N_6  and  C_20 
REMARK    7  A    between atoms: N_7  and  C_17 
REMARK       I    between atoms: N_7  and  C_33 
REMARK    8  A    between atoms: N_8  and  C_18 
REMARK       I    between atoms: N_8  and  C_34 
REMARK    9  A    between atoms: C_9  and  C_10 
REMARK   10  A    between atoms: C_9  and  C_11 
REMARK   11  A    between atoms: C_10  and  C_12 
REMARK   12  A    between atoms: C_11  and  C_13 
REMARK   13  A    between atoms: C_12  and  C_14 
REMARK   14  A    between atoms: C_13  and  C_15 
REMARK   15  A    between atoms: C_14  and  C_16 
REMARK   16  A    between atoms: C_15  and  C_17 
REMARK   17  A    between atoms: C_16  and  C_18 
ROOT
HETATM    1  C   UNK N   1      32.458  15.425   7.974  0.00  0.00     0.000 C 
ENDROOT
BRANCH   1   2
HETATM    2  C   UNK N   1      33.010  15.600   9.379  0.00  0.00     0.000 C 
BRANCH   2   3
HETATM    3  C   UNK N   1      34.170  16.580   9.395  0.00  0.00     0.000 C 
BRANCH   3   4
HETATM    4  C   UNK N   1      35.356  15.961  10.103  0.00  0.00     0.002 C 
BRANCH   4   5
HETATM    5  C   UNK N   1      34.871  15.074  11.235  0.00  0.00     0.020 C 
BRANCH   5   6
HETATM    6  C   UNK N   1      36.058  14.493  11.992  0.00  0.00     0.127 C 
BRANCH   6   7
HETATM    7  N   UNK N   1      35.630  13.442  12.894  0.00  0.00    -0.332 N 
HETATM    8  C   UNK N   1      35.900  13.547  14.239  0.00  0.00     0.367 C 
HETATM    9  O   UNK N   1      36.528  14.522  14.628  0.00  0.00    -0.238 OA
HETATM   10  C   UNK N   1      34.940  12.332  12.303  0.00  0.00     0.155 C 
BRANCH   8  11
HETATM   11  O   UNK N   1      35.533  12.638  15.199  0.00  0.00    -0.261 OA
BRANCH  11  12
HETATM   12  C   UNK N   1      35.484  12.457  16.550  0.00  0.00     0.083 A 
HETATM   13  C   UNK N   1      35.606  11.216  17.190  0.00  0.00     0.074 A 
HETATM   14  C   UNK N   1      35.527  11.101  18.598  0.00  0.00     0.138 A 
HETATM   15  C   UNK N   1      35.285  12.269  19.348  0.00  0.00     0.037 A 
HETATM   16  C   UNK N   1      35.154  13.504  18.719  0.00  0.00     0.005 A 
HETATM   17  C   UNK N   1      35.257  13.593  17.332  0.00  0.00     0.037 A 
BRANCH  14  18
HETATM   18  N   UNK N   1      35.654   9.827  19.264  0.00  0.00    -0.049 N 
HETATM   19  C   UNK N   1      35.892  10.056  20.666  0.00  0.00     0.278 C 
HETATM   20  C   UNK N   1      36.793   9.102  18.752  0.00  0.00     0.278 C 
HETATM   21  C   UNK N   1      34.473   9.008  19.128  0.00  0.00     0.278 C 
ENDBRANCH  14  18
ENDBRANCH  11  12
ENDBRANCH   8  11
ENDBRANCH   6   7
ENDBRANCH   5   6
ENDBRANCH   4   5
ENDBRANCH   3   4
ENDBRANCH   2   3
ENDBRANCH   1   2
BRANCH   1  22
HETATM   22  C   UNK N   1      32.286  16.767   7.282  0.00  0.00     0.000 C 
BRANCH  22  23
HETATM   23  C   UNK N   1      32.121  16.560   5.793  0.00  0.00     0.002 C 
BRANCH  23  24
HETATM   24  C   UNK N   1      30.653  16.370   5.461  0.00  0.00     0.020 C 
BRANCH  24  25
HETATM   25  C   UNK N   1      30.143  17.540   4.631  0.00  0.00     0.127 C 
BRANCH  25  26
HETATM   26  N   UNK N   1      28.710  17.452   4.439  0.00  0.00    -0.332 N 
HETATM   27  C   UNK N   1      27.867  18.177   5.250  0.00  0.00     0.367 C 
HETATM   28  O   UNK N   1      28.363  18.857   6.138  0.00  0.00    -0.238 OA
HETATM   29  C   UNK N   1      28.257  16.589   3.388  0.00  0.00     0.155 C 
BRANCH  27  30
HETATM   30  O   UNK N   1      26.498  18.199   5.162  0.00  0.00    -0.261 OA
BRANCH  30  31
HETATM   31  C   UNK N   1      25.468  18.808   4.509  0.00  0.00     0.083 A 
HETATM   32  C   UNK N   1      24.121  18.447   4.638  0.00  0.00     0.074 A 
HETATM   33  C   UNK N   1      23.103  19.115   3.913  0.00  0.00     0.138 A 
HETATM   34  C   UNK N   1      23.485  20.141   3.025  0.00  0.00     0.037 A 
HETATM   35  C   UNK N   1      24.823  20.501   2.886  0.00  0.00     0.005 A 
HETATM   36  C   UNK N   1      25.802  19.840   3.626  0.00  0.00     0.037 A 
BRANCH  33  37
HETATM   37  N   UNK N   1      21.714  18.748   4.041  0.00  0.00    -0.049 N 
HETATM   38  C   UNK N   1      21.437  18.448   5.421  0.00  0.00     0.278 C 
HETATM   39  C   UNK N   1      21.438  17.552   3.281  0.00  0.00     0.278 C 
HETATM   40  C   UNK N   1      20.819  19.797   3.611  0.00  0.00     0.278 C 
ENDBRANCH  33  37
ENDBRANCH  30  31
ENDBRANCH  27  30
ENDBRANCH  25  26
ENDBRANCH  24  25
ENDBRANCH  23  24
ENDBRANCH  22  23
ENDBRANCH   1  22
TORSDOF 17
ENDMDL
MODEL 3
REMARK VINA RESULT:      -6.4      1.998      2.981
REMARK  17 active torsions:
REMARK  status: ('A' for Active; 'I' for Inactive)
REMARK    1  A    between atoms: O_1  and  C_31 
REMARK    2  A    between atoms: O_1  and  C_33 
REMARK    3  A    between atoms: O_2  and  C_32 
REMARK    4  A    between atoms: O_2  and  C_34 
REMARK    5  A    between atoms: N_5  and  C_19 
REMARK    6  A    between atoms: N_6  and  C_20 
REMARK    7  A    between atoms: N_7  and  C_17 
REMARK       I    between atoms: N_7  and  C_33 
REMARK    8  A    between atoms: N_8  and  C_18 
REMARK       I    between atoms: N_8  and  C_34 
REMARK    9  A    between atoms: C_9  and  C_10 
REMARK   10  A    between atoms: C_9  and  C_11 
REMARK   11  A    between atoms: C_10  and  C_12 
REMARK   12  A    between atoms: C_11  and  C_13 
REMARK   13  A    between atoms: C_12  and  C_14 
REMARK   14  A    between atoms: C_13  and  C_15 
REMARK   15  A    between atoms: C_14  and  C_16 
REMARK   16  A    between atoms: C_15  and  C_17 
REMARK   17  A    between atoms: C_16  and  C_18 
ROOT
HETATM    1  C   UNK N   1      29.898  17.298   9.059  0.00  0.00     0.000 C 
ENDROOT
BRANCH   1   2
HETATM    2  C   UNK N   1      31.074  18.253   8.930  0.00  0.00     0.000 C 
BRANCH   2   3
HETATM    3  C   UNK N   1      32.287  17.553   8.345  0.00  0.00     0.000 C 
BRANCH   3   4
HETATM    4  C   UNK N   1      32.337  16.120   8.829  0.00  0.00     0.002 C 
BRANCH   4   5
HETATM    5  C   UNK N   1      33.308  15.324   7.979  0.00  0.00     0.020 C 
BRANCH   5   6
HETATM    6  C   UNK N   1      34.738  15.766   8.261  0.00  0.00     0.127 C 
BRANCH   6   7
HETATM    7  N   UNK N   1      35.424  14.797   9.092  0.00  0.00    -0.332 N 
HETATM    8  C   UNK N   1      36.074  15.214  10.231  0.00  0.00     0.367 C 
HETATM    9  O   UNK N   1      36.077  16.411  10.489  0.00  0.00    -0.238 OA
HETATM   10  C   UNK N   1      35.380  13.432   8.654  0.00  0.00     0.155 C 
BRANCH   8  11
HETATM   11  O   UNK N   1      36.740  14.401  11.113  0.00  0.00    -0.261 OA
BRANCH  11  12
HETATM   12  C   UNK N   1      36.568  13.685  12.260  0.00  0.00     0.083 A 
HETATM   13  C   UNK N   1      36.593  12.286  12.334  0.00  0.00     0.074 A 
HETATM   14  C   UNK N   1      36.388  11.607  13.559  0.00  0.00     0.138 A 
HETATM   15  C   UNK N   1      36.120  12.377  14.709  0.00  0.00     0.037 A 
HETATM   16  C   UNK N   1      36.084  13.767  14.641  0.00  0.00     0.005 A 
HETATM   17  C   UNK N   1      36.310  14.412  13.427  0.00  0.00     0.037 A 
BRANCH  14  18
HETATM   18  N   UNK N   1      36.415  10.167  13.643  0.00  0.00    -0.049 N 
HETATM   19  C   UNK N   1      35.062   9.673  13.609  0.00  0.00     0.278 C 
HETATM   20  C   UNK N   1      36.990   9.746  14.898  0.00  0.00     0.278 C 
HETATM   21  C   UNK N   1      37.150   9.560  12.559  0.00  0.00     0.278 C 
ENDBRANCH  14  18
ENDBRANCH  11  12
ENDBRANCH   8  11
ENDBRANCH   6   7
ENDBRANCH   5   6
ENDBRANCH   4   5
ENDBRANCH   3   4
ENDBRANCH   2   3
ENDBRANCH   1   2
BRANCH   1  22
HETATM   22  C   UNK N   1      28.576  18.037   8.930  0.00  0.00     0.000 C 
BRANCH  22  23
HETATM   23  C   UNK N   1      28.522  18.766   7.606  0.00  0.00     0.002 C 
BRANCH  23  24
HETATM   24  C   UNK N   1      28.762  17.788   6.472  0.00  0.00     0.020 C 
BRANCH  24  25
HETATM   25  C   UNK N   1      28.729  18.513   5.133  0.00  0.00     0.127 C 
BRANCH  25  26
HETATM   26  N   UNK N   1      27.466  18.294   4.458  0.00  0.00    -0.332 N 
HETATM   27  C   UNK N   1      26.566  19.328   4.341  0.00  0.00     0.367 C 
HETATM   28  O   UNK N   1      26.855  20.405   4.845  0.00  0.00    -0.238 OA
HETATM   29  C   UNK N   1      27.235  16.975   3.945  0.00  0.00     0.155 C 
BRANCH  27  30
HETATM   30  O   UNK N   1      25.349  19.261   3.711  0.00  0.00    -0.261 OA
BRANCH  30  31
HETATM   31  C   UNK N   1      24.023  19.048   3.945  0.00  0.00     0.083 A 
HETATM   32  C   UNK N   1      23.514  18.038   4.772  0.00  0.00     0.074 A 
HETATM   33  C   UNK N   1      22.120  17.865   4.955  0.00  0.00     0.138 A 
HETATM   34  C   UNK N   1      21.246  18.720   4.253  0.00  0.00     0.037 A 
HETATM   35  C   UNK N   1      21.745  19.721   3.423  0.00  0.00     0.005 A 
HETATM   36  C   UNK N   1      23.121  19.882   3.277  0.00  0.00     0.037 A 
BRANCH  33  37
HETATM   37  N   UNK N   1      21.588  16.827   5.804  0.00  0.00    -0.049 N 
HETATM   38  C   UNK N   1      20.628  16.060   5.056  0.00  0.00     0.278 C 
HETATM   39  C   UNK N   1      20.891  17.404   6.929  0.00  0.00     0.278 C 
HETATM   40  C   UNK N   1      22.610  15.930   6.292  0.00  0.00     0.278 C 
ENDBRANCH  33  37
ENDBRANCH  30  31
ENDBRANCH  27  30
ENDBRANCH  25  26
ENDBRANCH  24  25
ENDBRANCH  23  24
ENDBRANCH  22  23
ENDBRANCH   1  22
TORSDOF 17
ENDMDL
MODEL 4
REMARK VINA RESULT:      -6.4      4.394     12.951
REMARK  17 active torsions:
REMARK  status: ('A' for Active; 'I' for Inactive)
REMARK    1  A    between atoms: O_1  and  C_31 
REMARK    2  A    between atoms: O_1  and  C_33 
REMARK    3  A    between atoms: O_2  and  C_32 
REMARK    4  A    between atoms: O_2  and  C_34 
REMARK    5  A    between atoms: N_5  and  C_19 
REMARK    6  A    between atoms: N_6  and  C_20 
REMARK    7  A    between atoms: N_7  and  C_17 
REMARK       I    between atoms: N_7  and  C_33 
REMARK    8  A    between atoms: N_8  and  C_18 
REMARK       I    between atoms: N_8  and  C_34 
REMARK    9  A    between atoms: C_9  and  C_10 
REMARK   10  A    between atoms: C_9  and  C_11 
REMARK   11  A    between atoms: C_10  and  C_12 
REMARK   12  A    between atoms: C_11  and  C_13 
REMARK   13  A    between atoms: C_12  and  C_14 
REMARK   14  A    between atoms: C_13  and  C_15 
REMARK   15  A    between atoms: C_14  and  C_16 
REMARK   16  A    between atoms: C_15  and  C_17 
REMARK   17  A    between atoms: C_16  and  C_18 
ROOT
HETATM    1  C   UNK N   1      32.037  16.053   5.244  0.00  0.00     0.000 C 
ENDROOT
BRANCH   1   2
HETATM    2  C   UNK N   1      31.581  14.851   6.055  0.00  0.00     0.000 C 
BRANCH   2   3
HETATM    3  C   UNK N   1      32.045  13.552   5.419  0.00  0.00     0.000 C 
BRANCH   3   4
HETATM    4  C   UNK N   1      32.036  13.687   3.912  0.00  0.00     0.002 C 
BRANCH   4   5
HETATM    5  C   UNK N   1      30.831  12.965   3.340  0.00  0.00     0.020 C 
BRANCH   5   6
HETATM    6  C   UNK N   1      29.982  13.928   2.520  0.00  0.00     0.127 C 
BRANCH   6   7
HETATM    7  N   UNK N   1      29.096  14.693   3.376  0.00  0.00    -0.332 N 
HETATM    8  C   UNK N   1      29.087  16.066   3.295  0.00  0.00     0.367 C 
HETATM    9  O   UNK N   1      29.862  16.604   2.514  0.00  0.00    -0.238 OA
HETATM   10  C   UNK N   1      28.271  13.942   4.276  0.00  0.00     0.155 C 
BRANCH   8  11
HETATM   11  O   UNK N   1      28.286  16.904   4.029  0.00  0.00    -0.261 OA
BRANCH  11  12
HETATM   12  C   UNK N   1      28.284  17.696   5.138  0.00  0.00     0.083 A 
HETATM   13  C   UNK N   1      28.728  17.292   6.404  0.00  0.00     0.074 A 
HETATM   14  C   UNK N   1      28.680  18.164   7.517  0.00  0.00     0.138 A 
HETATM   15  C   UNK N   1      28.136  19.451   7.330  0.00  0.00     0.037 A 
HETATM   16  C   UNK N   1      27.684  19.857   6.078  0.00  0.00     0.005 A 
HETATM   17  C   UNK N   1      27.762  18.986   4.993  0.00  0.00     0.037 A 
BRANCH  14  18
HETATM   18  N   UNK N   1      29.139  17.755   8.823  0.00  0.00    -0.049 N 
HETATM   19  C   UNK N   1      29.557  18.922   9.556  0.00  0.00     0.278 C 
HETATM   20  C   UNK N   1      30.289  16.891   8.705  0.00  0.00     0.278 C 
HETATM   21  C   UNK N   1      28.116  17.079   9.585  0.00  0.00     0.278 C 
ENDBRANCH  14  18
ENDBRANCH  11  12
ENDBRANCH   8  11
ENDBRANCH   6   7
ENDBRANCH   5   6
ENDBRANCH   4   5
ENDBRANCH   3   4
ENDBRANCH   2   3
ENDBRANCH   1   2
BRANCH   1  22
HETATM   22  C   UNK N   1      32.766  17.059   6.118  0.00  0.00     0.000 C 
BRANCH  22  23
HETATM   23  C   UNK N   1      34.253  16.787   6.084  0.00  0.00     0.002 C 
BRANCH  23  24
HETATM   24  C   UNK N   1      34.683  16.126   7.380  0.00  0.00     0.020 C 
BRANCH  24  25
HETATM   25  C   UNK N   1      34.013  16.807   8.567  0.00  0.00     0.127 C 
BRANCH  25  26
HETATM   26  N   UNK N   1      34.443  16.209   9.816  0.00  0.00    -0.332 N 
HETATM   27  C   UNK N   1      33.833  15.062  10.268  0.00  0.00     0.367 C 
HETATM   28  O   UNK N   1      32.916  14.595   9.606  0.00  0.00    -0.238 OA
HETATM   29  C   UNK N   1      35.502  16.877  10.513  0.00  0.00     0.155 C 
BRANCH  27  30
HETATM   30  O   UNK N   1      34.155  14.387  11.418  0.00  0.00    -0.261 OA
BRANCH  30  31
HETATM   31  C   UNK N   1      35.099  13.565  11.959  0.00  0.00     0.083 A 
HETATM   32  C   UNK N   1      34.963  12.894  13.181  0.00  0.00     0.074 A 
HETATM   33  C   UNK N   1      35.995  12.068  13.691  0.00  0.00     0.138 A 
HETATM   34  C   UNK N   1      37.189  11.963  12.948  0.00  0.00     0.037 A 
HETATM   35  C   UNK N   1      37.334  12.633  11.736  0.00  0.00     0.005 A 
HETATM   36  C   UNK N   1      36.296  13.423  11.248  0.00  0.00     0.037 A 
BRANCH  33  37
HETATM   37  N   UNK N   1      35.862  11.375  14.949  0.00  0.00    -0.049 N 
HETATM   38  C   UNK N   1      34.553  10.780  15.015  0.00  0.00     0.278 C 
HETATM   39  C   UNK N   1      35.964  12.304  16.049  0.00  0.00     0.278 C 
HETATM   40  C   UNK N   1      36.848  10.333  15.118  0.00  0.00     0.278 C 
ENDBRANCH  33  37
ENDBRANCH  30  31
ENDBRANCH  27  30
ENDBRANCH  25  26
ENDBRANCH  24  25
ENDBRANCH  23  24
ENDBRANCH  22  23
ENDBRANCH   1  22
TORSDOF 17
ENDMDL
MODEL 5
REMARK VINA RESULT:      -6.3      4.682     12.072
REMARK  17 active torsions:
REMARK  status: ('A' for Active; 'I' for Inactive)
REMARK    1  A    between atoms: O_1  and  C_31 
REMARK    2  A    between atoms: O_1  and  C_33 
REMARK    3  A    between atoms: O_2  and  C_32 
REMARK    4  A    between atoms: O_2  and  C_34 
REMARK    5  A    between atoms: N_5  and  C_19 
REMARK    6  A    between atoms: N_6  and  C_20 
REMARK    7  A    between atoms: N_7  and  C_17 
REMARK       I    between atoms: N_7  and  C_33 
REMARK    8  A    between atoms: N_8  and  C_18 
REMARK       I    between atoms: N_8  and  C_34 
REMARK    9  A    between atoms: C_9  and  C_10 
REMARK   10  A    between atoms: C_9  and  C_11 
REMARK   11  A    between atoms: C_10  and  C_12 
REMARK   12  A    between atoms: C_11  and  C_13 
REMARK   13  A    between atoms: C_12  and  C_14 
REMARK   14  A    between atoms: C_13  and  C_15 
REMARK   15  A    between atoms: C_14  and  C_16 
REMARK   16  A    between atoms: C_15  and  C_17 
REMARK   17  A    between atoms: C_16  and  C_18 
ROOT
HETATM    1  C   UNK N   1      22.646  14.646   1.360  0.00  0.00     0.000 C 
ENDROOT
BRANCH   1   2
HETATM    2  C   UNK N   1      21.422  13.947   0.791  0.00  0.00     0.000 C 
BRANCH   2   3
HETATM    3  C   UNK N   1      20.235  14.891   0.720  0.00  0.00     0.000 C 
BRANCH   3   4
HETATM    4  C   UNK N   1      20.670  16.293   1.087  0.00  0.00     0.002 C 
BRANCH   4   5
HETATM    5  C   UNK N   1      20.067  16.684   2.423  0.00  0.00     0.020 C 
BRANCH   5   6
HETATM    6  C   UNK N   1      20.949  17.713   3.117  0.00  0.00     0.127 C 
BRANCH   6   7
HETATM    7  N   UNK N   1      21.424  17.210   4.391  0.00  0.00    -0.332 N 
HETATM    8  C   UNK N   1      22.777  17.110   4.624  0.00  0.00     0.367 C 
HETATM    9  O   UNK N   1      23.542  17.424   3.722  0.00  0.00    -0.238 OA
HETATM   10  C   UNK N   1      20.421  16.836   5.346  0.00  0.00     0.155 C 
BRANCH   8  11
HETATM   11  O   UNK N   1      23.356  16.673   5.788  0.00  0.00    -0.261 OA
BRANCH  11  12
HETATM   12  C   UNK N   1      23.844  15.554   6.395  0.00  0.00     0.083 A 
HETATM   13  C   UNK N   1      23.062  14.621   7.087  0.00  0.00     0.074 A 
HETATM   14  C   UNK N   1      23.640  13.489   7.711  0.00  0.00     0.138 A 
HETATM   15  C   UNK N   1      25.040  13.339   7.649  0.00  0.00     0.037 A 
HETATM   16  C   UNK N   1      25.826  14.267   6.971  0.00  0.00     0.005 A 
HETATM   17  C   UNK N   1      25.229  15.362   6.348  0.00  0.00     0.037 A 
BRANCH  14  18
HETATM   18  N   UNK N   1      22.840  12.522   8.423  0.00  0.00    -0.049 N 
HETATM   19  C   UNK N   1      21.614  12.309   7.699  0.00  0.00     0.278 C 
HETATM   20  C   UNK N   1      22.481  13.028   9.727  0.00  0.00     0.278 C 
HETATM   21  C   UNK N   1      23.508  11.251   8.576  0.00  0.00     0.278 C 
ENDBRANCH  14  18
ENDBRANCH  11  12
ENDBRANCH   8  11
ENDBRANCH   6   7
ENDBRANCH   5   6
ENDBRANCH   4   5
ENDBRANCH   3   4
ENDBRANCH   2   3
ENDBRANCH   1   2
BRANCH   1  22
HETATM   22  C   UNK N   1      23.925  13.944   0.937  0.00  0.00     0.000 C 
BRANCH  22  23
HETATM   23  C   UNK N   1      24.724  13.552   2.159  0.00  0.00     0.002 C 
BRANCH  23  24
HETATM   24  C   UNK N   1      26.193  13.853   1.930  0.00  0.00     0.020 C 
BRANCH  24  25
HETATM   25  C   UNK N   1      26.595  15.120   2.673  0.00  0.00     0.127 C 
BRANCH  25  26
HETATM   26  N   UNK N   1      28.026  15.336   2.591  0.00  0.00    -0.332 N 
HETATM   27  C   UNK N   1      28.613  16.313   3.362  0.00  0.00     0.367 C 
HETATM   28  O   UNK N   1      27.893  16.996   4.077  0.00  0.00    -0.238 OA
HETATM   29  C   UNK N   1      28.749  14.493   1.686  0.00  0.00     0.155 C 
BRANCH  27  30
HETATM   30  O   UNK N   1      29.953  16.606   3.394  0.00  0.00    -0.261 OA
BRANCH  30  31
HETATM   31  C   UNK N   1      30.981  16.863   4.251  0.00  0.00     0.083 A 
HETATM   32  C   UNK N   1      30.931  16.659   5.636  0.00  0.00     0.074 A 
HETATM   33  C   UNK N   1      32.035  16.966   6.470  0.00  0.00     0.138 A 
HETATM   34  C   UNK N   1      33.186  17.517   5.872  0.00  0.00     0.037 A 
HETATM   35  C   UNK N   1      33.240  17.730   4.496  0.00  0.00     0.005 A 
HETATM   36  C   UNK N   1      32.148  17.401   3.697  0.00  0.00     0.037 A 
BRANCH  33  37
HETATM   37  N   UNK N   1      31.989  16.759   7.897  0.00  0.00    -0.049 N 
HETATM   38  C   UNK N   1      32.020  15.346   8.164  0.00  0.00     0.278 C 
HETATM   39  C   UNK N   1      30.753  17.270   8.440  0.00  0.00     0.278 C 
HETATM   40  C   UNK N   1      33.098  17.379   8.585  0.00  0.00     0.278 C 
ENDBRANCH  33  37
ENDBRANCH  30  31
ENDBRANCH  27  30
ENDBRANCH  25  26
ENDBRANCH  24  25
ENDBRANCH  23  24
ENDBRANCH  22  23
ENDBRANCH   1  22
TORSDOF 17
ENDMDL
MODEL 6
REMARK VINA RESULT:      -6.2      1.642      2.456
REMARK  17 active torsions:
REMARK  status: ('A' for Active; 'I' for Inactive)
REMARK    1  A    between atoms: O_1  and  C_31 
REMARK    2  A    between atoms: O_1  and  C_33 
REMARK    3  A    between atoms: O_2  and  C_32 
REMARK    4  A    between atoms: O_2  and  C_34 
REMARK    5  A    between atoms: N_5  and  C_19 
REMARK    6  A    between atoms: N_6  and  C_20 
REMARK    7  A    between atoms: N_7  and  C_17 
REMARK       I    between atoms: N_7  and  C_33 
REMARK    8  A    between atoms: N_8  and  C_18 
REMARK       I    between atoms: N_8  and  C_34 
REMARK    9  A    between atoms: C_9  and  C_10 
REMARK   10  A    between atoms: C_9  and  C_11 
REMARK   11  A    between atoms: C_10  and  C_12 
REMARK   12  A    between atoms: C_11  and  C_13 
REMARK   13  A    between atoms: C_12  and  C_14 
REMARK   14  A    between atoms: C_13  and  C_15 
REMARK   15  A    between atoms: C_14  and  C_16 
REMARK   16  A    between atoms: C_15  and  C_17 
REMARK   17  A    between atoms: C_16  and  C_18 
ROOT
HETATM    1  C   UNK N   1      30.406  17.882   8.003  0.00  0.00     0.000 C 
ENDROOT
BRANCH   1   2
HETATM    2  C   UNK N   1      31.845  17.406   7.882  0.00  0.00     0.000 C 
BRANCH   2   3
HETATM    3  C   UNK N   1      31.975  15.947   8.283  0.00  0.00     0.000 C 
BRANCH   3   4
HETATM    4  C   UNK N   1      33.084  15.293   7.487  0.00  0.00     0.002 C 
BRANCH   4   5
HETATM    5  C   UNK N   1      34.401  15.989   7.773  0.00  0.00     0.020 C 
BRANCH   5   6
HETATM    6  C   UNK N   1      35.349  15.043   8.497  0.00  0.00     0.127 C 
BRANCH   6   7
HETATM    7  N   UNK N   1      35.173  15.132   9.933  0.00  0.00    -0.332 N 
HETATM    8  C   UNK N   1      34.845  14.006  10.651  0.00  0.00     0.367 C 
HETATM    9  O   UNK N   1      34.681  12.958  10.040  0.00  0.00    -0.238 OA
HETATM   10  C   UNK N   1      35.352  16.428  10.520  0.00  0.00     0.155 C 
BRANCH   8  11
HETATM   11  O   UNK N   1      34.671  13.949  12.011  0.00  0.00    -0.261 OA
BRANCH  11  12
HETATM   12  C   UNK N   1      35.315  13.624  13.167  0.00  0.00     0.083 A 
HETATM   13  C   UNK N   1      35.101  12.444  13.891  0.00  0.00     0.074 A 
HETATM   14  C   UNK N   1      35.793  12.180  15.097  0.00  0.00     0.138 A 
HETATM   15  C   UNK N   1      36.687  13.159  15.578  0.00  0.00     0.037 A 
HETATM   16  C   UNK N   1      36.899  14.338  14.869  0.00  0.00     0.005 A 
HETATM   17  C   UNK N   1      36.219  14.563  13.673  0.00  0.00     0.037 A 
BRANCH  14  18
HETATM   18  N   UNK N   1      35.579  10.965  15.846  0.00  0.00    -0.049 N 
HETATM   19  C   UNK N   1      36.832  10.263  15.962  0.00  0.00     0.278 C 
HETATM   20  C   UNK N   1      34.667  10.095  15.144  0.00  0.00     0.278 C 
HETATM   21  C   UNK N   1      35.070  11.213  17.174  0.00  0.00     0.278 C 
ENDBRANCH  14  18
ENDBRANCH  11  12
ENDBRANCH   8  11
ENDBRANCH   6   7
ENDBRANCH   5   6
ENDBRANCH   4   5
ENDBRANCH   3   4
ENDBRANCH   2   3
ENDBRANCH   1   2
BRANCH   1  22
HETATM   22  C   UNK N   1      29.559  17.364   6.853  0.00  0.00     0.000 C 
BRANCH  22  23
HETATM   23  C   UNK N   1      28.098  17.648   7.123  0.00  0.00     0.002 C 
BRANCH  23  24
HETATM   24  C   UNK N   1      27.609  18.746   6.197  0.00  0.00     0.020 C 
BRANCH  24  25
HETATM   25  C   UNK N   1      27.129  18.151   4.880  0.00  0.00     0.127 C 
BRANCH  25  26
HETATM   26  N   UNK N   1      25.728  17.786   4.958  0.00  0.00    -0.332 N 
HETATM   27  C   UNK N   1      24.762  18.735   4.716  0.00  0.00     0.367 C 
HETATM   28  O   UNK N   1      25.122  19.878   4.470  0.00  0.00    -0.238 OA
HETATM   29  C   UNK N   1      25.441  16.422   5.293  0.00  0.00     0.155 C 
BRANCH  27  30
HETATM   30  O   UNK N   1      23.407  18.518   4.737  0.00  0.00    -0.261 OA
BRANCH  30  31
HETATM   31  C   UNK N   1      22.358  18.168   3.941  0.00  0.00     0.083 A 
HETATM   32  C   UNK N   1      22.142  16.882   3.430  0.00  0.00     0.074 A 
HETATM   33  C   UNK N   1      21.036  16.595   2.592  0.00  0.00     0.138 A 
HETATM   34  C   UNK N   1      20.166  17.651   2.255  0.00  0.00     0.037 A 
HETATM   35  C   UNK N   1      20.378  18.934   2.754  0.00  0.00     0.005 A 
HETATM   36  C   UNK N   1      21.463  19.185   3.591  0.00  0.00     0.037 A 
BRANCH  33  37
HETATM   37  N   UNK N   1      20.809  15.272   2.061  0.00  0.00    -0.049 N 
HETATM   38  C   UNK N   1      22.037  14.783   1.491  0.00  0.00     0.278 C 
HETATM   39  C   UNK N   1      19.834  15.318   0.998  0.00  0.00     0.278 C 
HETATM   40  C   UNK N   1      20.367  14.336   3.068  0.00  0.00     0.278 C 
ENDBRANCH  33  37
ENDBRANCH  30  31
ENDBRANCH  27  30
ENDBRANCH  25  26
ENDBRANCH  24  25
ENDBRANCH  23  24
ENDBRANCH  22  23
ENDBRANCH   1  22
TORSDOF 17
ENDMDL
MODEL 7
REMARK VINA RESULT:      -6.2      4.883      8.907
REMARK  17 active torsions:
REMARK  status: ('A' for Active; 'I' for Inactive)
REMARK    1  A    between atoms: O_1  and  C_31 
REMARK    2  A    between atoms: O_1  and  C_33 
REMARK    3  A    between atoms: O_2  and  C_32 
REMARK    4  A    between atoms: O_2  and  C_34 
REMARK    5  A    between atoms: N_5  and  C_19 
REMARK    6  A    between atoms: N_6  and  C_20 
REMARK    7  A    between atoms: N_7  and  C_17 
REMARK       I    between atoms: N_7  and  C_33 
REMARK    8  A    between atoms: N_8  and  C_18 
REMARK       I    between atoms: N_8  and  C_34 
REMARK    9  A    between atoms: C_9  and  C_10 
REMARK   10  A    between atoms: C_9  and  C_11 
REMARK   11  A    between atoms: C_10  and  C_12 
REMARK   12  A    between atoms: C_11  and  C_13 
REMARK   13  A    between atoms: C_12  and  C_14 
REMARK   14  A    between atoms: C_13  and  C_15 
REMARK   15  A    between atoms: C_14  and  C_16 
REMARK   16  A    between atoms: C_15  and  C_17 
REMARK   17  A    between atoms: C_16  and  C_18 
ROOT
HETATM    1  C   UNK N   1      22.427  14.942   2.301  0.00  0.00     0.000 C 
ENDROOT
BRANCH   1   2
HETATM    2  C   UNK N   1      23.082  14.479   3.593  0.00  0.00     0.000 C 
BRANCH   2   3
HETATM    3  C   UNK N   1      23.469  15.661   4.465  0.00  0.00     0.000 C 
BRANCH   3   4
HETATM    4  C   UNK N   1      22.910  16.938   3.876  0.00  0.00     0.002 C 
BRANCH   4   5
HETATM    5  C   UNK N   1      23.766  18.116   4.301  0.00  0.00     0.020 C 
BRANCH   5   6
HETATM    6  C   UNK N   1      25.224  17.862   3.942  0.00  0.00     0.127 C 
BRANCH   6   7
HETATM    7  N   UNK N   1      26.108  18.419   4.947  0.00  0.00    -0.332 N 
HETATM    8  C   UNK N   1      26.841  17.578   5.753  0.00  0.00     0.367 C 
HETATM    9  O   UNK N   1      26.695  16.371   5.611  0.00  0.00    -0.238 OA
HETATM   10  C   UNK N   1      26.154  19.850   5.039  0.00  0.00     0.155 C 
BRANCH   8  11
HETATM   11  O   UNK N   1      27.725  17.973   6.724  0.00  0.00    -0.261 OA
BRANCH  11  12
HETATM   12  C   UNK N   1      29.027  17.852   7.110  0.00  0.00     0.083 A 
HETATM   13  C   UNK N   1      30.035  17.265   6.334  0.00  0.00     0.074 A 
HETATM   14  C   UNK N   1      31.364  17.157   6.807  0.00  0.00     0.138 A 
HETATM   15  C   UNK N   1      31.648  17.627   8.105  0.00  0.00     0.037 A 
HETATM   16  C   UNK N   1      30.650  18.204   8.886  0.00  0.00     0.005 A 
HETATM   17  C   UNK N   1      29.354  18.317   8.388  0.00  0.00     0.037 A 
BRANCH  14  18
HETATM   18  N   UNK N   1      32.407  16.555   6.012  0.00  0.00    -0.049 N 
HETATM   19  C   UNK N   1      32.791  15.305   6.616  0.00  0.00     0.278 C 
HETATM   20  C   UNK N   1      33.579  17.398   5.997  0.00  0.00     0.278 C 
HETATM   21  C   UNK N   1      31.993  16.297   4.653  0.00  0.00     0.278 C 
ENDBRANCH  14  18
ENDBRANCH  11  12
ENDBRANCH   8  11
ENDBRANCH   6   7
ENDBRANCH   5   6
ENDBRANCH   4   5
ENDBRANCH   3   4
ENDBRANCH   2   3
ENDBRANCH   1   2
BRANCH   1  22
HETATM   22  C   UNK N   1      23.072  14.282   1.094  0.00  0.00     0.000 C 
BRANCH  22  23
HETATM   23  C   UNK N   1      22.112  13.287   0.479  0.00  0.00     0.002 C 
BRANCH  23  24
HETATM   24  C   UNK N   1      20.687  13.655   0.845  0.00  0.00     0.020 C 
BRANCH  24  25
HETATM   25  C   UNK N   1      19.954  12.440   1.397  0.00  0.00     0.127 C 
BRANCH  25  26
HETATM   26  N   UNK N   1      20.281  12.228   2.793  0.00  0.00    -0.332 N 
HETATM   27  C   UNK N   1      19.588  12.909   3.767  0.00  0.00     0.367 C 
HETATM   28  O   UNK N   1      18.727  13.704   3.416  0.00  0.00    -0.238 OA
HETATM   29  C   UNK N   1      21.337  11.298   3.068  0.00  0.00     0.155 C 
BRANCH  27  30
HETATM   30  O   UNK N   1      19.784  12.786   5.120  0.00  0.00    -0.261 OA
BRANCH  30  31
HETATM   31  C   UNK N   1      20.524  13.280   6.152  0.00  0.00     0.083 A 
HETATM   32  C   UNK N   1      21.384  12.515   6.950  0.00  0.00     0.074 A 
HETATM   33  C   UNK N   1      22.111  13.093   8.020  0.00  0.00     0.138 A 
HETATM   34  C   UNK N   1      21.922  14.464   8.287  0.00  0.00     0.037 A 
HETATM   35  C   UNK N   1      21.063  15.230   7.502  0.00  0.00     0.005 A 
HETATM   36  C   UNK N   1      20.375  14.640   6.444  0.00  0.00     0.037 A 
BRANCH  33  37
HETATM   37  N   UNK N   1      22.998  12.311   8.847  0.00  0.00    -0.049 N 
HETATM   38  C   UNK N   1      22.326  11.992  10.078  0.00  0.00     0.278 C 
HETATM   39  C   UNK N   1      24.174  13.076   9.187  0.00  0.00     0.278 C 
HETATM   40  C   UNK N   1      23.404  11.077   8.215  0.00  0.00     0.278 C 
ENDBRANCH  33  37
ENDBRANCH  30  31
ENDBRANCH  27  30
ENDBRANCH  25  26
ENDBRANCH  24  25
ENDBRANCH  23  24
ENDBRANCH  22  23
ENDBRANCH   1  22
TORSDOF 17
ENDMDL
MODEL 8
REMARK VINA RESULT:      -6.1      5.294      8.077
REMARK  17 active torsions:
REMARK  status: ('A' for Active; 'I' for Inactive)
REMARK    1  A    between atoms: O_1  and  C_31 
REMARK    2  A    between atoms: O_1  and  C_33 
REMARK    3  A    between atoms: O_2  and  C_32 
REMARK    4  A    between atoms: O_2  and  C_34 
REMARK    5  A    between atoms: N_5  and  C_19 
REMARK    6  A    between atoms: N_6  and  C_20 
REMARK    7  A    between atoms: N_7  and  C_17 
REMARK       I    between atoms: N_7  and  C_33 
REMARK    8  A    between atoms: N_8  and  C_18 
REMARK       I    between atoms: N_8  and  C_34 
REMARK    9  A    between atoms: C_9  and  C_10 
REMARK   10  A    between atoms: C_9  and  C_11 
REMARK   11  A    between atoms: C_10  and  C_12 
REMARK   12  A    between atoms: C_11  and  C_13 
REMARK   13  A    between atoms: C_12  and  C_14 
REMARK   14  A    between atoms: C_13  and  C_15 
REMARK   15  A    between atoms: C_14  and  C_16 
REMARK   16  A    between atoms: C_15  and  C_17 
REMARK   17  A    between atoms: C_16  and  C_18 
ROOT
HETATM    1  C   UNK N   1      26.840  11.090   2.595  0.00  0.00     0.000 C 
ENDROOT
BRANCH   1   2
HETATM    2  C   UNK N   1      27.513  11.241   1.240  0.00  0.00     0.000 C 
BRANCH   2   3
HETATM    3  C   UNK N   1      28.988  11.566   1.394  0.00  0.00     0.000 C 
BRANCH   3   4
HETATM    4  C   UNK N   1      29.215  13.045   1.166  0.00  0.00     0.002 C 
BRANCH   4   5
HETATM    5  C   UNK N   1      29.546  13.722   2.482  0.00  0.00     0.020 C 
BRANCH   5   6
HETATM    6  C   UNK N   1      31.053  13.746   2.696  0.00  0.00     0.127 C 
BRANCH   6   7
HETATM    7  N   UNK N   1      31.391  14.460   3.912  0.00  0.00    -0.332 N 
HETATM    8  C   UNK N   1      31.898  15.737   3.834  0.00  0.00     0.367 C 
HETATM    9  O   UNK N   1      32.078  16.220   2.725  0.00  0.00    -0.238 OA
HETATM   10  C   UNK N   1      31.171  13.763   5.146  0.00  0.00     0.155 C 
BRANCH   8  11
HETATM   11  O   UNK N   1      32.236  16.527   4.904  0.00  0.00    -0.261 OA
BRANCH  11  12
HETATM   12  C   UNK N   1      31.764  16.987   6.096  0.00  0.00     0.083 A 
HETATM   13  C   UNK N   1      30.408  17.163   6.399  0.00  0.00     0.074 A 
HETATM   14  C   UNK N   1      29.989  17.664   7.655  0.00  0.00     0.138 A 
HETATM   15  C   UNK N   1      30.980  18.019   8.592  0.00  0.00     0.037 A 
HETATM   16  C   UNK N   1      32.331  17.856   8.296  0.00  0.00     0.005 A 
HETATM   17  C   UNK N   1      32.715  17.341   7.059  0.00  0.00     0.037 A 
BRANCH  14  18
HETATM   18  N   UNK N   1      28.594  17.845   7.974  0.00  0.00    -0.049 N 
HETATM   19  C   UNK N   1      28.176  19.144   7.513  0.00  0.00     0.278 C 
HETATM   20  C   UNK N   1      28.396  17.817   9.403  0.00  0.00     0.278 C 
HETATM   21  C   UNK N   1      27.748  16.849   7.359  0.00  0.00     0.278 C 
ENDBRANCH  14  18
ENDBRANCH  11  12
ENDBRANCH   8  11
ENDBRANCH   6   7
ENDBRANCH   5   6
ENDBRANCH   4   5
ENDBRANCH   3   4
ENDBRANCH   2   3
ENDBRANCH   1   2
BRANCH   1  22
HETATM   22  C   UNK N   1      25.402  11.577   2.550  0.00  0.00     0.000 C 
BRANCH  22  23
HETATM   23  C   UNK N   1      25.345  12.952   1.923  0.00  0.00     0.002 C 
BRANCH  23  24
HETATM   24  C   UNK N   1      25.600  14.009   2.981  0.00  0.00     0.020 C 
BRANCH  24  25
HETATM   25  C   UNK N   1      24.537  15.098   2.906  0.00  0.00     0.127 C 
BRANCH  25  26
HETATM   26  N   UNK N   1      24.100  15.486   4.232  0.00  0.00    -0.332 N 
HETATM   27  C   UNK N   1      22.822  15.186   4.644  0.00  0.00     0.367 C 
HETATM   28  O   UNK N   1      22.078  14.620   3.855  0.00  0.00    -0.238 OA
HETATM   29  C   UNK N   1      25.058  16.177   5.044  0.00  0.00     0.155 C 
BRANCH  27  30
HETATM   30  O   UNK N   1      22.291  15.477   5.875  0.00  0.00    -0.261 OA
BRANCH  30  31
HETATM   31  C   UNK N   1      22.113  14.960   7.124  0.00  0.00     0.083 A 
HETATM   32  C   UNK N   1      22.931  13.982   7.702  0.00  0.00     0.074 A 
HETATM   33  C   UNK N   1      22.676  13.477   9.001  0.00  0.00     0.138 A 
HETATM   34  C   UNK N   1      21.548  13.964   9.693  0.00  0.00     0.037 A 
HETATM   35  C   UNK N   1      20.726  14.931   9.120  0.00  0.00     0.005 A 
HETATM   36  C   UNK N   1      21.012  15.424   7.849  0.00  0.00     0.037 A 
BRANCH  33  37
HETATM   37  N   UNK N   1      23.514  12.468   9.603  0.00  0.00    -0.049 N 
HETATM   38  C   UNK N   1      24.820  13.026   9.832  0.00  0.00     0.278 C 
HETATM   39  C   UNK N   1      23.678  11.350   8.705  0.00  0.00     0.278 C 
HETATM   40  C   UNK N   1      22.992  11.989  10.862  0.00  0.00     0.278 C 
ENDBRANCH  33  37
ENDBRANCH  30  31
ENDBRANCH  27  30
ENDBRANCH  25  26
ENDBRANCH  24  25
ENDBRANCH  23  24
ENDBRANCH  22  23
ENDBRANCH   1  22
TORSDOF 17
ENDMDL
MODEL 9
REMARK VINA RESULT:      -6.0      4.317      7.820
REMARK  17 active torsions:
REMARK  status: ('A' for Active; 'I' for Inactive)
REMARK    1  A    between atoms: O_1  and  C_31 
REMARK    2  A    between atoms: O_1  and  C_33 
REMARK    3  A    between atoms: O_2  and  C_32 
REMARK    4  A    between atoms: O_2  and  C_34 
REMARK    5  A    between atoms: N_5  and  C_19 
REMARK    6  A    between atoms: N_6  and  C_20 
REMARK    7  A    between atoms: N_7  and  C_17 
REMARK       I    between atoms: N_7  and  C_33 
REMARK    8  A    between atoms: N_8  and  C_18 
REMARK       I    between atoms: N_8  and  C_34 
REMARK    9  A    between atoms: C_9  and  C_10 
REMARK   10  A    between atoms: C_9  and  C_11 
REMARK   11  A    between atoms: C_10  and  C_12 
REMARK   12  A    between atoms: C_11  and  C_13 
REMARK   13  A    between atoms: C_12  and  C_14 
REMARK   14  A    between atoms: C_13  and  C_15 
REMARK   15  A    between atoms: C_14  and  C_16 
REMARK   16  A    between atoms: C_15  and  C_17 
REMARK   17  A    between atoms: C_16  and  C_18 
ROOT
HETATM    1  C   UNK N   1      23.432  13.955   5.044  0.00  0.00     0.000 C 
ENDROOT
BRANCH   1   2
HETATM    2  C   UNK N   1      23.436  13.479   3.600  0.00  0.00     0.000 C 
BRANCH   2   3
HETATM    3  C   UNK N   1      24.560  14.128   2.812  0.00  0.00     0.000 C 
BRANCH   3   4
HETATM    4  C   UNK N   1      25.243  13.093   1.945  0.00  0.00     0.002 C 
BRANCH   4   5
HETATM    5  C   UNK N   1      26.524  12.630   2.613  0.00  0.00     0.020 C 
BRANCH   5   6
HETATM    6  C   UNK N   1      27.697  13.483   2.149  0.00  0.00     0.127 C 
BRANCH   6   7
HETATM    7  N   UNK N   1      28.545  13.846   3.267  0.00  0.00    -0.332 N 
HETATM    8  C   UNK N   1      29.913  13.840   3.115  0.00  0.00     0.367 C 
HETATM    9  O   UNK N   1      30.373  13.493   2.036  0.00  0.00    -0.238 OA
HETATM   10  C   UNK N   1      27.880  14.191   4.490  0.00  0.00     0.155 C 
BRANCH   8  11
HETATM   11  O   UNK N   1      30.824  14.182   4.082  0.00  0.00    -0.261 OA
BRANCH  11  12
HETATM   12  C   UNK N   1      31.583  15.222   4.530  0.00  0.00     0.083 A 
HETATM   13  C   UNK N   1      31.976  15.404   5.862  0.00  0.00     0.074 A 
HETATM   14  C   UNK N   1      32.749  16.520   6.259  0.00  0.00     0.138 A 
HETATM   15  C   UNK N   1      33.090  17.475   5.280  0.00  0.00     0.037 A 
HETATM   16  C   UNK N   1      32.696  17.306   3.955  0.00  0.00     0.005 A 
HETATM   17  C   UNK N   1      31.952  16.187   3.587  0.00  0.00     0.037 A 
BRANCH  14  18
HETATM   18  N   UNK N   1      33.159  16.712   7.629  0.00  0.00    -0.049 N 
HETATM   19  C   UNK N   1      34.582  16.506   7.723  0.00  0.00     0.278 C 
HETATM   20  C   UNK N   1      32.531  15.733   8.485  0.00  0.00     0.278 C 
HETATM   21  C   UNK N   1      32.856  18.035   8.121  0.00  0.00     0.278 C 
ENDBRANCH  14  18
ENDBRANCH  11  12
ENDBRANCH   8  11
ENDBRANCH   6   7
ENDBRANCH   5   6
ENDBRANCH   4   5
ENDBRANCH   3   4
ENDBRANCH   2   3
ENDBRANCH   1   2
BRANCH   1  22
HETATM   22  C   UNK N   1      22.036  13.885   5.640  0.00  0.00     0.000 C 
BRANCH  22  23
HETATM   23  C   UNK N   1      21.943  14.806   6.837  0.00  0.00     0.002 C 
BRANCH  23  24
HETATM   24  C   UNK N   1      20.702  15.671   6.723  0.00  0.00     0.020 C 
BRANCH  24  25
HETATM   25  C   UNK N   1      20.598  16.262   5.323  0.00  0.00     0.127 C 
BRANCH  25  26
HETATM   26  N   UNK N   1      21.449  17.428   5.189  0.00  0.00    -0.332 N 
HETATM   27  C   UNK N   1      22.189  17.604   4.042  0.00  0.00     0.367 C 
HETATM   28  O   UNK N   1      22.125  16.743   3.175  0.00  0.00    -0.238 OA
HETATM   29  C   UNK N   1      21.462  18.341   6.294  0.00  0.00     0.155 C 
BRANCH  27  30
HETATM   30  O   UNK N   1      23.015  18.667   3.781  0.00  0.00    -0.261 OA
BRANCH  30  31
HETATM   31  C   UNK N   1      24.317  19.064   3.847  0.00  0.00     0.083 A 
HETATM   32  C   UNK N   1      25.267  18.529   4.726  0.00  0.00     0.074 A 
HETATM   33  C   UNK N   1      26.602  19.004   4.751  0.00  0.00     0.138 A 
HETATM   34  C   UNK N   1      26.948  20.060   3.885  0.00  0.00     0.037 A 
HETATM   35  C   UNK N   1      26.006  20.602   3.014  0.00  0.00     0.005 A 
HETATM   36  C   UNK N   1      24.706  20.103   2.995  0.00  0.00     0.037 A 
BRANCH  33  37
HETATM   37  N   UNK N   1      27.585  18.457   5.655  0.00  0.00    -0.049 N 
HETATM   38  C   UNK N   1      28.772  18.130   4.909  0.00  0.00     0.278 C 
HETATM   39  C   UNK N   1      27.101  17.233   6.245  0.00  0.00     0.278 C 
HETATM   40  C   UNK N   1      27.946  19.378   6.708  0.00  0.00     0.278 C 
ENDBRANCH  33  37
ENDBRANCH  30  31
ENDBRANCH  27  30
ENDBRANCH  25  26
ENDBRANCH  24  25
ENDBRANCH  23  24
ENDBRANCH  22  23
ENDBRANCH   1  22
TORSDOF 17
ENDMDL
