REMARK  17 active torsions:
REMARK  status: ('A' for Active; 'I' for Inactive)
REMARK    1  A    between atoms: O_1  and  C_31 
REMARK    2  A    between atoms: O_1  and  C_33 
REMARK    3  A    between atoms: O_2  and  C_32 
REMARK    4  A    between atoms: O_2  and  C_34 
REMARK    5  A    between atoms: N_5  and  C_19 
REMARK    6  A    between atoms: N_6  and  C_20 
REMARK    7  A    between atoms: N_7  and  C_17 
REMARK       I    between atoms: N_7  and  C_33 
REMARK    8  A    between atoms: N_8  and  C_18 
REMARK       I    between atoms: N_8  and  C_34 
REMARK    9  A    between atoms: C_9  and  C_10 
REMARK   10  A    between atoms: C_9  and  C_11 
REMARK   11  A    between atoms: C_10  and  C_12 
REMARK   12  A    between atoms: C_11  and  C_13 
REMARK   13  A    between atoms: C_12  and  C_14 
REMARK   14  A    between atoms: C_13  and  C_15 
REMARK   15  A    between atoms: C_14  and  C_16 
REMARK   16  A    between atoms: C_15  and  C_17 
REMARK   17  A    between atoms: C_16  and  C_18 
ROOT
HETATM    1  C   UNK N   1       7.319   9.322   2.368  0.00  0.00     0.000 C 
ENDROOT
BRANCH   1   2
HETATM    2  C   UNK N   1       7.344   7.802   2.370  0.00  0.00     0.000 C 
BRANCH   2   3
HETATM    3  C   UNK N   1       8.455   7.271   1.481  0.00  0.00     0.000 C 
BRANCH   3   4
HETATM    4  C   UNK N   1       7.905   6.950   0.108  0.00  0.00     0.002 C 
BRANCH   4   5
HETATM    5  C   UNK N   1       8.309   5.543  -0.290  0.00  0.00     0.020 C 
BRANCH   5   6
HETATM    6  C   UNK N   1       7.420   5.041  -1.420  0.00  0.00     0.127 C 
BRANCH   6   7
HETATM    7  N   UNK N   1       6.185   4.489  -0.899  0.00  0.00    -0.332 N 
HETATM    8  C   UNK N   1       5.091   5.306  -0.729  0.00  0.00     0.367 C 
HETATM    9  O   UNK N   1       5.210   6.494  -0.998  0.00  0.00    -0.238 OA
HETATM   10  C   UNK N   1       6.192   3.090  -0.583  0.00  0.00     0.155 C 
BRANCH   8  11
HETATM   11  O   UNK N   1       3.862   4.908  -0.267  0.00  0.00    -0.261 OA
BRANCH  11  12
HETATM   12  C   UNK N   1       3.126   3.797   0.019  0.00  0.00     0.083 A 
HETATM   13  C   UNK N   1       3.570   2.481  -0.164  0.00  0.00     0.074 A 
HETATM   14  C   UNK N   1       2.743   1.373   0.138  0.00  0.00     0.138 A 
HETATM   15  C   UNK N   1       1.435   1.626   0.599  0.00  0.00     0.037 A 
HETATM   16  C   UNK N   1       0.983   2.931   0.775  0.00  0.00     0.005 A 
HETATM   17  C   UNK N   1       1.825   4.004   0.490  0.00  0.00     0.037 A 
BRANCH  14  18
HETATM   18  N   UNK N   1       3.195   0.015  -0.046  0.00  0.00    -0.049 N 
HETATM   19  C   UNK N   1       2.526  -0.547  -1.191  0.00  0.00     0.278 C 
HETATM   20  C   UNK N   1       2.838  -0.794   1.095  0.00  0.00     0.278 C 
HETATM   21  C   UNK N   1       4.620  -0.073  -0.261  0.00  0.00     0.278 C 
ENDBRANCH  14  18
ENDBRANCH  11  12
ENDBRANCH   8  11
ENDBRANCH   6   7
ENDBRANCH   5   6
ENDBRANCH   4   5
ENDBRANCH   3   4
ENDBRANCH   2   3
ENDBRANCH   1   2
BRANCH   1  22
HETATM   22  C   UNK N   1       6.206   9.850   1.479  0.00  0.00     0.000 C 
BRANCH  22  23
HETATM   23  C   UNK N   1       6.752  10.161   0.103  0.00  0.00     0.002 C 
BRANCH  23  24
HETATM   24  C   UNK N   1       6.350  11.566  -0.303  0.00  0.00     0.020 C 
BRANCH  24  25
HETATM   25  C   UNK N   1       7.240  12.064  -1.434  0.00  0.00     0.127 C 
BRANCH  25  26
HETATM   26  N   UNK N   1       8.474  12.619  -0.915  0.00  0.00    -0.332 N 
HETATM   27  C   UNK N   1       9.566  11.802  -0.733  0.00  0.00     0.367 C 
HETATM   28  O   UNK N   1       9.447  10.612  -0.991  0.00  0.00    -0.238 OA
HETATM   29  C   UNK N   1       8.469  14.021  -0.617  0.00  0.00     0.155 C 
BRANCH  27  30
HETATM   30  O   UNK N   1      10.794  12.202  -0.270  0.00  0.00    -0.261 OA
BRANCH  30  31
HETATM   31  C   UNK N   1      11.530  13.313   0.016  0.00  0.00     0.083 A 
HETATM   32  C   UNK N   1      11.085  14.629  -0.163  0.00  0.00     0.074 A 
HETATM   33  C   UNK N   1      11.913  15.738   0.140  0.00  0.00     0.138 A 
HETATM   34  C   UNK N   1      13.221  15.484   0.600  0.00  0.00     0.037 A 
HETATM   35  C   UNK N   1      13.673  14.178   0.773  0.00  0.00     0.005 A 
HETATM   36  C   UNK N   1      12.831  13.106   0.486  0.00  0.00     0.037 A 
BRANCH  33  37
HETATM   37  N   UNK N   1      11.461  17.096  -0.043  0.00  0.00    -0.049 N 
HETATM   38  C   UNK N   1      12.129  17.658  -1.187  0.00  0.00     0.278 C 
HETATM   39  C   UNK N   1      11.818  17.903   1.099  0.00  0.00     0.278 C 
HETATM   40  C   UNK N   1      10.035  17.184  -0.256  0.00  0.00     0.278 C 
ENDBRANCH  33  37
ENDBRANCH  30  31
ENDBRANCH  27  30
ENDBRANCH  25  26
ENDBRANCH  24  25
ENDBRANCH  23  24
ENDBRANCH  22  23
ENDBRANCH   1  22
TORSDOF 17
