REMARK  4 active torsions:
REMARK  status: ('A' for Active; 'I' for Inactive)
REMARK    1  A    between atoms: O_1  and  C_5 
REMARK    2  A    between atoms: O_1  and  C_12 
REMARK    3  A    between atoms: O_2  and  C_11 
REMARK    4  A    between atoms: C_6  and  C_11 
ROOT
HETATM    1  C   UNK N   1       3.885  -0.528   0.000  0.00  0.00     0.096 A 
HETATM    2  C   UNK N   1       5.079   0.236   0.000  0.00  0.00     0.071 A 
HETATM    3  C   UNK N   1       3.972  -1.933  -0.000  0.00  0.00     0.038 A 
HETATM    4  C   UNK N   1       6.318  -0.422  -0.000  0.00  0.00     0.021 A 
HETATM    5  C   UNK N   1       5.214  -2.571  -0.000  0.00  0.00     0.003 A 
HETATM    6  C   UNK N   1       6.386  -1.816  -0.000  0.00  0.00     0.001 A 
ENDROOT
BRANCH   1   7
HETATM    7  O   UNK N   1       2.685   0.114   0.000  0.00  0.00    -0.278 OA
BRANCH   7   8
HETATM    8  C   UNK N   1       1.435  -0.422  -0.000  0.00  0.00     0.260 C 
HETATM    9  O   UNK N   1       1.256  -1.630  -0.000  0.00  0.00    -0.265 OA
HETATM   10  C   UNK N   1       0.260   0.492  -0.000  0.00  0.00     0.126 C 
ENDBRANCH   7   8
ENDBRANCH   1   7
BRANCH   2  11
HETATM   11  C   UNK N   1       5.059   1.723   0.000  0.00  0.00     0.178 C 
HETATM   12  O   UNK N   1       4.005   2.337   0.000  0.00  0.00    -0.646 OA
BRANCH  11  13
HETATM   13  O   UNK N   1       6.219   2.409   0.000  0.00  0.00    -0.773 OA
HETATM   14  H   UNK N   1       7.036   1.950   0.000  0.00  0.00     0.167 HD
ENDBRANCH  11  13
ENDBRANCH   2  11
TORSDOF 4
