MODEL 1
REMARK VINA RESULT:      -5.6      0.000      0.000
REMARK  4 active torsions:
REMARK  status: ('A' for Active; 'I' for Inactive)
REMARK    1  A    between atoms: O_1  and  C_5 
REMARK    2  A    between atoms: O_1  and  C_12 
REMARK    3  A    between atoms: O_2  and  C_11 
REMARK    4  A    between atoms: C_6  and  C_11 
ROOT
HETATM    1  C   UNK N   1      21.991  19.616   3.207  0.00  0.00     0.096 A 
HETATM    2  C   UNK N   1      21.004  19.671   2.191  0.00  0.00     0.071 A 
HETATM    3  C   UNK N   1      21.968  18.551   4.126  0.00  0.00     0.038 A 
HETATM    4  C   UNK N   1      20.028  18.667   2.124  0.00  0.00     0.021 A 
HETATM    5  C   UNK N   1      20.988  17.559   4.045  0.00  0.00     0.003 A 
HETATM    6  C   UNK N   1      20.019  17.617   3.044  0.00  0.00     0.001 A 
ENDROOT
BRANCH   1   7
HETATM    7  O   UNK N   1      22.937  20.593   3.268  0.00  0.00    -0.278 OA
BRANCH   7   8
HETATM    8  C   UNK N   1      24.254  20.522   2.937  0.00  0.00     0.260 C 
HETATM    9  O   UNK N   1      24.641  20.739   1.799  0.00  0.00    -0.265 OA
HETATM   10  C   UNK N   1      25.244  20.171   3.992  0.00  0.00     0.126 C 
ENDBRANCH   7   8
ENDBRANCH   1   7
BRANCH   2  11
HETATM   11  C   UNK N   1      20.972  20.769   1.187  0.00  0.00     0.178 C 
HETATM   12  O   UNK N   1      21.069  20.532  -0.005  0.00  0.00    -0.646 OA
BRANCH  11  13
HETATM   13  O   UNK N   1      20.833  22.046   1.595  0.00  0.00    -0.773 OA
HETATM   14  H   UNK N   1      21.120  22.300   2.450  0.00  0.00     0.167 HD
ENDBRANCH  11  13
ENDBRANCH   2  11
TORSDOF 4
ENDMDL
MODEL 2
REMARK VINA RESULT:      -5.2      9.315     11.229
REMARK  4 active torsions:
REMARK  status: ('A' for Active; 'I' for Inactive)
REMARK    1  A    between atoms: O_1  and  C_5 
REMARK    2  A    between atoms: O_1  and  C_12 
REMARK    3  A    between atoms: O_2  and  C_11 
REMARK    4  A    between atoms: C_6  and  C_11 
ROOT
HETATM    1  C   UNK N   1      25.538  25.615  -5.293  0.00  0.00     0.096 A 
HETATM    2  C   UNK N   1      26.326  25.589  -4.115  0.00  0.00     0.071 A 
HETATM    3  C   UNK N   1      24.882  26.808  -5.651  0.00  0.00     0.038 A 
HETATM    4  C   UNK N   1      26.435  26.749  -3.334  0.00  0.00     0.021 A 
HETATM    5  C   UNK N   1      25.002  27.953  -4.861  0.00  0.00     0.003 A 
HETATM    6  C   UNK N   1      25.778  27.923  -3.703  0.00  0.00     0.001 A 
ENDROOT
BRANCH   1   7
HETATM    7  O   UNK N   1      25.435  24.488  -6.049  0.00  0.00    -0.278 OA
BRANCH   7   8
HETATM    8  C   UNK N   1      25.778  24.305  -7.352  0.00  0.00     0.260 C 
HETATM    9  O   UNK N   1      25.022  23.763  -8.144  0.00  0.00    -0.265 OA
HETATM   10  C   UNK N   1      27.110  24.778  -7.819  0.00  0.00     0.126 C 
ENDBRANCH   7   8
ENDBRANCH   1   7
BRANCH   2  11
HETATM   11  C   UNK N   1      27.045  24.363  -3.679  0.00  0.00     0.178 C 
HETATM   12  O   UNK N   1      26.825  23.859  -2.591  0.00  0.00    -0.646 OA
BRANCH  11  13
HETATM   13  O   UNK N   1      27.955  23.794  -4.495  0.00  0.00    -0.773 OA
HETATM   14  H   UNK N   1      28.632  23.253  -4.138  0.00  0.00     0.167 HD
ENDBRANCH  11  13
ENDBRANCH   2  11
TORSDOF 4
ENDMDL
MODEL 3
REMARK VINA RESULT:      -5.1     10.529     12.298
REMARK  4 active torsions:
REMARK  status: ('A' for Active; 'I' for Inactive)
REMARK    1  A    between atoms: O_1  and  C_5 
REMARK    2  A    between atoms: O_1  and  C_12 
REMARK    3  A    between atoms: O_2  and  C_11 
REMARK    4  A    between atoms: C_6  and  C_11 
ROOT
HETATM    1  C   UNK N   1      31.851  17.321   7.426  0.00  0.00     0.096 A 
HETATM    2  C   UNK N   1      33.212  17.671   7.237  0.00  0.00     0.071 A 
HETATM    3  C   UNK N   1      31.074  16.972   6.305  0.00  0.00     0.038 A 
HETATM    4  C   UNK N   1      33.753  17.661   5.943  0.00  0.00     0.021 A 
HETATM    5  C   UNK N   1      31.629  16.967   5.024  0.00  0.00     0.003 A 
HETATM    6  C   UNK N   1      32.968  17.312   4.843  0.00  0.00     0.001 A 
ENDROOT
BRANCH   1   7
HETATM    7  O   UNK N   1      31.330  17.332   8.683  0.00  0.00    -0.278 OA
BRANCH   7   8
HETATM    8  C   UNK N   1      30.297  18.072   9.167  0.00  0.00     0.260 C 
HETATM    9  O   UNK N   1      30.341  19.292   9.197  0.00  0.00    -0.265 OA
HETATM   10  C   UNK N   1      29.084  17.371   9.672  0.00  0.00     0.126 C 
ENDBRANCH   7   8
ENDBRANCH   1   7
BRANCH   2  11
HETATM   11  C   UNK N   1      34.090  18.050   8.376  0.00  0.00     0.178 C 
HETATM   12  O   UNK N   1      34.879  18.975   8.281  0.00  0.00    -0.646 OA
BRANCH  11  13
HETATM   13  O   UNK N   1      34.017  17.365   9.535  0.00  0.00    -0.773 OA
HETATM   14  H   UNK N   1      33.197  17.280   9.980  0.00  0.00     0.167 HD
ENDBRANCH  11  13
ENDBRANCH   2  11
TORSDOF 4
ENDMDL
MODEL 4
REMARK VINA RESULT:      -5.0     19.939     21.106
REMARK  4 active torsions:
REMARK  status: ('A' for Active; 'I' for Inactive)
REMARK    1  A    between atoms: O_1  and  C_5 
REMARK    2  A    between atoms: O_1  and  C_12 
REMARK    3  A    between atoms: O_2  and  C_11 
REMARK    4  A    between atoms: C_6  and  C_11 
ROOT
HETATM    1  C   UNK N   1      35.788  12.337  16.280  0.00  0.00     0.096 A 
HETATM    2  C   UNK N   1      36.695  12.757  15.274  0.00  0.00     0.071 A 
HETATM    3  C   UNK N   1      35.651  10.961  16.546  0.00  0.00     0.038 A 
HETATM    4  C   UNK N   1      37.434  11.796  14.569  0.00  0.00     0.021 A 
HETATM    5  C   UNK N   1      36.395  10.019  15.834  0.00  0.00     0.003 A 
HETATM    6  C   UNK N   1      37.286  10.436  14.846  0.00  0.00     0.001 A 
ENDROOT
BRANCH   1   7
HETATM    7  O   UNK N   1      35.073  13.272  16.962  0.00  0.00    -0.278 OA
BRANCH   7   8
HETATM    8  C   UNK N   1      35.330  13.814  18.183  0.00  0.00     0.260 C 
HETATM    9  O   UNK N   1      35.717  14.966  18.303  0.00  0.00    -0.265 OA
HETATM   10  C   UNK N   1      35.133  12.977  19.398  0.00  0.00     0.126 C 
ENDBRANCH   7   8
ENDBRANCH   1   7
BRANCH   2  11
HETATM   11  C   UNK N   1      36.888  14.193  14.942  0.00  0.00     0.178 C 
HETATM   12  O   UNK N   1      36.412  14.673  13.927  0.00  0.00    -0.646 OA
BRANCH  11  13
HETATM   13  O   UNK N   1      37.600  14.983  15.771  0.00  0.00    -0.773 OA
HETATM   14  H   UNK N   1      38.498  15.173  15.582  0.00  0.00     0.167 HD
ENDBRANCH  11  13
ENDBRANCH   2  11
TORSDOF 4
ENDMDL
MODEL 5
REMARK VINA RESULT:      -4.9     10.425     12.535
REMARK  4 active torsions:
REMARK  status: ('A' for Active; 'I' for Inactive)
REMARK    1  A    between atoms: O_1  and  C_5 
REMARK    2  A    between atoms: O_1  and  C_12 
REMARK    3  A    between atoms: O_2  and  C_11 
REMARK    4  A    between atoms: C_6  and  C_11 
ROOT
HETATM    1  C   UNK N   1      33.000  17.489   7.607  0.00  0.00     0.096 A 
HETATM    2  C   UNK N   1      31.618  17.228   7.431  0.00  0.00     0.071 A 
HETATM    3  C   UNK N   1      33.824  17.610   6.472  0.00  0.00     0.038 A 
HETATM    4  C   UNK N   1      31.102  17.096   6.133  0.00  0.00     0.021 A 
HETATM    5  C   UNK N   1      33.293  17.475   5.188  0.00  0.00     0.003 A 
HETATM    6  C   UNK N   1      31.933  17.218   5.019  0.00  0.00     0.001 A 
ENDROOT
BRANCH   1   7
HETATM    7  O   UNK N   1      33.497  17.617   8.868  0.00  0.00    -0.278 OA
BRANCH   7   8
HETATM    8  C   UNK N   1      34.550  16.969   9.436  0.00  0.00     0.260 C 
HETATM    9  O   UNK N   1      35.454  17.577   9.986  0.00  0.00    -0.265 OA
HETATM   10  C   UNK N   1      34.594  15.482   9.381  0.00  0.00     0.126 C 
ENDBRANCH   7   8
ENDBRANCH   1   7
BRANCH   2  11
HETATM   11  C   UNK N   1      30.692  17.090   8.586  0.00  0.00     0.178 C 
HETATM   12  O   UNK N   1      29.614  17.660   8.599  0.00  0.00    -0.646 OA
BRANCH  11  13
HETATM   13  O   UNK N   1      31.043  16.324   9.639  0.00  0.00    -0.773 OA
HETATM   14  H   UNK N   1      31.896  16.409  10.018  0.00  0.00     0.167 HD
ENDBRANCH  11  13
ENDBRANCH   2  11
TORSDOF 4
ENDMDL
MODEL 6
REMARK VINA RESULT:      -4.9      6.552      9.458
REMARK  4 active torsions:
REMARK  status: ('A' for Active; 'I' for Inactive)
REMARK    1  A    between atoms: O_1  and  C_5 
REMARK    2  A    between atoms: O_1  and  C_12 
REMARK    3  A    between atoms: O_2  and  C_11 
REMARK    4  A    between atoms: C_6  and  C_11 
ROOT
HETATM    1  C   UNK N   1      29.219  17.626   6.713  0.00  0.00     0.096 A 
HETATM    2  C   UNK N   1      29.282  17.490   8.123  0.00  0.00     0.071 A 
HETATM    3  C   UNK N   1      30.370  17.359   5.948  0.00  0.00     0.038 A 
HETATM    4  C   UNK N   1      30.486  17.093   8.724  0.00  0.00     0.021 A 
HETATM    5  C   UNK N   1      31.560  16.966   6.563  0.00  0.00     0.003 A 
HETATM    6  C   UNK N   1      31.618  16.833   7.950  0.00  0.00     0.001 A 
ENDROOT
BRANCH   1   7
HETATM    7  O   UNK N   1      28.049  18.011   6.134  0.00  0.00    -0.278 OA
BRANCH   7   8
HETATM    8  C   UNK N   1      27.730  19.211   5.580  0.00  0.00     0.260 C 
HETATM    9  O   UNK N   1      27.655  20.228   6.252  0.00  0.00    -0.265 OA
HETATM   10  C   UNK N   1      27.468  19.281   4.116  0.00  0.00     0.126 C 
ENDBRANCH   7   8
ENDBRANCH   1   7
BRANCH   2  11
HETATM   11  C   UNK N   1      28.103  17.756   8.990  0.00  0.00     0.178 C 
HETATM   12  O   UNK N   1      27.674  16.900   9.746  0.00  0.00    -0.646 OA
BRANCH  11  13
HETATM   13  O   UNK N   1      27.496  18.958   8.946  0.00  0.00    -0.773 OA
HETATM   14  H   UNK N   1      27.417  19.414   8.132  0.00  0.00     0.167 HD
ENDBRANCH  11  13
ENDBRANCH   2  11
TORSDOF 4
ENDMDL
MODEL 7
REMARK VINA RESULT:      -4.8     11.751     13.397
REMARK  4 active torsions:
REMARK  status: ('A' for Active; 'I' for Inactive)
REMARK    1  A    between atoms: O_1  and  C_5 
REMARK    2  A    between atoms: O_1  and  C_12 
REMARK    3  A    between atoms: O_2  and  C_11 
REMARK    4  A    between atoms: C_6  and  C_11 
ROOT
HETATM    1  C   UNK N   1      33.856  17.143   5.659  0.00  0.00     0.096 A 
HETATM    2  C   UNK N   1      34.229  15.784   5.506  0.00  0.00     0.071 A 
HETATM    3  C   UNK N   1      32.776  17.644   4.908  0.00  0.00     0.038 A 
HETATM    4  C   UNK N   1      33.516  14.970   4.614  0.00  0.00     0.021 A 
HETATM    5  C   UNK N   1      32.078  16.819   4.024  0.00  0.00     0.003 A 
HETATM    6  C   UNK N   1      32.448  15.483   3.877  0.00  0.00     0.001 A 
ENDROOT
BRANCH   1   7
HETATM    7  O   UNK N   1      34.551  17.930   6.525  0.00  0.00    -0.278 OA
BRANCH   7   8
HETATM    8  C   UNK N   1      34.225  18.285   7.797  0.00  0.00     0.260 C 
HETATM    9  O   UNK N   1      34.882  19.103   8.422  0.00  0.00    -0.265 OA
HETATM   10  C   UNK N   1      33.036  17.658   8.438  0.00  0.00     0.126 C 
ENDBRANCH   7   8
ENDBRANCH   1   7
BRANCH   2  11
HETATM   11  C   UNK N   1      35.360  15.190   6.269  0.00  0.00     0.178 C 
HETATM   12  O   UNK N   1      36.422  14.939   5.723  0.00  0.00    -0.646 OA
BRANCH  11  13
HETATM   13  O   UNK N   1      35.216  14.923   7.582  0.00  0.00    -0.773 OA
HETATM   14  H   UNK N   1      35.046  15.619   8.186  0.00  0.00     0.167 HD
ENDBRANCH  11  13
ENDBRANCH   2  11
TORSDOF 4
ENDMDL
MODEL 8
REMARK VINA RESULT:      -4.8     19.032     20.907
REMARK  4 active torsions:
REMARK  status: ('A' for Active; 'I' for Inactive)
REMARK    1  A    between atoms: O_1  and  C_5 
REMARK    2  A    between atoms: O_1  and  C_12 
REMARK    3  A    between atoms: O_2  and  C_11 
REMARK    4  A    between atoms: C_6  and  C_11 
ROOT
HETATM    1  C   UNK N   1      35.739  11.523  16.572  0.00  0.00     0.096 A 
HETATM    2  C   UNK N   1      35.696  12.929  16.397  0.00  0.00     0.071 A 
HETATM    3  C   UNK N   1      35.507  10.986  17.852  0.00  0.00     0.038 A 
HETATM    4  C   UNK N   1      35.424  13.753  17.500  0.00  0.00     0.021 A 
HETATM    5  C   UNK N   1      35.237  11.820  18.939  0.00  0.00     0.003 A 
HETATM    6  C   UNK N   1      35.196  13.203  18.763  0.00  0.00     0.001 A 
ENDROOT
BRANCH   1   7
HETATM    7  O   UNK N   1      36.003  10.728  15.500  0.00  0.00    -0.278 OA
BRANCH   7   8
HETATM    8  C   UNK N   1      35.151   9.925  14.807  0.00  0.00     0.260 C 
HETATM    9  O   UNK N   1      35.438   8.770  14.536  0.00  0.00    -0.265 OA
HETATM   10  C   UNK N   1      33.838  10.475  14.372  0.00  0.00     0.126 C 
ENDBRANCH   7   8
ENDBRANCH   1   7
BRANCH   2  11
HETATM   11  C   UNK N   1      35.931  13.563  15.073  0.00  0.00     0.178 C 
HETATM   12  O   UNK N   1      35.038  13.640  14.245  0.00  0.00    -0.646 OA
BRANCH  11  13
HETATM   13  O   UNK N   1      37.147  14.063  14.776  0.00  0.00    -0.773 OA
HETATM   14  H   UNK N   1      37.235  14.958  14.512  0.00  0.00     0.167 HD
ENDBRANCH  11  13
ENDBRANCH   2  11
TORSDOF 4
ENDMDL
MODEL 9
REMARK VINA RESULT:      -4.7      7.642      9.012
REMARK  4 active torsions:
REMARK  status: ('A' for Active; 'I' for Inactive)
REMARK    1  A    between atoms: O_1  and  C_5 
REMARK    2  A    between atoms: O_1  and  C_12 
REMARK    3  A    between atoms: O_2  and  C_11 
REMARK    4  A    between atoms: C_6  and  C_11 
ROOT
HETATM    1  C   UNK N   1      28.662  18.223   6.211  0.00  0.00     0.096 A 
HETATM    2  C   UNK N   1      28.205  19.019   7.290  0.00  0.00     0.071 A 
HETATM    3  C   UNK N   1      28.462  18.676   4.893  0.00  0.00     0.038 A 
HETATM    4  C   UNK N   1      27.564  20.238   7.024  0.00  0.00     0.021 A 
HETATM    5  C   UNK N   1      27.822  19.893   4.647  0.00  0.00     0.003 A 
HETATM    6  C   UNK N   1      27.373  20.673   5.711  0.00  0.00     0.001 A 
ENDROOT
BRANCH   1   7
HETATM    7  O   UNK N   1      29.283  17.041   6.473  0.00  0.00    -0.278 OA
BRANCH   7   8
HETATM    8  C   UNK N   1      30.612  16.797   6.635  0.00  0.00     0.260 C 
HETATM    9  O   UNK N   1      31.065  16.401   7.697  0.00  0.00    -0.265 OA
HETATM   10  C   UNK N   1      31.530  17.020   5.485  0.00  0.00     0.126 C 
ENDBRANCH   7   8
ENDBRANCH   1   7
BRANCH   2  11
HETATM   11  C   UNK N   1      28.384  18.600   8.706  0.00  0.00     0.178 C 
HETATM   12  O   UNK N   1      29.422  18.833   9.303  0.00  0.00    -0.646 OA
BRANCH  11  13
HETATM   13  O   UNK N   1      27.390  17.953   9.344  0.00  0.00    -0.773 OA
HETATM   14  H   UNK N   1      27.557  17.521  10.159  0.00  0.00     0.167 HD
ENDBRANCH  11  13
ENDBRANCH   2  11
TORSDOF 4
ENDMDL
