MODEL 1
REMARK VINA RESULT:      -8.5      0.000      0.000
REMARK  7 active torsions:
REMARK  status: ('A' for Active; 'I' for Inactive)
REMARK    1  A    between atoms: S_2  and  N_15 
REMARK    2  A    between atoms: O_4  and  C_23 
REMARK    3  A    between atoms: C_19  and  N_12 
REMARK       I    between atoms: N_12  and  C_24 
REMARK    4  A    between atoms: C_25  and  N_13 
REMARK       I    between atoms: N_13  and  C_27 
REMARK       I    between atoms: N_14  and  C_27 
REMARK    5  A    between atoms: C_18  and  C_23 
REMARK    6  A    between atoms: C_24  and  C_25 
REMARK    7  A    between atoms: C_25  and  C_26 
ROOT
HETATM    1  C   UNK N   1      27.498  17.091   4.518  0.00  0.00     0.211 C 
ENDROOT
BRANCH   1   2
HETATM    2  N   UNK N   1      28.800  16.469   4.687  0.00  0.00    -0.325 N 
HETATM    3  C   UNK N   1      29.769  16.307   3.759  0.00  0.00     0.327 C 
HETATM    4  O   UNK N   1      29.502  16.339   2.568  0.00  0.00    -0.247 OA
HETATM    5  N   UNK N   1      31.073  16.225   4.156  0.00  0.00    -0.249 N 
HETATM    6  C   UNK N   1      32.174  16.163   3.224  0.00  0.00     0.159 A 
HETATM    7  C   UNK N   1      31.535  16.326   5.418  0.00  0.00     0.342 A 
HETATM    8  C   UNK N   1      33.425  16.279   4.137  0.00  0.00     0.167 A 
HETATM    9  N   UNK N   1      32.868  16.381   5.466  0.00  0.00    -0.225 N 
HETATM   10  O   UNK N   1      30.824  16.419   6.409  0.00  0.00    -0.245 OA
HETATM   11  H   UNK N   1      29.000  16.122   5.586  0.00  0.00     0.165 HD
BRANCH   9  12
HETATM   12  S   UNK N   1      33.873  16.611   6.905  0.00  0.00     0.232 S 
HETATM   13  O   UNK N   1      34.157  17.899   6.114  0.00  0.00    -0.206 OA
HETATM   14  O   UNK N   1      35.207  16.070   6.373  0.00  0.00    -0.206 OA
HETATM   15  C   UNK N   1      34.391  17.991   7.964  0.00  0.00     0.186 C 
ENDBRANCH   9  12
ENDBRANCH   1   2
BRANCH   1  16
HETATM   16  C   UNK N   1      26.443  16.054   4.770  0.00  0.00     0.245 C 
HETATM   17  O   UNK N   1      26.555  15.246   5.680  0.00  0.00    -0.271 OA
HETATM   18  N   UNK N   1      25.302  16.138   4.036  0.00  0.00    -0.343 N 
HETATM   19  H   UNK N   1      25.341  16.718   3.240  0.00  0.00     0.163 HD
BRANCH  18  20
HETATM   20  C   UNK N   1      24.039  15.483   4.279  0.00  0.00     0.210 A 
HETATM   21  C   UNK N   1      22.944  16.447   3.531  0.00  0.00     0.183 A 
HETATM   22  S   UNK N   1      21.359  15.800   2.920  0.00  0.00    -0.129 SA
HETATM   23  N   UNK N   1      22.581  16.888   4.809  0.00  0.00    -0.318 N 
HETATM   24  C   UNK N   1      20.378  16.920   4.053  0.00  0.00     0.033 C 
HETATM   25  C   UNK N   1      21.363  17.563   5.062  0.00  0.00     0.204 C 
HETATM   26  C   UNK N   1      19.737  18.028   3.240  0.00  0.00     0.029 C 
HETATM   27  C   UNK N   1      19.299  16.068   4.695  0.00  0.00     0.029 C 
HETATM   28  C   UNK N   1      23.381  16.109   5.460  0.00  0.00     0.247 A 
HETATM   29  O   UNK N   1      23.339  15.811   6.642  0.00  0.00    -0.271 OA
BRANCH  25  30
HETATM   30  C   UNK N   1      21.049  17.724   6.535  0.00  0.00     0.165 C 
HETATM   31  O   UNK N   1      21.010  18.822   7.062  0.00  0.00    -0.648 OA
BRANCH  30  32
HETATM   32  O   UNK N   1      20.809  16.627   7.278  0.00  0.00    -0.775 OA
HETATM   33  H   UNK N   1      19.951  16.280   7.424  0.00  0.00     0.167 HD
ENDBRANCH  30  32
ENDBRANCH  25  30
ENDBRANCH  18  20
ENDBRANCH   1  16
BRANCH   1  34
HETATM   34  C   UNK N   1      27.230  18.486   5.011  0.00  0.00    -0.026 A 
HETATM   35  C   UNK N   1      27.699  18.847   6.279  0.00  0.00     0.010 A 
HETATM   36  C   UNK N   1      27.534  20.153   6.748  0.00  0.00     0.001 A 
HETATM   37  C   UNK N   1      26.902  21.107   5.946  0.00  0.00     0.000 A 
HETATM   38  C   UNK N   1      26.442  20.755   4.673  0.00  0.00     0.001 A 
HETATM   39  C   UNK N   1      26.618  19.452   4.200  0.00  0.00     0.010 A 
ENDBRANCH   1  34
TORSDOF 7
ENDMDL
MODEL 2
REMARK VINA RESULT:      -7.9      1.596      1.817
REMARK  7 active torsions:
REMARK  status: ('A' for Active; 'I' for Inactive)
REMARK    1  A    between atoms: S_2  and  N_15 
REMARK    2  A    between atoms: O_4  and  C_23 
REMARK    3  A    between atoms: C_19  and  N_12 
REMARK       I    between atoms: N_12  and  C_24 
REMARK    4  A    between atoms: C_25  and  N_13 
REMARK       I    between atoms: N_13  and  C_27 
REMARK       I    between atoms: N_14  and  C_27 
REMARK    5  A    between atoms: C_18  and  C_23 
REMARK    6  A    between atoms: C_24  and  C_25 
REMARK    7  A    between atoms: C_25  and  C_26 
ROOT
HETATM    1  C   UNK N   1      27.537  17.322   4.451  0.00  0.00     0.211 C 
ENDROOT
BRANCH   1   2
HETATM    2  N   UNK N   1      28.810  16.650   4.650  0.00  0.00    -0.325 N 
HETATM    3  C   UNK N   1      29.777  16.417   3.735  0.00  0.00     0.327 C 
HETATM    4  O   UNK N   1      29.519  16.423   2.541  0.00  0.00    -0.247 OA
HETATM    5  N   UNK N   1      31.074  16.292   4.144  0.00  0.00    -0.249 N 
HETATM    6  C   UNK N   1      32.177  16.154   3.223  0.00  0.00     0.159 A 
HETATM    7  C   UNK N   1      31.532  16.414   5.406  0.00  0.00     0.342 A 
HETATM    8  C   UNK N   1      33.426  16.245   4.142  0.00  0.00     0.167 A 
HETATM    9  N   UNK N   1      32.865  16.413   5.463  0.00  0.00    -0.225 N 
HETATM   10  O   UNK N   1      30.819  16.568   6.388  0.00  0.00    -0.245 OA
HETATM   11  H   UNK N   1      28.989  16.324   5.561  0.00  0.00     0.165 HD
BRANCH   9  12
HETATM   12  S   UNK N   1      33.870  16.645   6.901  0.00  0.00     0.232 S 
HETATM   13  O   UNK N   1      34.187  17.911   6.088  0.00  0.00    -0.206 OA
HETATM   14  O   UNK N   1      35.193  16.063   6.385  0.00  0.00    -0.206 OA
HETATM   15  C   UNK N   1      34.417  18.032   7.938  0.00  0.00     0.186 C 
ENDBRANCH   9  12
ENDBRANCH   1   2
BRANCH   1  16
HETATM   16  C   UNK N   1      26.441  16.306   4.591  0.00  0.00     0.245 C 
HETATM   17  O   UNK N   1      26.680  15.165   4.957  0.00  0.00    -0.271 OA
HETATM   18  N   UNK N   1      25.164  16.745   4.430  0.00  0.00    -0.343 N 
HETATM   19  H   UNK N   1      25.060  17.628   4.006  0.00  0.00     0.163 HD
BRANCH  18  20
HETATM   20  C   UNK N   1      23.941  16.074   4.802  0.00  0.00     0.210 A 
HETATM   21  C   UNK N   1      23.452  15.348   3.416  0.00  0.00     0.183 A 
HETATM   22  S   UNK N   1      22.412  13.857   3.432  0.00  0.00    -0.129 SA
HETATM   23  N   UNK N   1      22.482  16.353   3.328  0.00  0.00    -0.318 N 
HETATM   24  C   UNK N   1      21.023  14.723   2.525  0.00  0.00     0.033 C 
HETATM   25  C   UNK N   1      21.344  16.240   2.494  0.00  0.00     0.204 C 
HETATM   26  C   UNK N   1      20.959  14.220   1.097  0.00  0.00     0.029 C 
HETATM   27  C   UNK N   1      19.736  14.376   3.249  0.00  0.00     0.029 C 
HETATM   28  C   UNK N   1      22.781  16.936   4.442  0.00  0.00     0.247 A 
HETATM   29  O   UNK N   1      22.104  17.726   5.079  0.00  0.00    -0.271 OA
BRANCH  25  30
HETATM   30  C   UNK N   1      20.300  17.311   2.736  0.00  0.00     0.165 C 
HETATM   31  O   UNK N   1      20.199  18.279   2.004  0.00  0.00    -0.648 OA
BRANCH  30  32
HETATM   32  O   UNK N   1      19.467  17.188   3.787  0.00  0.00    -0.775 OA
HETATM   33  H   UNK N   1      18.571  17.460   3.769  0.00  0.00     0.167 HD
ENDBRANCH  30  32
ENDBRANCH  25  30
ENDBRANCH  18  20
ENDBRANCH   1  16
BRANCH   1  34
HETATM   34  C   UNK N   1      27.285  18.696   5.008  0.00  0.00    -0.026 A 
HETATM   35  C   UNK N   1      27.590  18.937   6.352  0.00  0.00     0.010 A 
HETATM   36  C   UNK N   1      27.437  20.217   6.892  0.00  0.00     0.001 A 
HETATM   37  C   UNK N   1      26.982  21.264   6.086  0.00  0.00     0.000 A 
HETATM   38  C   UNK N   1      26.688  21.031   4.739  0.00  0.00     0.001 A 
HETATM   39  C   UNK N   1      26.851  19.754   4.197  0.00  0.00     0.010 A 
ENDBRANCH   1  34
TORSDOF 7
ENDMDL
MODEL 3
REMARK VINA RESULT:      -7.9      2.894      9.869
REMARK  7 active torsions:
REMARK  status: ('A' for Active; 'I' for Inactive)
REMARK    1  A    between atoms: S_2  and  N_15 
REMARK    2  A    between atoms: O_4  and  C_23 
REMARK    3  A    between atoms: C_19  and  N_12 
REMARK       I    between atoms: N_12  and  C_24 
REMARK    4  A    between atoms: C_25  and  N_13 
REMARK       I    between atoms: N_13  and  C_27 
REMARK       I    between atoms: N_14  and  C_27 
REMARK    5  A    between atoms: C_18  and  C_23 
REMARK    6  A    between atoms: C_24  and  C_25 
REMARK    7  A    between atoms: C_25  and  C_26 
ROOT
HETATM    1  C   UNK N   1      27.322  17.327   5.513  0.00  0.00     0.211 C 
ENDROOT
BRANCH   1   2
HETATM    2  N   UNK N   1      26.235  18.264   5.286  0.00  0.00    -0.325 N 
HETATM    3  C   UNK N   1      26.136  19.201   4.317  0.00  0.00     0.327 C 
HETATM    4  O   UNK N   1      27.133  19.612   3.744  0.00  0.00    -0.247 OA
HETATM    5  N   UNK N   1      24.901  19.604   3.895  0.00  0.00    -0.249 N 
HETATM    6  C   UNK N   1      24.708  20.515   2.792  0.00  0.00     0.159 A 
HETATM    7  C   UNK N   1      23.714  19.132   4.324  0.00  0.00     0.342 A 
HETATM    8  C   UNK N   1      23.169  20.504   2.582  0.00  0.00     0.167 A 
HETATM    9  N   UNK N   1      22.693  19.596   3.600  0.00  0.00    -0.225 N 
HETATM   10  O   UNK N   1      23.578  18.324   5.233  0.00  0.00    -0.245 OA
HETATM   11  H   UNK N   1      25.479  18.210   5.914  0.00  0.00     0.165 HD
BRANCH   9  12
HETATM   12  S   UNK N   1      20.986  19.157   3.762  0.00  0.00     0.232 S 
HETATM   13  O   UNK N   1      21.103  19.414   2.250  0.00  0.00    -0.206 OA
HETATM   14  O   UNK N   1      20.373  20.559   3.884  0.00  0.00    -0.206 OA
HETATM   15  C   UNK N   1      19.742  18.256   2.794  0.00  0.00     0.186 C 
ENDBRANCH   9  12
ENDBRANCH   1   2
BRANCH   1  16
HETATM   16  C   UNK N   1      28.290  17.954   6.474  0.00  0.00     0.245 C 
HETATM   17  O   UNK N   1      27.899  18.586   7.444  0.00  0.00    -0.271 OA
HETATM   18  N   UNK N   1      29.609  17.672   6.299  0.00  0.00    -0.343 N 
HETATM   19  H   UNK N   1      29.855  17.279   5.430  0.00  0.00     0.163 HD
BRANCH  18  20
HETATM   20  C   UNK N   1      30.693  17.880   7.229  0.00  0.00     0.210 A 
HETATM   21  C   UNK N   1      31.968  17.129   6.523  0.00  0.00     0.183 A 
HETATM   22  S   UNK N   1      33.682  17.631   6.861  0.00  0.00    -0.129 SA
HETATM   23  N   UNK N   1      31.791  16.115   7.471  0.00  0.00    -0.318 N 
HETATM   24  C   UNK N   1      34.113  15.955   7.571  0.00  0.00     0.033 C 
HETATM   25  C   UNK N   1      32.796  15.160   7.758  0.00  0.00     0.204 C 
HETATM   26  C   UNK N   1      34.991  15.201   6.593  0.00  0.00     0.029 C 
HETATM   27  C   UNK N   1      34.877  16.201   8.859  0.00  0.00     0.029 C 
HETATM   28  C   UNK N   1      30.821  16.684   8.107  0.00  0.00     0.247 A 
HETATM   29  O   UNK N   1      30.405  16.426   9.225  0.00  0.00    -0.271 OA
BRANCH  25  30
HETATM   30  C   UNK N   1      32.505  14.318   8.983  0.00  0.00     0.165 C 
HETATM   31  O   UNK N   1      32.319  13.116   8.900  0.00  0.00    -0.648 OA
BRANCH  30  32
HETATM   32  O   UNK N   1      32.450  14.912  10.189  0.00  0.00    -0.775 OA
HETATM   33  H   UNK N   1      31.886  15.634  10.383  0.00  0.00     0.167 HD
ENDBRANCH  30  32
ENDBRANCH  25  30
ENDBRANCH  18  20
ENDBRANCH   1  16
BRANCH   1  34
HETATM   34  C   UNK N   1      27.066  15.852   5.650  0.00  0.00    -0.026 A 
HETATM   35  C   UNK N   1      26.069  15.428   6.535  0.00  0.00     0.010 A 
HETATM   36  C   UNK N   1      25.750  14.071   6.641  0.00  0.00     0.001 A 
HETATM   37  C   UNK N   1      26.425  13.133   5.856  0.00  0.00     0.000 A 
HETATM   38  C   UNK N   1      27.413  13.552   4.960  0.00  0.00     0.001 A 
HETATM   39  C   UNK N   1      27.724  14.910   4.846  0.00  0.00     0.010 A 
ENDBRANCH   1  34
TORSDOF 7
ENDMDL
MODEL 4
REMARK VINA RESULT:      -7.8      5.888      8.740
REMARK  7 active torsions:
REMARK  status: ('A' for Active; 'I' for Inactive)
REMARK    1  A    between atoms: S_2  and  N_15 
REMARK    2  A    between atoms: O_4  and  C_23 
REMARK    3  A    between atoms: C_19  and  N_12 
REMARK       I    between atoms: N_12  and  C_24 
REMARK    4  A    between atoms: C_25  and  N_13 
REMARK       I    between atoms: N_13  and  C_27 
REMARK       I    between atoms: N_14  and  C_27 
REMARK    5  A    between atoms: C_18  and  C_23 
REMARK    6  A    between atoms: C_24  and  C_25 
REMARK    7  A    between atoms: C_25  and  C_26 
ROOT
HETATM    1  C   UNK N   1      21.310  13.528   7.799  0.00  0.00     0.211 C 
ENDROOT
BRANCH   1   2
HETATM    2  N   UNK N   1      21.597  14.864   7.306  0.00  0.00    -0.325 N 
HETATM    3  C   UNK N   1      22.756  15.324   6.784  0.00  0.00     0.327 C 
HETATM    4  O   UNK N   1      23.812  14.757   7.016  0.00  0.00    -0.247 OA
HETATM    5  N   UNK N   1      22.728  16.361   5.895  0.00  0.00    -0.249 N 
HETATM    6  C   UNK N   1      23.906  16.838   5.210  0.00  0.00     0.159 A 
HETATM    7  C   UNK N   1      21.630  16.987   5.428  0.00  0.00     0.342 A 
HETATM    8  C   UNK N   1      23.337  17.865   4.191  0.00  0.00     0.167 A 
HETATM    9  N   UNK N   1      21.915  17.841   4.442  0.00  0.00    -0.225 N 
HETATM   10  O   UNK N   1      20.491  16.764   5.812  0.00  0.00    -0.245 OA
HETATM   11  H   UNK N   1      20.859  15.512   7.358  0.00  0.00     0.165 HD
BRANCH   9  12
HETATM   12  S   UNK N   1      20.764  18.790   3.489  0.00  0.00     0.232 S 
HETATM   13  O   UNK N   1      22.111  19.368   3.023  0.00  0.00    -0.206 OA
HETATM   14  O   UNK N   1      20.630  20.017   4.400  0.00  0.00    -0.206 OA
HETATM   15  C   UNK N   1      20.685  19.512   1.825  0.00  0.00     0.186 C 
ENDBRANCH   9  12
ENDBRANCH   1   2
BRANCH   1  16
HETATM   16  C   UNK N   1      21.327  12.582   6.634  0.00  0.00     0.245 C 
HETATM   17  O   UNK N   1      20.372  11.859   6.393  0.00  0.00    -0.271 OA
HETATM   18  N   UNK N   1      22.385  12.663   5.784  0.00  0.00    -0.343 N 
HETATM   19  H   UNK N   1      23.168  13.161   6.114  0.00  0.00     0.163 HD
BRANCH  18  20
HETATM   20  C   UNK N   1      22.503  12.108   4.456  0.00  0.00     0.210 A 
HETATM   21  C   UNK N   1      23.629  13.054   3.732  0.00  0.00     0.183 A 
HETATM   22  S   UNK N   1      24.657  12.441   2.363  0.00  0.00    -0.129 SA
HETATM   23  N   UNK N   1      22.568  13.640   3.032  0.00  0.00    -0.318 N 
HETATM   24  C   UNK N   1      23.980  13.722   1.180  0.00  0.00     0.033 C 
HETATM   25  C   UNK N   1      22.763  14.405   1.857  0.00  0.00     0.204 C 
HETATM   26  C   UNK N   1      25.035  14.779   0.919  0.00  0.00     0.029 C 
HETATM   27  C   UNK N   1      23.647  13.001  -0.112  0.00  0.00     0.029 C 
HETATM   28  C   UNK N   1      21.641  12.885   3.522  0.00  0.00     0.247 A 
HETATM   29  O   UNK N   1      20.513  12.708   3.093  0.00  0.00    -0.271 OA
BRANCH  25  30
HETATM   30  C   UNK N   1      21.481  14.729   1.119  0.00  0.00     0.165 C 
HETATM   31  O   UNK N   1      21.095  15.877   0.985  0.00  0.00    -0.648 OA
BRANCH  30  32
HETATM   32  O   UNK N   1      20.751  13.723   0.600  0.00  0.00    -0.775 OA
HETATM   33  H   UNK N   1      19.844  13.803   0.382  0.00  0.00     0.167 HD
ENDBRANCH  30  32
ENDBRANCH  25  30
ENDBRANCH  18  20
ENDBRANCH   1  16
BRANCH   1  34
HETATM   34  C   UNK N   1      21.882  13.036   9.100  0.00  0.00    -0.026 A 
HETATM   35  C   UNK N   1      21.017  12.874  10.189  0.00  0.00     0.010 A 
HETATM   36  C   UNK N   1      21.492  12.352  11.395  0.00  0.00     0.001 A 
HETATM   37  C   UNK N   1      22.835  11.986  11.516  0.00  0.00     0.000 A 
HETATM   38  C   UNK N   1      23.700  12.134  10.428  0.00  0.00     0.001 A 
HETATM   39  C   UNK N   1      23.223  12.645   9.218  0.00  0.00     0.010 A 
ENDBRANCH   1  34
TORSDOF 7
ENDMDL
MODEL 5
REMARK VINA RESULT:      -7.8      2.527      2.917
REMARK  7 active torsions:
REMARK  status: ('A' for Active; 'I' for Inactive)
REMARK    1  A    between atoms: S_2  and  N_15 
REMARK    2  A    between atoms: O_4  and  C_23 
REMARK    3  A    between atoms: C_19  and  N_12 
REMARK       I    between atoms: N_12  and  C_24 
REMARK    4  A    between atoms: C_25  and  N_13 
REMARK       I    between atoms: N_13  and  C_27 
REMARK       I    between atoms: N_14  and  C_27 
REMARK    5  A    between atoms: C_18  and  C_23 
REMARK    6  A    between atoms: C_24  and  C_25 
REMARK    7  A    between atoms: C_25  and  C_26 
ROOT
HETATM    1  C   UNK N   1      27.721  17.583   4.090  0.00  0.00     0.211 C 
ENDROOT
BRANCH   1   2
HETATM    2  N   UNK N   1      28.922  16.831   4.409  0.00  0.00    -0.325 N 
HETATM    3  C   UNK N   1      29.911  16.451   3.570  0.00  0.00     0.327 C 
HETATM    4  O   UNK N   1      29.713  16.381   2.367  0.00  0.00    -0.247 OA
HETATM    5  N   UNK N   1      31.171  16.258   4.059  0.00  0.00    -0.249 N 
HETATM    6  C   UNK N   1      32.303  15.960   3.214  0.00  0.00     0.159 A 
HETATM    7  C   UNK N   1      31.575  16.444   5.331  0.00  0.00     0.342 A 
HETATM    8  C   UNK N   1      33.509  16.027   4.192  0.00  0.00     0.167 A 
HETATM    9  N   UNK N   1      32.899  16.343   5.463  0.00  0.00    -0.225 N 
HETATM   10  O   UNK N   1      30.830  16.731   6.258  0.00  0.00    -0.245 OA
HETATM   11  H   UNK N   1      29.029  16.566   5.351  0.00  0.00     0.165 HD
BRANCH   9  12
HETATM   12  S   UNK N   1      33.848  16.610   6.933  0.00  0.00     0.232 S 
HETATM   13  O   UNK N   1      34.185  17.864   6.109  0.00  0.00    -0.206 OA
HETATM   14  O   UNK N   1      35.194  16.030   6.477  0.00  0.00    -0.206 OA
HETATM   15  C   UNK N   1      34.344  18.020   7.963  0.00  0.00     0.186 C 
ENDBRANCH   9  12
ENDBRANCH   1   2
BRANCH   1  16
HETATM   16  C   UNK N   1      26.630  16.607   3.754  0.00  0.00     0.245 C 
HETATM   17  O   UNK N   1      26.538  16.123   2.636  0.00  0.00    -0.271 OA
HETATM   18  N   UNK N   1      25.841  16.183   4.776  0.00  0.00    -0.343 N 
HETATM   19  H   UNK N   1      25.884  16.713   5.605  0.00  0.00     0.163 HD
BRANCH  18  20
HETATM   20  C   UNK N   1      24.946  15.050   4.796  0.00  0.00     0.210 A 
HETATM   21  C   UNK N   1      23.767  15.498   5.844  0.00  0.00     0.183 A 
HETATM   22  S   UNK N   1      22.086  14.814   5.743  0.00  0.00    -0.129 SA
HETATM   23  N   UNK N   1      24.360  14.622   6.759  0.00  0.00    -0.318 N 
HETATM   24  C   UNK N   1      22.207  14.059   7.450  0.00  0.00     0.033 C 
HETATM   25  C   UNK N   1      23.684  14.154   7.912  0.00  0.00     0.204 C 
HETATM   26  C   UNK N   1      21.353  14.853   8.417  0.00  0.00     0.029 C 
HETATM   27  C   UNK N   1      21.679  12.640   7.347  0.00  0.00     0.029 C 
HETATM   28  C   UNK N   1      25.277  14.184   5.961  0.00  0.00     0.247 A 
HETATM   29  O   UNK N   1      25.956  13.177   6.080  0.00  0.00    -0.271 OA
BRANCH  25  30
HETATM   30  C   UNK N   1      24.401  13.026   8.625  0.00  0.00     0.165 C 
HETATM   31  O   UNK N   1      25.002  13.213   9.669  0.00  0.00    -0.648 OA
BRANCH  30  32
HETATM   32  O   UNK N   1      24.375  11.791   8.090  0.00  0.00    -0.775 OA
HETATM   33  H   UNK N   1      24.863  11.548   7.329  0.00  0.00     0.167 HD
ENDBRANCH  30  32
ENDBRANCH  25  30
ENDBRANCH  18  20
ENDBRANCH   1  16
BRANCH   1  34
HETATM   34  C   UNK N   1      27.337  18.810   4.869  0.00  0.00    -0.026 A 
HETATM   35  C   UNK N   1      27.823  18.950   6.174  0.00  0.00     0.010 A 
HETATM   36  C   UNK N   1      27.550  20.107   6.908  0.00  0.00     0.001 A 
HETATM   37  C   UNK N   1      26.792  21.133   6.337  0.00  0.00     0.000 A 
HETATM   38  C   UNK N   1      26.315  21.004   5.030  0.00  0.00     0.001 A 
HETATM   39  C   UNK N   1      26.598  19.851   4.291  0.00  0.00     0.010 A 
ENDBRANCH   1  34
TORSDOF 7
ENDMDL
MODEL 6
REMARK VINA RESULT:      -7.5      4.286      6.923
REMARK  7 active torsions:
REMARK  status: ('A' for Active; 'I' for Inactive)
REMARK    1  A    between atoms: S_2  and  N_15 
REMARK    2  A    between atoms: O_4  and  C_23 
REMARK    3  A    between atoms: C_19  and  N_12 
REMARK       I    between atoms: N_12  and  C_24 
REMARK    4  A    between atoms: C_25  and  N_13 
REMARK       I    between atoms: N_13  and  C_27 
REMARK       I    between atoms: N_14  and  C_27 
REMARK    5  A    between atoms: C_18  and  C_23 
REMARK    6  A    between atoms: C_24  and  C_25 
REMARK    7  A    between atoms: C_25  and  C_26 
ROOT
HETATM    1  C   UNK N   1      22.279  14.168   8.058  0.00  0.00     0.211 C 
ENDROOT
BRANCH   1   2
HETATM    2  N   UNK N   1      23.217  14.581   7.028  0.00  0.00    -0.325 N 
HETATM    3  C   UNK N   1      23.142  15.665   6.224  0.00  0.00     0.327 C 
HETATM    4  O   UNK N   1      22.072  16.220   6.025  0.00  0.00    -0.247 OA
HETATM    5  N   UNK N   1      24.289  16.214   5.726  0.00  0.00    -0.249 N 
HETATM    6  C   UNK N   1      24.304  17.433   4.953  0.00  0.00     0.159 A 
HETATM    7  C   UNK N   1      25.548  15.806   5.979  0.00  0.00     0.342 A 
HETATM    8  C   UNK N   1      25.819  17.739   4.794  0.00  0.00     0.167 A 
HETATM    9  N   UNK N   1      26.461  16.648   5.489  0.00  0.00    -0.225 N 
HETATM   10  O   UNK N   1      25.836  14.814   6.634  0.00  0.00    -0.245 OA
HETATM   11  H   UNK N   1      24.002  14.002   6.900  0.00  0.00     0.165 HD
BRANCH   9  12
HETATM   12  S   UNK N   1      28.218  16.543   5.679  0.00  0.00     0.232 S 
HETATM   13  O   UNK N   1      27.909  17.892   6.350  0.00  0.00    -0.206 OA
HETATM   14  O   UNK N   1      28.656  17.336   4.440  0.00  0.00    -0.206 OA
HETATM   15  C   UNK N   1      29.457  17.015   6.919  0.00  0.00     0.186 C 
ENDBRANCH   9  12
ENDBRANCH   1   2
BRANCH   1  16
HETATM   16  C   UNK N   1      20.983  13.802   7.395  0.00  0.00     0.245 C 
HETATM   17  O   UNK N   1      19.923  14.277   7.774  0.00  0.00    -0.271 OA
HETATM   18  N   UNK N   1      21.054  13.034   6.276  0.00  0.00    -0.343 N 
HETATM   19  H   UNK N   1      21.914  12.581   6.115  0.00  0.00     0.163 HD
BRANCH  18  20
HETATM   20  C   UNK N   1      20.023  12.798   5.293  0.00  0.00     0.210 A 
HETATM   21  C   UNK N   1      20.811  12.051   4.066  0.00  0.00     0.183 A 
HETATM   22  S   UNK N   1      19.952  10.934   2.916  0.00  0.00    -0.129 SA
HETATM   23  N   UNK N   1      20.724  13.266   3.378  0.00  0.00    -0.318 N 
HETATM   24  C   UNK N   1      20.349  12.020   1.445  0.00  0.00     0.033 C 
HETATM   25  C   UNK N   1      20.912  13.362   1.978  0.00  0.00     0.204 C 
HETATM   26  C   UNK N   1      21.418  11.357   0.599  0.00  0.00     0.029 C 
HETATM   27  C   UNK N   1      19.072  12.159   0.638  0.00  0.00     0.029 C 
HETATM   28  C   UNK N   1      20.048  13.893   4.283  0.00  0.00     0.247 A 
HETATM   29  O   UNK N   1      19.409  14.925   4.162  0.00  0.00    -0.271 OA
BRANCH  25  30
HETATM   30  C   UNK N   1      20.525  14.708   1.401  0.00  0.00     0.165 C 
HETATM   31  O   UNK N   1      21.349  15.438   0.877  0.00  0.00    -0.648 OA
BRANCH  30  32
HETATM   32  O   UNK N   1      19.241  15.106   1.470  0.00  0.00    -0.775 OA
HETATM   33  H   UNK N   1      18.636  14.788   2.110  0.00  0.00     0.167 HD
ENDBRANCH  30  32
ENDBRANCH  25  30
ENDBRANCH  18  20
ENDBRANCH   1  16
BRANCH   1  34
HETATM   34  C   UNK N   1      22.721  13.331   9.226  0.00  0.00    -0.026 A 
HETATM   35  C   UNK N   1      24.086  13.055   9.370  0.00  0.00     0.010 A 
HETATM   36  C   UNK N   1      24.548  12.341  10.479  0.00  0.00     0.001 A 
HETATM   37  C   UNK N   1      23.646  11.904  11.453  0.00  0.00     0.000 A 
HETATM   38  C   UNK N   1      22.284  12.188  11.320  0.00  0.00     0.001 A 
HETATM   39  C   UNK N   1      21.823  12.912  10.217  0.00  0.00     0.010 A 
ENDBRANCH   1  34
TORSDOF 7
ENDMDL
MODEL 7
REMARK VINA RESULT:      -7.4      3.295      6.199
REMARK  7 active torsions:
REMARK  status: ('A' for Active; 'I' for Inactive)
REMARK    1  A    between atoms: S_2  and  N_15 
REMARK    2  A    between atoms: O_4  and  C_23 
REMARK    3  A    between atoms: C_19  and  N_12 
REMARK       I    between atoms: N_12  and  C_24 
REMARK    4  A    between atoms: C_25  and  N_13 
REMARK       I    between atoms: N_13  and  C_27 
REMARK       I    between atoms: N_14  and  C_27 
REMARK    5  A    between atoms: C_18  and  C_23 
REMARK    6  A    between atoms: C_24  and  C_25 
REMARK    7  A    between atoms: C_25  and  C_26 
ROOT
HETATM    1  C   UNK N   1      32.088  17.300   7.641  0.00  0.00     0.211 C 
ENDROOT
BRANCH   1   2
HETATM    2  N   UNK N   1      32.028  16.903   6.245  0.00  0.00    -0.325 N 
HETATM    3  C   UNK N   1      33.054  16.553   5.437  0.00  0.00     0.327 C 
HETATM    4  O   UNK N   1      34.196  16.897   5.698  0.00  0.00    -0.247 OA
HETATM    5  N   UNK N   1      32.826  15.712   4.386  0.00  0.00    -0.249 N 
HETATM    6  C   UNK N   1      33.883  15.204   3.545  0.00  0.00     0.159 A 
HETATM    7  C   UNK N   1      31.653  15.132   4.063  0.00  0.00     0.342 A 
HETATM    8  C   UNK N   1      33.159  14.163   2.646  0.00  0.00     0.167 A 
HETATM    9  N   UNK N   1      31.786  14.227   3.091  0.00  0.00    -0.225 N 
HETATM   10  O   UNK N   1      30.592  15.357   4.628  0.00  0.00    -0.245 OA
HETATM   11  H   UNK N   1      31.132  16.886   5.838  0.00  0.00     0.165 HD
BRANCH   9  12
HETATM   12  S   UNK N   1      30.523  13.173   2.437  0.00  0.00     0.232 S 
HETATM   13  O   UNK N   1      31.189  12.257   3.478  0.00  0.00    -0.206 OA
HETATM   14  O   UNK N   1      31.338  12.435   1.365  0.00  0.00    -0.206 OA
HETATM   15  C   UNK N   1      29.409  11.881   3.057  0.00  0.00     0.186 C 
ENDBRANCH   9  12
ENDBRANCH   1   2
BRANCH   1  16
HETATM   16  C   UNK N   1      30.686  17.538   8.123  0.00  0.00     0.245 C 
HETATM   17  O   UNK N   1      30.453  18.334   9.021  0.00  0.00    -0.271 OA
HETATM   18  N   UNK N   1      29.681  16.940   7.430  0.00  0.00    -0.343 N 
HETATM   19  H   UNK N   1      29.949  16.216   6.818  0.00  0.00     0.163 HD
BRANCH  18  20
HETATM   20  C   UNK N   1      28.269  17.235   7.481  0.00  0.00     0.210 A 
HETATM   21  C   UNK N   1      27.680  16.583   6.097  0.00  0.00     0.183 A 
HETATM   22  S   UNK N   1      25.950  16.044   5.953  0.00  0.00    -0.129 SA
HETATM   23  N   UNK N   1      27.597  17.893   5.612  0.00  0.00    -0.318 N 
HETATM   24  C   UNK N   1      25.603  17.267   4.580  0.00  0.00     0.033 C 
HETATM   25  C   UNK N   1      26.808  18.238   4.488  0.00  0.00     0.204 C 
HETATM   26  C   UNK N   1      25.483  16.529   3.262  0.00  0.00     0.029 C 
HETATM   27  C   UNK N   1      24.286  17.943   4.909  0.00  0.00     0.029 C 
HETATM   28  C   UNK N   1      27.997  18.471   6.696  0.00  0.00     0.247 A 
HETATM   29  O   UNK N   1      27.874  19.643   7.009  0.00  0.00    -0.271 OA
BRANCH  25  30
HETATM   30  C   UNK N   1      26.653  19.731   4.287  0.00  0.00     0.165 C 
HETATM   31  O   UNK N   1      27.131  20.297   3.318  0.00  0.00    -0.648 OA
BRANCH  30  32
HETATM   32  O   UNK N   1      25.972  20.449   5.200  0.00  0.00    -0.775 OA
HETATM   33  H   UNK N   1      25.044  20.390   5.314  0.00  0.00     0.167 HD
ENDBRANCH  30  32
ENDBRANCH  25  30
ENDBRANCH  18  20
ENDBRANCH   1  16
BRANCH   1  34
HETATM   34  C   UNK N   1      33.049  16.651   8.598  0.00  0.00    -0.026 A 
HETATM   35  C   UNK N   1      34.171  17.378   9.011  0.00  0.00     0.010 A 
HETATM   36  C   UNK N   1      35.053  16.841   9.953  0.00  0.00     0.001 A 
HETATM   37  C   UNK N   1      34.812  15.574  10.490  0.00  0.00     0.000 A 
HETATM   38  C   UNK N   1      33.686  14.848  10.090  0.00  0.00     0.001 A 
HETATM   39  C   UNK N   1      32.798  15.390   9.157  0.00  0.00     0.010 A 
ENDBRANCH   1  34
TORSDOF 7
ENDMDL
MODEL 8
REMARK VINA RESULT:      -7.2      8.862     13.510
REMARK  7 active torsions:
REMARK  status: ('A' for Active; 'I' for Inactive)
REMARK    1  A    between atoms: S_2  and  N_15 
REMARK    2  A    between atoms: O_4  and  C_23 
REMARK    3  A    between atoms: C_19  and  N_12 
REMARK       I    between atoms: N_12  and  C_24 
REMARK    4  A    between atoms: C_25  and  N_13 
REMARK       I    between atoms: N_13  and  C_27 
REMARK       I    between atoms: N_14  and  C_27 
REMARK    5  A    between atoms: C_18  and  C_23 
REMARK    6  A    between atoms: C_24  and  C_25 
REMARK    7  A    between atoms: C_25  and  C_26 
ROOT
HETATM    1  C   UNK N   1      34.986  11.433  12.562  0.00  0.00     0.211 C 
ENDROOT
BRANCH   1   2
HETATM    2  N   UNK N   1      35.548  11.593  13.892  0.00  0.00    -0.325 N 
HETATM    3  C   UNK N   1      35.377  12.626  14.746  0.00  0.00     0.327 C 
HETATM    4  O   UNK N   1      35.022  13.721  14.336  0.00  0.00    -0.247 OA
HETATM    5  N   UNK N   1      35.487  12.413  16.091  0.00  0.00    -0.249 N 
HETATM    6  C   UNK N   1      35.209  13.435  17.072  0.00  0.00     0.159 A 
HETATM    7  C   UNK N   1      35.722  11.233  16.699  0.00  0.00     0.342 A 
HETATM    8  C   UNK N   1      35.281  12.667  18.421  0.00  0.00     0.167 A 
HETATM    9  N   UNK N   1      35.599  11.314  18.025  0.00  0.00    -0.225 N 
HETATM   10  O   UNK N   1      35.962  10.188  16.110  0.00  0.00    -0.245 OA
HETATM   11  H   UNK N   1      36.124  10.861  14.209  0.00  0.00     0.165 HD
BRANCH   9  12
HETATM   12  S   UNK N   1      35.728   9.987  19.190  0.00  0.00     0.232 S 
HETATM   13  O   UNK N   1      34.950  11.040  19.997  0.00  0.00    -0.206 OA
HETATM   14  O   UNK N   1      36.986  10.434  19.947  0.00  0.00    -0.206 OA
HETATM   15  C   UNK N   1      34.705   9.258  20.500  0.00  0.00     0.186 C 
ENDBRANCH   9  12
ENDBRANCH   1   2
BRANCH   1  16
HETATM   16  C   UNK N   1      35.747  12.319  11.619  0.00  0.00     0.245 C 
HETATM   17  O   UNK N   1      36.830  11.979  11.166  0.00  0.00    -0.271 OA
HETATM   18  N   UNK N   1      35.121  13.445  11.185  0.00  0.00    -0.343 N 
HETATM   19  H   UNK N   1      34.322  13.720  11.692  0.00  0.00     0.163 HD
BRANCH  18  20
HETATM   20  C   UNK N   1      35.483  14.290  10.072  0.00  0.00     0.210 A 
HETATM   21  C   UNK N   1      34.288  15.411  10.022  0.00  0.00     0.183 A 
HETATM   22  S   UNK N   1      34.557  17.066   9.319  0.00  0.00    -0.129 SA
HETATM   23  N   UNK N   1      33.798  14.720   8.908  0.00  0.00    -0.318 N 
HETATM   24  C   UNK N   1      33.265  16.796   7.993  0.00  0.00     0.033 C 
HETATM   25  C   UNK N   1      32.873  15.296   8.003  0.00  0.00     0.204 C 
HETATM   26  C   UNK N   1      32.030  17.613   8.315  0.00  0.00     0.029 C 
HETATM   27  C   UNK N   1      33.866  17.271   6.684  0.00  0.00     0.029 C 
HETATM   28  C   UNK N   1      34.746  13.843   8.857  0.00  0.00     0.247 A 
HETATM   29  O   UNK N   1      35.046  13.118   7.924  0.00  0.00    -0.271 OA
BRANCH  25  30
HETATM   30  C   UNK N   1      32.671  14.485   6.740  0.00  0.00     0.165 C 
HETATM   31  O   UNK N   1      31.616  13.919   6.508  0.00  0.00    -0.648 OA
BRANCH  30  32
HETATM   32  O   UNK N   1      33.680  14.389   5.854  0.00  0.00    -0.775 OA
HETATM   33  H   UNK N   1      34.539  14.091   6.081  0.00  0.00     0.167 HD
ENDBRANCH  30  32
ENDBRANCH  25  30
ENDBRANCH  18  20
ENDBRANCH   1  16
BRANCH   1  34
HETATM   34  C   UNK N   1      34.558  10.085  12.053  0.00  0.00    -0.026 A 
HETATM   35  C   UNK N   1      33.541  10.027  11.093  0.00  0.00     0.010 A 
HETATM   36  C   UNK N   1      33.160   8.801  10.540  0.00  0.00     0.001 A 
HETATM   37  C   UNK N   1      33.801   7.626  10.942  0.00  0.00     0.000 A 
HETATM   38  C   UNK N   1      34.827   7.679  11.891  0.00  0.00     0.001 A 
HETATM   39  C   UNK N   1      35.215   8.907  12.435  0.00  0.00     0.010 A 
ENDBRANCH   1  34
TORSDOF 7
ENDMDL
MODEL 9
REMARK VINA RESULT:      -7.2     11.376     16.062
REMARK  7 active torsions:
REMARK  status: ('A' for Active; 'I' for Inactive)
REMARK    1  A    between atoms: S_2  and  N_15 
REMARK    2  A    between atoms: O_4  and  C_23 
REMARK    3  A    between atoms: C_19  and  N_12 
REMARK       I    between atoms: N_12  and  C_24 
REMARK    4  A    between atoms: C_25  and  N_13 
REMARK       I    between atoms: N_13  and  C_27 
REMARK       I    between atoms: N_14  and  C_27 
REMARK    5  A    between atoms: C_18  and  C_23 
REMARK    6  A    between atoms: C_24  and  C_25 
REMARK    7  A    between atoms: C_25  and  C_26 
ROOT
HETATM    1  C   UNK N   1      35.920  12.091  15.937  0.00  0.00     0.211 C 
ENDROOT
BRANCH   1   2
HETATM    2  N   UNK N   1      35.599  11.001  16.841  0.00  0.00    -0.325 N 
HETATM    3  C   UNK N   1      36.320   9.883  17.083  0.00  0.00     0.327 C 
HETATM    4  O   UNK N   1      37.150   9.492  16.278  0.00  0.00    -0.247 OA
HETATM    5  N   UNK N   1      36.201   9.253  18.289  0.00  0.00    -0.249 N 
HETATM    6  C   UNK N   1      37.015   8.122  18.666  0.00  0.00     0.159 A 
HETATM    7  C   UNK N   1      35.442   9.651  19.330  0.00  0.00     0.342 A 
HETATM    8  C   UNK N   1      36.650   7.900  20.160  0.00  0.00     0.167 A 
HETATM    9  N   UNK N   1      35.671   8.928  20.428  0.00  0.00    -0.225 N 
HETATM   10  O   UNK N   1      34.673  10.601  19.301  0.00  0.00    -0.245 OA
HETATM   11  H   UNK N   1      34.754  11.086  17.339  0.00  0.00     0.165 HD
BRANCH   9  12
HETATM   12  S   UNK N   1      34.964   9.174  22.032  0.00  0.00     0.232 S 
HETATM   13  O   UNK N   1      35.513   7.742  22.147  0.00  0.00    -0.206 OA
HETATM   14  O   UNK N   1      33.580   8.554  21.800  0.00  0.00    -0.206 OA
HETATM   15  C   UNK N   1      35.339   8.696  23.743  0.00  0.00     0.186 C 
ENDBRANCH   9  12
ENDBRANCH   1   2
BRANCH   1  16
HETATM   16  C   UNK N   1      35.094  11.931  14.694  0.00  0.00     0.245 C 
HETATM   17  O   UNK N   1      33.877  12.043  14.725  0.00  0.00    -0.271 OA
HETATM   18  N   UNK N   1      35.762  11.797  13.518  0.00  0.00    -0.343 N 
HETATM   19  H   UNK N   1      36.720  11.578  13.587  0.00  0.00     0.163 HD
BRANCH  18  20
HETATM   20  C   UNK N   1      35.240  11.933  12.179  0.00  0.00     0.210 A 
HETATM   21  C   UNK N   1      36.572  12.203  11.262  0.00  0.00     0.183 A 
HETATM   22  S   UNK N   1      36.623  11.770   9.497  0.00  0.00    -0.129 SA
HETATM   23  N   UNK N   1      36.159  13.539  11.201  0.00  0.00    -0.318 N 
HETATM   24  C   UNK N   1      36.894  13.551   8.990  0.00  0.00     0.033 C 
HETATM   25  C   UNK N   1      36.657  14.445  10.234  0.00  0.00     0.204 C 
HETATM   26  C   UNK N   1      38.328  13.735   8.536  0.00  0.00     0.029 C 
HETATM   27  C   UNK N   1      35.951  13.832   7.835  0.00  0.00     0.029 C 
HETATM   28  C   UNK N   1      35.063  13.378  11.867  0.00  0.00     0.247 A 
HETATM   29  O   UNK N   1      34.101  14.127  11.918  0.00  0.00    -0.271 OA
BRANCH  25  30
HETATM   30  C   UNK N   1      35.900  15.756  10.178  0.00  0.00     0.165 C 
HETATM   31  O   UNK N   1      36.387  16.791  10.598  0.00  0.00    -0.648 OA
BRANCH  30  32
HETATM   32  O   UNK N   1      34.660  15.774   9.654  0.00  0.00    -0.775 OA
HETATM   33  H   UNK N   1      34.451  16.188   8.840  0.00  0.00     0.167 HD
ENDBRANCH  30  32
ENDBRANCH  25  30
ENDBRANCH  18  20
ENDBRANCH   1  16
BRANCH   1  34
HETATM   34  C   UNK N   1      36.143  13.488  16.447  0.00  0.00    -0.026 A 
HETATM   35  C   UNK N   1      35.518  13.870  17.639  0.00  0.00     0.010 A 
HETATM   36  C   UNK N   1      35.754  15.135  18.185  0.00  0.00     0.001 A 
HETATM   37  C   UNK N   1      36.621  16.022  17.542  0.00  0.00     0.000 A 
HETATM   38  C   UNK N   1      37.257  15.641  16.357  0.00  0.00     0.001 A 
HETATM   39  C   UNK N   1      37.030  14.372  15.817  0.00  0.00     0.010 A 
ENDBRANCH   1  34
TORSDOF 7
ENDMDL
