MODEL 1
REMARK VINA RESULT:      -5.7      0.000      0.000
REMARK  7 active torsions:
REMARK  status: ('A' for Active; 'I' for Inactive)
REMARK    1  A    between atoms: O_1  and  C_9 
REMARK    2  A    between atoms: O_1  and  C_16 
REMARK    3  A    between atoms: O_2  and  C_10 
REMARK    4  A    between atoms: O_2  and  C_17 
REMARK       I    between atoms: N_5  and  C_16 
REMARK       I    between atoms: N_6  and  C_17 
REMARK    5  A    between atoms: C_7  and  C_8 
REMARK    6  A    between atoms: C_7  and  C_9 
REMARK    7  A    between atoms: C_7  and  C_10 
ROOT
HETATM    1  C   UNK N   1      32.276  16.692   6.910  0.00  0.00     0.067 C 
ENDROOT
BRANCH   1   2
HETATM    2  C   UNK N   1      31.034  17.333   7.473  0.00  0.00    -0.050 A 
HETATM    3  C   UNK N   1      31.078  17.998   8.710  0.00  0.00     0.007 A 
HETATM    4  C   UNK N   1      29.929  18.591   9.235  0.00  0.00     0.001 A 
HETATM    5  C   UNK N   1      28.725  18.525   8.530  0.00  0.00     0.000 A 
HETATM    6  C   UNK N   1      28.670  17.867   7.299  0.00  0.00     0.001 A 
HETATM    7  C   UNK N   1      29.820  17.273   6.772  0.00  0.00     0.007 A 
ENDBRANCH   1   2
BRANCH   1   8
HETATM    8  C   UNK N   1      33.416  17.638   6.501  0.00  0.00     0.192 C 
BRANCH   8   9
HETATM    9  O   UNK N   1      34.581  17.479   7.214  0.00  0.00    -0.303 OA
BRANCH   9  10
HETATM   10  C   UNK N   1      34.758  18.107   8.404  0.00  0.00     0.358 C 
HETATM   11  O   UNK N   1      35.131  19.270   8.451  0.00  0.00    -0.239 OA
HETATM   12  N   UNK N   1      34.521  17.440   9.551  0.00  0.00    -0.346 N 
HETATM   13  H   UNK N   1      34.221  16.503   9.521  0.00  0.00     0.161 HD
HETATM   14  H   UNK N   1      34.648  17.890  10.417  0.00  0.00     0.161 HD
ENDBRANCH   9  10
ENDBRANCH   8   9
ENDBRANCH   1   8
BRANCH   1  15
HETATM   15  C   UNK N   1      32.268  15.160   6.818  0.00  0.00     0.192 C 
BRANCH  15  16
HETATM   16  O   UNK N   1      31.768  14.510   7.920  0.00  0.00    -0.303 OA
BRANCH  16  17
HETATM   17  C   UNK N   1      32.604  14.038   8.880  0.00  0.00     0.358 C 
HETATM   18  O   UNK N   1      33.257  14.804   9.575  0.00  0.00    -0.239 OA
HETATM   19  N   UNK N   1      32.716  12.710   9.072  0.00  0.00    -0.346 N 
HETATM   20  H   UNK N   1      33.320  12.362   9.768  0.00  0.00     0.161 HD
HETATM   21  H   UNK N   1      32.194  12.087   8.517  0.00  0.00     0.161 HD
ENDBRANCH  16  17
ENDBRANCH  15  16
ENDBRANCH   1  15
TORSDOF 7
ENDMDL
MODEL 2
REMARK VINA RESULT:      -5.6     11.747     12.745
REMARK  7 active torsions:
REMARK  status: ('A' for Active; 'I' for Inactive)
REMARK    1  A    between atoms: O_1  and  C_9 
REMARK    2  A    between atoms: O_1  and  C_16 
REMARK    3  A    between atoms: O_2  and  C_10 
REMARK    4  A    between atoms: O_2  and  C_17 
REMARK       I    between atoms: N_5  and  C_16 
REMARK       I    between atoms: N_6  and  C_17 
REMARK    5  A    between atoms: C_7  and  C_8 
REMARK    6  A    between atoms: C_7  and  C_9 
REMARK    7  A    between atoms: C_7  and  C_10 
ROOT
HETATM    1  C   UNK N   1      20.574  14.516   8.105  0.00  0.00     0.067 C 
ENDROOT
BRANCH   1   2
HETATM    2  C   UNK N   1      21.346  13.464   8.857  0.00  0.00    -0.050 A 
HETATM    3  C   UNK N   1      21.080  13.226  10.215  0.00  0.00     0.007 A 
HETATM    4  C   UNK N   1      21.796  12.253  10.916  0.00  0.00     0.001 A 
HETATM    5  C   UNK N   1      22.783  11.509  10.265  0.00  0.00     0.000 A 
HETATM    6  C   UNK N   1      23.055  11.738   8.914  0.00  0.00     0.001 A 
HETATM    7  C   UNK N   1      22.339  12.711   8.212  0.00  0.00     0.007 A 
ENDBRANCH   1   2
BRANCH   1   8
HETATM    8  C   UNK N   1      19.931  15.632   8.942  0.00  0.00     0.192 C 
BRANCH   8   9
HETATM    9  O   UNK N   1      20.545  16.858   8.840  0.00  0.00    -0.303 OA
BRANCH   9  10
HETATM   10  C   UNK N   1      19.814  17.999   8.785  0.00  0.00     0.358 C 
HETATM   11  O   UNK N   1      20.301  19.037   8.359  0.00  0.00    -0.239 OA
HETATM   12  N   UNK N   1      18.534  17.991   9.205  0.00  0.00    -0.346 N 
HETATM   13  H   UNK N   1      18.135  17.159   9.550  0.00  0.00     0.161 HD
HETATM   14  H   UNK N   1      17.998  18.816   9.168  0.00  0.00     0.161 HD
ENDBRANCH   9  10
ENDBRANCH   8   9
ENDBRANCH   1   8
BRANCH   1  15
HETATM   15  C   UNK N   1      20.525  14.361   6.578  0.00  0.00     0.192 C 
BRANCH  15  16
HETATM   16  O   UNK N   1      20.238  15.511   5.882  0.00  0.00    -0.303 OA
BRANCH  16  17
HETATM   17  C   UNK N   1      19.079  15.622   5.183  0.00  0.00     0.358 C 
HETATM   18  O   UNK N   1      18.025  15.866   5.751  0.00  0.00    -0.239 OA
HETATM   19  N   UNK N   1      19.091  15.463   3.846  0.00  0.00    -0.346 N 
HETATM   20  H   UNK N   1      18.254  15.544   3.333  0.00  0.00     0.161 HD
HETATM   21  H   UNK N   1      19.936  15.267   3.380  0.00  0.00     0.161 HD
ENDBRANCH  16  17
ENDBRANCH  15  16
ENDBRANCH   1  15
TORSDOF 7
ENDMDL
MODEL 3
REMARK VINA RESULT:      -5.5     12.152     13.371
REMARK  7 active torsions:
REMARK  status: ('A' for Active; 'I' for Inactive)
REMARK    1  A    between atoms: O_1  and  C_9 
REMARK    2  A    between atoms: O_1  and  C_16 
REMARK    3  A    between atoms: O_2  and  C_10 
REMARK    4  A    between atoms: O_2  and  C_17 
REMARK       I    between atoms: N_5  and  C_16 
REMARK       I    between atoms: N_6  and  C_17 
REMARK    5  A    between atoms: C_7  and  C_8 
REMARK    6  A    between atoms: C_7  and  C_9 
REMARK    7  A    between atoms: C_7  and  C_10 
ROOT
HETATM    1  C   UNK N   1      20.704  14.837   7.915  0.00  0.00     0.067 C 
ENDROOT
BRANCH   1   2
HETATM    2  C   UNK N   1      21.361  13.723   8.688  0.00  0.00    -0.050 A 
HETATM    3  C   UNK N   1      22.329  12.910   8.074  0.00  0.00     0.007 A 
HETATM    4  C   UNK N   1      22.938  11.876   8.787  0.00  0.00     0.001 A 
HETATM    5  C   UNK N   1      22.588  11.646  10.119  0.00  0.00     0.000 A 
HETATM    6  C   UNK N   1      21.628  12.449  10.740  0.00  0.00     0.001 A 
HETATM    7  C   UNK N   1      21.018  13.484  10.027  0.00  0.00     0.007 A 
ENDBRANCH   1   2
BRANCH   1   8
HETATM    8  C   UNK N   1      20.612  14.659   6.392  0.00  0.00     0.192 C 
BRANCH   8   9
HETATM    9  O   UNK N   1      19.336  14.494   5.906  0.00  0.00    -0.303 OA
BRANCH   9  10
HETATM   10  C   UNK N   1      18.659  15.537   5.362  0.00  0.00     0.358 C 
HETATM   11  O   UNK N   1      17.601  15.918   5.842  0.00  0.00    -0.239 OA
HETATM   12  N   UNK N   1      19.159  16.163   4.279  0.00  0.00    -0.346 N 
HETATM   13  H   UNK N   1      20.010  15.862   3.887  0.00  0.00     0.161 HD
HETATM   14  H   UNK N   1      18.673  16.920   3.880  0.00  0.00     0.161 HD
ENDBRANCH   9  10
ENDBRANCH   8   9
ENDBRANCH   1   8
BRANCH   1  15
HETATM   15  C   UNK N   1      20.187  16.023   8.741  0.00  0.00     0.192 C 
BRANCH  15  16
HETATM   16  O   UNK N   1      18.827  16.058   8.927  0.00  0.00    -0.303 OA
BRANCH  16  17
HETATM   17  C   UNK N   1      18.181  17.244   9.073  0.00  0.00     0.358 C 
HETATM   18  O   UNK N   1      18.713  18.180   9.652  0.00  0.00    -0.239 OA
HETATM   19  N   UNK N   1      16.940  17.392   8.573  0.00  0.00    -0.346 N 
HETATM   20  H   UNK N   1      16.467  18.250   8.676  0.00  0.00     0.161 HD
HETATM   21  H   UNK N   1      16.504  16.643   8.106  0.00  0.00     0.161 HD
ENDBRANCH  16  17
ENDBRANCH  15  16
ENDBRANCH   1  15
TORSDOF 7
ENDMDL
MODEL 4
REMARK VINA RESULT:      -5.5      2.621      3.503
REMARK  7 active torsions:
REMARK  status: ('A' for Active; 'I' for Inactive)
REMARK    1  A    between atoms: O_1  and  C_9 
REMARK    2  A    between atoms: O_1  and  C_16 
REMARK    3  A    between atoms: O_2  and  C_10 
REMARK    4  A    between atoms: O_2  and  C_17 
REMARK       I    between atoms: N_5  and  C_16 
REMARK       I    between atoms: N_6  and  C_17 
REMARK    5  A    between atoms: C_7  and  C_8 
REMARK    6  A    between atoms: C_7  and  C_9 
REMARK    7  A    between atoms: C_7  and  C_10 
ROOT
HETATM    1  C   UNK N   1      31.944  17.010   6.691  0.00  0.00     0.067 C 
ENDROOT
BRANCH   1   2
HETATM    2  C   UNK N   1      30.756  17.451   7.505  0.00  0.00    -0.050 A 
HETATM    3  C   UNK N   1      29.452  17.178   7.059  0.00  0.00     0.007 A 
HETATM    4  C   UNK N   1      28.348  17.587   7.811  0.00  0.00     0.001 A 
HETATM    5  C   UNK N   1      28.538  18.270   9.014  0.00  0.00     0.000 A 
HETATM    6  C   UNK N   1      29.830  18.545   9.467  0.00  0.00     0.001 A 
HETATM    7  C   UNK N   1      30.935  18.137   8.715  0.00  0.00     0.007 A 
ENDBRANCH   1   2
BRANCH   1   8
HETATM    8  C   UNK N   1      33.142  16.444   7.468  0.00  0.00     0.192 C 
BRANCH   8   9
HETATM    9  O   UNK N   1      34.274  17.226   7.435  0.00  0.00    -0.303 OA
BRANCH   9  10
HETATM   10  C   UNK N   1      34.648  17.953   8.517  0.00  0.00     0.358 C 
HETATM   11  O   UNK N   1      35.045  19.103   8.394  0.00  0.00    -0.239 OA
HETATM   12  N   UNK N   1      34.583  17.402   9.745  0.00  0.00    -0.346 N 
HETATM   13  H   UNK N   1      34.265  16.477   9.852  0.00  0.00     0.161 HD
HETATM   14  H   UNK N   1      34.853  17.925  10.534  0.00  0.00     0.161 HD
ENDBRANCH   9  10
ENDBRANCH   8   9
ENDBRANCH   1   8
BRANCH   1  15
HETATM   15  C   UNK N   1      31.821  17.166   5.168  0.00  0.00     0.192 C 
BRANCH  15  16
HETATM   16  O   UNK N   1      32.742  16.462   4.432  0.00  0.00    -0.303 OA
BRANCH  16  17
HETATM   17  C   UNK N   1      32.719  16.507   3.075  0.00  0.00     0.358 C 
HETATM   18  O   UNK N   1      33.568  15.927   2.414  0.00  0.00    -0.239 OA
HETATM   19  N   UNK N   1      31.749  17.199   2.447  0.00  0.00    -0.346 N 
HETATM   20  H   UNK N   1      31.727  17.235   1.463  0.00  0.00     0.161 HD
HETATM   21  H   UNK N   1      31.062  17.670   2.972  0.00  0.00     0.161 HD
ENDBRANCH  16  17
ENDBRANCH  15  16
ENDBRANCH   1  15
TORSDOF 7
ENDMDL
MODEL 5
REMARK VINA RESULT:      -5.5     10.197     11.932
REMARK  7 active torsions:
REMARK  status: ('A' for Active; 'I' for Inactive)
REMARK    1  A    between atoms: O_1  and  C_9 
REMARK    2  A    between atoms: O_1  and  C_16 
REMARK    3  A    between atoms: O_2  and  C_10 
REMARK    4  A    between atoms: O_2  and  C_17 
REMARK       I    between atoms: N_5  and  C_16 
REMARK       I    between atoms: N_6  and  C_17 
REMARK    5  A    between atoms: C_7  and  C_8 
REMARK    6  A    between atoms: C_7  and  C_9 
REMARK    7  A    between atoms: C_7  and  C_10 
ROOT
HETATM    1  C   UNK N   1      21.211  14.860   8.373  0.00  0.00     0.067 C 
ENDROOT
BRANCH   1   2
HETATM    2  C   UNK N   1      21.614  13.856   9.421  0.00  0.00    -0.050 A 
HETATM    3  C   UNK N   1      22.960  13.481   9.563  0.00  0.00     0.007 A 
HETATM    4  C   UNK N   1      23.336  12.548  10.531  0.00  0.00     0.001 A 
HETATM    5  C   UNK N   1      22.371  11.983  11.367  0.00  0.00     0.000 A 
HETATM    6  C   UNK N   1      21.029  12.350  11.236  0.00  0.00     0.001 A 
HETATM    7  C   UNK N   1      20.652  13.283  10.266  0.00  0.00     0.007 A 
ENDBRANCH   1   2
BRANCH   1   8
HETATM    8  C   UNK N   1      20.091  15.841   8.751  0.00  0.00     0.192 C 
BRANCH   8   9
HETATM    9  O   UNK N   1      20.461  17.166   8.756  0.00  0.00    -0.303 OA
BRANCH   9  10
HETATM   10  C   UNK N   1      19.618  18.120   9.225  0.00  0.00     0.358 C 
HETATM   11  O   UNK N   1      20.050  19.170   9.681  0.00  0.00    -0.239 OA
HETATM   12  N   UNK N   1      18.288  17.911   9.189  0.00  0.00    -0.346 N 
HETATM   13  H   UNK N   1      17.933  17.068   8.824  0.00  0.00     0.161 HD
HETATM   14  H   UNK N   1      17.671  18.600   9.528  0.00  0.00     0.161 HD
ENDBRANCH   9  10
ENDBRANCH   8   9
ENDBRANCH   1   8
BRANCH   1  15
HETATM   15  C   UNK N   1      21.977  14.800   7.044  0.00  0.00     0.192 C 
BRANCH  15  16
HETATM   16  O   UNK N   1      22.801  15.870   6.794  0.00  0.00    -0.303 OA
BRANCH  16  17
HETATM   17  C   UNK N   1      22.467  16.792   5.855  0.00  0.00     0.358 C 
HETATM   18  O   UNK N   1      22.526  16.524   4.663  0.00  0.00    -0.239 OA
HETATM   19  N   UNK N   1      22.066  18.019   6.239  0.00  0.00    -0.346 N 
HETATM   20  H   UNK N   1      21.822  18.691   5.562  0.00  0.00     0.161 HD
HETATM   21  H   UNK N   1      22.016  18.243   7.196  0.00  0.00     0.161 HD
ENDBRANCH  16  17
ENDBRANCH  15  16
ENDBRANCH   1  15
TORSDOF 7
ENDMDL
MODEL 6
REMARK VINA RESULT:      -5.5     10.653     12.147
REMARK  7 active torsions:
REMARK  status: ('A' for Active; 'I' for Inactive)
REMARK    1  A    between atoms: O_1  and  C_9 
REMARK    2  A    between atoms: O_1  and  C_16 
REMARK    3  A    between atoms: O_2  and  C_10 
REMARK    4  A    between atoms: O_2  and  C_17 
REMARK       I    between atoms: N_5  and  C_16 
REMARK       I    between atoms: N_6  and  C_17 
REMARK    5  A    between atoms: C_7  and  C_8 
REMARK    6  A    between atoms: C_7  and  C_9 
REMARK    7  A    between atoms: C_7  and  C_10 
ROOT
HETATM    1  C   UNK N   1      20.824  14.519   8.340  0.00  0.00     0.067 C 
ENDROOT
BRANCH   1   2
HETATM    2  C   UNK N   1      21.419  13.635   9.405  0.00  0.00    -0.050 A 
HETATM    3  C   UNK N   1      20.596  13.055  10.385  0.00  0.00     0.007 A 
HETATM    4  C   UNK N   1      21.145  12.236  11.374  0.00  0.00     0.001 A 
HETATM    5  C   UNK N   1      22.519  11.990  11.393  0.00  0.00     0.000 A 
HETATM    6  C   UNK N   1      23.346  12.561  10.423  0.00  0.00     0.001 A 
HETATM    7  C   UNK N   1      22.798  13.380   9.433  0.00  0.00     0.007 A 
ENDBRANCH   1   2
BRANCH   1   8
HETATM    8  C   UNK N   1      21.168  14.172   6.884  0.00  0.00     0.192 C 
BRANCH   8   9
HETATM    9  O   UNK N   1      22.078  15.015   6.289  0.00  0.00    -0.303 OA
BRANCH   9  10
HETATM   10  C   UNK N   1      21.693  16.222   5.805  0.00  0.00     0.358 C 
HETATM   11  O   UNK N   1      20.829  16.307   4.944  0.00  0.00    -0.239 OA
HETATM   12  N   UNK N   1      22.271  17.344   6.277  0.00  0.00    -0.346 N 
HETATM   13  H   UNK N   1      22.968  17.284   6.970  0.00  0.00     0.161 HD
HETATM   14  H   UNK N   1      21.996  18.223   5.929  0.00  0.00     0.161 HD
ENDBRANCH   9  10
ENDBRANCH   8   9
ENDBRANCH   1   8
BRANCH   1  15
HETATM   15  C   UNK N   1      19.928  15.665   8.831  0.00  0.00     0.192 C 
BRANCH  15  16
HETATM   16  O   UNK N   1      20.556  16.879   8.973  0.00  0.00    -0.303 OA
BRANCH  16  17
HETATM   17  C   UNK N   1      19.866  18.036   8.805  0.00  0.00     0.358 C 
HETATM   18  O   UNK N   1      20.352  18.972   8.185  0.00  0.00    -0.239 OA
HETATM   19  N   UNK N   1      18.630  18.156   9.325  0.00  0.00    -0.346 N 
HETATM   20  H   UNK N   1      18.124  18.993   9.206  0.00  0.00     0.161 HD
HETATM   21  H   UNK N   1      18.231  17.407   9.826  0.00  0.00     0.161 HD
ENDBRANCH  16  17
ENDBRANCH  15  16
ENDBRANCH   1  15
TORSDOF 7
ENDMDL
MODEL 7
REMARK VINA RESULT:      -5.5      2.887      4.938
REMARK  7 active torsions:
REMARK  status: ('A' for Active; 'I' for Inactive)
REMARK    1  A    between atoms: O_1  and  C_9 
REMARK    2  A    between atoms: O_1  and  C_16 
REMARK    3  A    between atoms: O_2  and  C_10 
REMARK    4  A    between atoms: O_2  and  C_17 
REMARK       I    between atoms: N_5  and  C_16 
REMARK       I    between atoms: N_6  and  C_17 
REMARK    5  A    between atoms: C_7  and  C_8 
REMARK    6  A    between atoms: C_7  and  C_9 
REMARK    7  A    between atoms: C_7  and  C_10 
ROOT
HETATM    1  C   UNK N   1      31.342  17.259   7.041  0.00  0.00     0.067 C 
ENDROOT
BRANCH   1   2
HETATM    2  C   UNK N   1      31.970  16.925   5.714  0.00  0.00    -0.050 A 
HETATM    3  C   UNK N   1      33.007  15.980   5.638  0.00  0.00     0.007 A 
HETATM    4  C   UNK N   1      33.592  15.669   4.409  0.00  0.00     0.001 A 
HETATM    5  C   UNK N   1      33.145  16.297   3.245  0.00  0.00     0.000 A 
HETATM    6  C   UNK N   1      32.114  17.237   3.308  0.00  0.00     0.001 A 
HETATM    7  C   UNK N   1      31.528  17.549   4.538  0.00  0.00     0.007 A 
ENDBRANCH   1   2
BRANCH   1   8
HETATM    8  C   UNK N   1      29.811  17.387   7.069  0.00  0.00     0.192 C 
BRANCH   8   9
HETATM    9  O   UNK N   1      29.237  17.178   8.301  0.00  0.00    -0.303 OA
BRANCH   9  10
HETATM   10  C   UNK N   1      28.814  18.222   9.057  0.00  0.00     0.358 C 
HETATM   11  O   UNK N   1      29.522  18.686   9.939  0.00  0.00    -0.239 OA
HETATM   12  N   UNK N   1      27.598  18.757   8.833  0.00  0.00    -0.346 N 
HETATM   13  H   UNK N   1      27.022  18.389   8.124  0.00  0.00     0.161 HD
HETATM   14  H   UNK N   1      27.286  19.515   9.378  0.00  0.00     0.161 HD
ENDBRANCH   9  10
ENDBRANCH   8   9
ENDBRANCH   1   8
BRANCH   1  15
HETATM   15  C   UNK N   1      32.305  17.426   8.225  0.00  0.00     0.192 C 
BRANCH  15  16
HETATM   16  O   UNK N   1      33.207  18.455   8.106  0.00  0.00    -0.303 OA
BRANCH  16  17
HETATM   17  C   UNK N   1      34.520  18.257   8.391  0.00  0.00     0.358 C 
HETATM   18  O   UNK N   1      35.298  19.199   8.448  0.00  0.00    -0.239 OA
HETATM   19  N   UNK N   1      34.973  17.009   8.615  0.00  0.00    -0.346 N 
HETATM   20  H   UNK N   1      35.924  16.860   8.823  0.00  0.00     0.161 HD
HETATM   21  H   UNK N   1      34.353  16.245   8.571  0.00  0.00     0.161 HD
ENDBRANCH  16  17
ENDBRANCH  15  16
ENDBRANCH   1  15
TORSDOF 7
ENDMDL
MODEL 8
REMARK VINA RESULT:      -5.4      2.884      4.632
REMARK  7 active torsions:
REMARK  status: ('A' for Active; 'I' for Inactive)
REMARK    1  A    between atoms: O_1  and  C_9 
REMARK    2  A    between atoms: O_1  and  C_16 
REMARK    3  A    between atoms: O_2  and  C_10 
REMARK    4  A    between atoms: O_2  and  C_17 
REMARK       I    between atoms: N_5  and  C_16 
REMARK       I    between atoms: N_6  and  C_17 
REMARK    5  A    between atoms: C_7  and  C_8 
REMARK    6  A    between atoms: C_7  and  C_9 
REMARK    7  A    between atoms: C_7  and  C_10 
ROOT
HETATM    1  C   UNK N   1      31.949  17.263   7.974  0.00  0.00     0.067 C 
ENDROOT
BRANCH   1   2
HETATM    2  C   UNK N   1      31.917  17.279   6.468  0.00  0.00    -0.050 A 
HETATM    3  C   UNK N   1      30.699  17.137   5.783  0.00  0.00     0.007 A 
HETATM    4  C   UNK N   1      30.667  17.150   4.387  0.00  0.00     0.001 A 
HETATM    5  C   UNK N   1      31.851  17.306   3.664  0.00  0.00     0.000 A 
HETATM    6  C   UNK N   1      33.068  17.449   4.335  0.00  0.00     0.001 A 
HETATM    7  C   UNK N   1      33.101  17.436   5.731  0.00  0.00     0.007 A 
ENDBRANCH   1   2
BRANCH   1   8
HETATM    8  C   UNK N   1      30.624  16.955   8.689  0.00  0.00     0.192 C 
BRANCH   8   9
HETATM    9  O   UNK N   1      29.890  18.062   9.045  0.00  0.00    -0.303 OA
BRANCH   9  10
HETATM   10  C   UNK N   1      28.549  17.976   9.234  0.00  0.00     0.358 C 
HETATM   11  O   UNK N   1      28.064  17.057   9.878  0.00  0.00    -0.239 OA
HETATM   12  N   UNK N   1      27.741  18.915   8.706  0.00  0.00    -0.346 N 
HETATM   13  H   UNK N   1      28.124  19.658   8.186  0.00  0.00     0.161 HD
HETATM   14  H   UNK N   1      26.767  18.858   8.839  0.00  0.00     0.161 HD
ENDBRANCH   9  10
ENDBRANCH   8   9
ENDBRANCH   1   8
BRANCH   1  15
HETATM   15  C   UNK N   1      33.308  17.545   8.628  0.00  0.00     0.192 C 
BRANCH  15  16
HETATM   16  O   UNK N   1      33.877  16.477   9.279  0.00  0.00    -0.303 OA
BRANCH  16  17
HETATM   17  C   UNK N   1      34.810  16.676  10.245  0.00  0.00     0.358 C 
HETATM   18  O   UNK N   1      35.596  17.610  10.175  0.00  0.00    -0.239 OA
HETATM   19  N   UNK N   1      34.871  15.836  11.296  0.00  0.00    -0.346 N 
HETATM   20  H   UNK N   1      35.545  15.976  12.000  0.00  0.00     0.161 HD
HETATM   21  H   UNK N   1      34.242  15.081  11.360  0.00  0.00     0.161 HD
ENDBRANCH  16  17
ENDBRANCH  15  16
ENDBRANCH   1  15
TORSDOF 7
ENDMDL
MODEL 9
REMARK VINA RESULT:      -5.4      9.266     11.414
REMARK  7 active torsions:
REMARK  status: ('A' for Active; 'I' for Inactive)
REMARK    1  A    between atoms: O_1  and  C_9 
REMARK    2  A    between atoms: O_1  and  C_16 
REMARK    3  A    between atoms: O_2  and  C_10 
REMARK    4  A    between atoms: O_2  and  C_17 
REMARK       I    between atoms: N_5  and  C_16 
REMARK       I    between atoms: N_6  and  C_17 
REMARK    5  A    between atoms: C_7  and  C_8 
REMARK    6  A    between atoms: C_7  and  C_9 
REMARK    7  A    between atoms: C_7  and  C_10 
ROOT
HETATM    1  C   UNK N   1      23.559  19.435   3.554  0.00  0.00     0.067 C 
ENDROOT
BRANCH   1   2
HETATM    2  C   UNK N   1      25.029  19.160   3.734  0.00  0.00    -0.050 A 
HETATM    3  C   UNK N   1      25.510  17.840   3.721  0.00  0.00     0.007 A 
HETATM    4  C   UNK N   1      26.871  17.582   3.890  0.00  0.00     0.001 A 
HETATM    5  C   UNK N   1      27.764  18.640   4.073  0.00  0.00     0.000 A 
HETATM    6  C   UNK N   1      27.297  19.956   4.087  0.00  0.00     0.001 A 
HETATM    7  C   UNK N   1      25.934  20.215   3.918  0.00  0.00     0.007 A 
ENDBRANCH   1   2
BRANCH   1   8
HETATM    8  C   UNK N   1      22.585  18.427   4.185  0.00  0.00     0.192 C 
BRANCH   8   9
HETATM    9  O   UNK N   1      22.552  18.441   5.559  0.00  0.00    -0.303 OA
BRANCH   9  10
HETATM   10  C   UNK N   1      21.423  18.101   6.230  0.00  0.00     0.358 C 
HETATM   11  O   UNK N   1      20.980  18.816   7.118  0.00  0.00    -0.239 OA
HETATM   12  N   UNK N   1      20.778  16.961   5.915  0.00  0.00    -0.346 N 
HETATM   13  H   UNK N   1      21.128  16.379   5.202  0.00  0.00     0.161 HD
HETATM   14  H   UNK N   1      19.958  16.709   6.399  0.00  0.00     0.161 HD
ENDBRANCH   9  10
ENDBRANCH   8   9
ENDBRANCH   1   8
BRANCH   1  15
HETATM   15  C   UNK N   1      23.196  20.701   2.766  0.00  0.00     0.192 C 
BRANCH  15  16
HETATM   16  O   UNK N   1      21.852  20.970   2.677  0.00  0.00    -0.303 OA
BRANCH  16  17
HETATM   17  C   UNK N   1      21.125  20.510   1.626  0.00  0.00     0.358 C 
HETATM   18  O   UNK N   1      21.457  20.761   0.476  0.00  0.00    -0.239 OA
HETATM   19  N   UNK N   1      20.024  19.768   1.851  0.00  0.00    -0.346 N 
HETATM   20  H   UNK N   1      19.494  19.432   1.093  0.00  0.00     0.161 HD
HETATM   21  H   UNK N   1      19.750  19.562   2.775  0.00  0.00     0.161 HD
ENDBRANCH  16  17
ENDBRANCH  15  16
ENDBRANCH   1  15
TORSDOF 7
ENDMDL
