REMARK  13 active torsions:
REMARK  status: ('A' for Active; 'I' for Inactive)
REMARK    1  A    between atoms: O_1  and  C_9 
REMARK    2  A    between atoms: O_2  and  C_21 
REMARK    3  A    between atoms: O_3  and  C_37 
REMARK    4  A    between atoms: N_5  and  C_12 
REMARK    5  A    between atoms: C_6  and  C_9 
REMARK    6  A    between atoms: C_9  and  C_13 
REMARK    7  A    between atoms: C_9  and  C_14 
REMARK    8  A    between atoms: C_12  and  C_15 
REMARK    9  A    between atoms: C_15  and  C_16 
REMARK   10  A    between atoms: C_16  and  C_21 
REMARK   11  A    between atoms: C_21  and  C_26 
REMARK   12  A    between atoms: C_31  and  C_32 
REMARK   13  A    between atoms: C_31  and  C_37 
ROOT
HETATM    1  N   UNK N   1       3.782   0.926   0.276  0.00  0.00     0.088 N 
HETATM    2  C   UNK N   1       3.986   3.639   1.327  0.00  0.00     0.033 C 
HETATM    3  C   UNK N   1       2.616   2.996   1.229  0.00  0.00     0.038 C 
HETATM    4  C   UNK N   1       4.903   2.533   1.836  0.00  0.00     0.038 C 
HETATM    5  C   UNK N   1       2.662   1.891   0.175  0.00  0.00     0.273 C 
HETATM    6  C   UNK N   1       5.053   1.464   0.772  0.00  0.00     0.273 C 
ENDROOT
BRANCH   1   7
HETATM    7  C   UNK N   1       4.096   0.582  -1.107  0.00  0.00     0.272 C 
BRANCH   7   8
HETATM    8  C   UNK N   1       3.245  -0.550  -1.671  0.00  0.00     0.033 C 
BRANCH   8   9
HETATM    9  C   UNK N   1       1.757  -0.450  -1.320  0.00  0.00     0.038 C 
BRANCH   9  10
HETATM   10  C   UNK N   1       1.442  -0.836   0.140  0.00  0.00     0.151 C 
BRANCH  10  11
HETATM   11  O   UNK N   1       0.077  -0.635   0.354  0.00  0.00    -0.391 OA
HETATM   12  H   UNK N   1      -0.276   0.256   0.502  0.00  0.00     0.210 HD
ENDBRANCH  10  11
BRANCH  10  13
HETATM   13  C   UNK N   1       1.834  -2.267   0.367  0.00  0.00    -0.030 A 
HETATM   14  C   UNK N   1       3.182  -2.620   0.255  0.00  0.00     0.010 A 
HETATM   15  C   UNK N   1       3.551  -3.948   0.134  0.00  0.00     0.009 A 
HETATM   16  C   UNK N   1       2.580  -4.957   0.159  0.00  0.00    -0.040 A 
HETATM   17  C   UNK N   1       1.240  -4.610   0.420  0.00  0.00     0.009 A 
HETATM   18  C   UNK N   1       0.866  -3.268   0.510  0.00  0.00     0.010 A 
BRANCH  16  19
HETATM   19  C   UNK N   1       2.931  -6.370  -0.267  0.00  0.00     0.065 C 
HETATM   20  C   UNK N   1       1.983  -6.765  -1.399  0.00  0.00     0.031 C 
HETATM   21  C   UNK N   1       4.340  -6.454  -0.850  0.00  0.00     0.031 C 
BRANCH  19  22
HETATM   22  C   UNK N   1       2.840  -7.340   0.879  0.00  0.00     0.152 C 
HETATM   23  O   UNK N   1       3.584  -7.214   1.842  0.00  0.00    -0.649 OA
BRANCH  22  24
HETATM   24  O   UNK N   1       1.977  -8.374   0.840  0.00  0.00    -0.776 OA
HETATM   25  H   UNK N   1       1.055  -8.214   0.814  0.00  0.00     0.167 HD
ENDBRANCH  22  24
ENDBRANCH  19  22
ENDBRANCH  16  19
ENDBRANCH  10  13
ENDBRANCH   9  10
ENDBRANCH   8   9
ENDBRANCH   7   8
ENDBRANCH   1   7
BRANCH   2  26
HETATM   26  C   UNK N   1       4.429   4.419   0.018  0.00  0.00     0.116 C 
BRANCH  26  27
HETATM   27  O   UNK N   1       3.761   3.914  -1.108  0.00  0.00    -0.380 OA
HETATM   28  H   UNK N   1       3.227   4.139  -1.886  0.00  0.00     0.211 HD
ENDBRANCH  26  27
BRANCH  26  29
HETATM   29  C   UNK N   1       4.059   5.887   0.101  0.00  0.00    -0.019 A 
HETATM   30  C   UNK N   1       3.405   6.421   1.226  0.00  0.00     0.010 A 
HETATM   31  C   UNK N   1       3.051   7.772   1.264  0.00  0.00     0.001 A 
HETATM   32  C   UNK N   1       3.344   8.603   0.180  0.00  0.00     0.000 A 
HETATM   33  C   UNK N   1       3.992   8.083  -0.943  0.00  0.00     0.001 A 
HETATM   34  C   UNK N   1       4.345   6.733  -0.984  0.00  0.00     0.010 A 
ENDBRANCH  26  29
BRANCH  26  35
HETATM   35  C   UNK N   1       5.924   4.252  -0.208  0.00  0.00    -0.019 A 
HETATM   36  C   UNK N   1       6.850   4.689   0.751  0.00  0.00     0.010 A 
HETATM   37  C   UNK N   1       8.215   4.442   0.572  0.00  0.00     0.001 A 
HETATM   38  C   UNK N   1       8.663   3.754  -0.560  0.00  0.00     0.000 A 
HETATM   39  C   UNK N   1       7.751   3.322  -1.523  0.00  0.00     0.001 A 
HETATM   40  C   UNK N   1       6.390   3.568  -1.347  0.00  0.00     0.010 A 
ENDBRANCH  26  35
ENDBRANCH   2  26
TORSDOF 13
