MODEL 1
REMARK VINA RESULT:      -4.9      0.000      0.000
REMARK  2 active torsions:
REMARK  status: ('A' for Active; 'I' for Inactive)
REMARK    1  A    between atoms: N_2  and  N_5 
REMARK       I    between atoms: N_2  and  C_9 
REMARK    2  A    between atoms: C_6  and  C_9 
ROOT
HETATM    1  N   UNK N   1      31.170  17.098   5.624  0.00  0.00    -0.375 N 
ATOM      2  HN  UNK N   1      30.436  16.888   4.948  1.00  0.00     0.164 HD
HETATM    3  C   UNK N   1      33.163  17.667   7.462  0.00  0.00     0.036 A 
HETATM    4  C   UNK N   1      31.841  17.482   7.881  0.00  0.00     0.034 A 
HETATM    5  C   UNK N   1      33.469  17.561   6.099  0.00  0.00     0.034 A 
HETATM    6  C   UNK N   1      30.851  17.196   6.943  0.00  0.00     0.088 A 
HETATM    7  C   UNK N   1      32.448  17.273   5.188  0.00  0.00     0.088 A 
ENDROOT
BRANCH   3   8
HETATM    8  C   UNK N   1      34.210  17.970   8.459  0.00  0.00     0.269 C 
HETATM    9  O   UNK N   1      34.943  18.939   8.308  0.00  0.00    -0.266 OA
HETATM   10  N   UNK N   1      34.353  17.169   9.541  0.00  0.00    -0.272 N 
HETATM   11  H   UNK N   1      33.756  16.394   9.648  0.00  0.00     0.189 HD
BRANCH  10  12
HETATM   12  N   UNK N   1      35.321  17.416  10.500  0.00  0.00    -0.342 N 
HETATM   13  H   UNK N   1      36.145  17.970  10.263  0.00  0.00     0.176 HD
HETATM   14  H   UNK N   1      35.212  17.045  11.444  0.00  0.00     0.176 HD
ENDBRANCH  10  12
ENDBRANCH   3   8
TORSDOF 2
ENDMDL
MODEL 2
REMARK VINA RESULT:      -4.6     10.954     12.607
REMARK  2 active torsions:
REMARK  status: ('A' for Active; 'I' for Inactive)
REMARK    1  A    between atoms: N_2  and  N_5 
REMARK       I    between atoms: N_2  and  C_9 
REMARK    2  A    between atoms: C_6  and  C_9 
ROOT
HETATM    1  N   UNK N   1      24.806  12.072  11.236  0.00  0.00    -0.375 N 
ATOM      2  HN  UNK N   1      25.696  11.690  11.554  1.00  0.00     0.164 HD
HETATM    3  C   UNK N   1      22.386  13.110  10.376  0.00  0.00     0.036 A 
HETATM    4  C   UNK N   1      22.459  12.360  11.555  0.00  0.00     0.034 A 
HETATM    5  C   UNK N   1      23.554  13.331   9.633  0.00  0.00     0.034 A 
HETATM    6  C   UNK N   1      23.685  11.845  11.972  0.00  0.00     0.088 A 
HETATM    7  C   UNK N   1      24.764  12.798  10.086  0.00  0.00     0.088 A 
ENDROOT
BRANCH   3   8
HETATM    8  C   UNK N   1      21.086  13.654   9.936  0.00  0.00     0.269 C 
HETATM    9  O   UNK N   1      20.058  13.010  10.105  0.00  0.00    -0.266 OA
HETATM   10  N   UNK N   1      21.037  14.871   9.343  0.00  0.00    -0.272 N 
HETATM   11  H   UNK N   1      21.870  15.377   9.214  0.00  0.00     0.189 HD
BRANCH  10  12
HETATM   12  N   UNK N   1      19.838  15.418   8.915  0.00  0.00    -0.342 N 
HETATM   13  H   UNK N   1      19.594  15.402   7.925  0.00  0.00     0.176 HD
HETATM   14  H   UNK N   1      19.199  15.838   9.591  0.00  0.00     0.176 HD
ENDBRANCH  10  12
ENDBRANCH   3   8
TORSDOF 2
ENDMDL
MODEL 3
REMARK VINA RESULT:      -4.5      9.460     11.093
REMARK  2 active torsions:
REMARK  status: ('A' for Active; 'I' for Inactive)
REMARK    1  A    between atoms: N_2  and  N_5 
REMARK       I    between atoms: N_2  and  C_9 
REMARK    2  A    between atoms: C_6  and  C_9 
ROOT
HETATM    1  N   UNK N   1      35.373  11.762  19.124  0.00  0.00    -0.375 N 
ATOM      2  HN  UNK N   1      35.318  11.417  20.082  1.00  0.00     0.164 HD
HETATM    3  C   UNK N   1      35.522  12.699  16.521  0.00  0.00     0.036 A 
HETATM    4  C   UNK N   1      35.756  11.349  16.806  0.00  0.00     0.034 A 
HETATM    5  C   UNK N   1      35.210  13.574  17.571  0.00  0.00     0.034 A 
HETATM    6  C   UNK N   1      35.677  10.895  18.121  0.00  0.00     0.088 A 
HETATM    7  C   UNK N   1      35.140  13.080  18.877  0.00  0.00     0.088 A 
ENDROOT
BRANCH   3   8
HETATM    8  C   UNK N   1      35.606  13.176  15.127  0.00  0.00     0.269 C 
HETATM    9  O   UNK N   1      34.599  13.233  14.431  0.00  0.00    -0.266 OA
HETATM   10  N   UNK N   1      36.805  13.552  14.621  0.00  0.00    -0.272 N 
HETATM   11  H   UNK N   1      37.605  13.502  15.192  0.00  0.00     0.189 HD
BRANCH  10  12
HETATM   12  N   UNK N   1      36.929  14.006  13.318  0.00  0.00    -0.342 N 
HETATM   13  H   UNK N   1      36.935  13.341  12.544  0.00  0.00     0.176 HD
HETATM   14  H   UNK N   1      37.014  15.005  13.132  0.00  0.00     0.176 HD
ENDBRANCH  10  12
ENDBRANCH   3   8
TORSDOF 2
ENDMDL
MODEL 4
REMARK VINA RESULT:      -4.4      9.672     11.260
REMARK  2 active torsions:
REMARK  status: ('A' for Active; 'I' for Inactive)
REMARK    1  A    between atoms: N_2  and  N_5 
REMARK       I    between atoms: N_2  and  C_9 
REMARK    2  A    between atoms: C_6  and  C_9 
ROOT
HETATM    1  N   UNK N   1      35.213  11.671  19.391  0.00  0.00    -0.375 N 
ATOM      2  HN  UNK N   1      35.139  11.287  20.333  1.00  0.00     0.164 HD
HETATM    3  C   UNK N   1      35.412  12.717  16.834  0.00  0.00     0.036 A 
HETATM    4  C   UNK N   1      35.238  13.562  17.936  0.00  0.00     0.034 A 
HETATM    5  C   UNK N   1      35.484  11.333  17.039  0.00  0.00     0.034 A 
HETATM    6  C   UNK N   1      35.140  13.018  19.215  0.00  0.00     0.088 A 
HETATM    7  C   UNK N   1      35.381  10.826  18.338  0.00  0.00     0.088 A 
ENDROOT
BRANCH   3   8
HETATM    8  C   UNK N   1      35.516  13.296  15.479  0.00  0.00     0.269 C 
HETATM    9  O   UNK N   1      34.620  13.119  14.662  0.00  0.00    -0.266 OA
HETATM   10  N   UNK N   1      36.607  14.024  15.146  0.00  0.00    -0.272 N 
HETATM   11  H   UNK N   1      37.318  14.158  15.813  0.00  0.00     0.189 HD
BRANCH  10  12
HETATM   12  N   UNK N   1      36.745  14.585  13.887  0.00  0.00    -0.342 N 
HETATM   13  H   UNK N   1      36.514  15.568  13.738  0.00  0.00     0.176 HD
HETATM   14  H   UNK N   1      37.077  14.016  13.108  0.00  0.00     0.176 HD
ENDBRANCH  10  12
ENDBRANCH   3   8
TORSDOF 2
ENDMDL
MODEL 5
REMARK VINA RESULT:      -4.4      4.219      6.065
REMARK  2 active torsions:
REMARK  status: ('A' for Active; 'I' for Inactive)
REMARK    1  A    between atoms: N_2  and  N_5 
REMARK       I    between atoms: N_2  and  C_9 
REMARK    2  A    between atoms: C_6  and  C_9 
ROOT
HETATM    1  N   UNK N   1      37.248  13.358  12.299  0.00  0.00    -0.375 N 
ATOM      2  HN  UNK N   1      37.750  12.609  12.775  1.00  0.00     0.164 HD
HETATM    3  C   UNK N   1      35.884  15.394  11.008  0.00  0.00     0.036 A 
HETATM    4  C   UNK N   1      35.705  15.176  12.379  0.00  0.00     0.034 A 
HETATM    5  C   UNK N   1      36.764  14.570  10.294  0.00  0.00     0.034 A 
HETATM    6  C   UNK N   1      36.399  14.147  13.011  0.00  0.00     0.088 A 
HETATM    7  C   UNK N   1      37.442  13.548  10.965  0.00  0.00     0.088 A 
ENDROOT
BRANCH   3   8
HETATM    8  C   UNK N   1      35.147  16.486  10.340  0.00  0.00     0.269 C 
HETATM    9  O   UNK N   1      35.626  17.612  10.286  0.00  0.00    -0.266 OA
HETATM   10  N   UNK N   1      33.937  16.233   9.788  0.00  0.00    -0.272 N 
HETATM   11  H   UNK N   1      33.564  15.324   9.839  0.00  0.00     0.189 HD
BRANCH  10  12
HETATM   12  N   UNK N   1      33.212  17.228   9.152  0.00  0.00    -0.342 N 
HETATM   13  H   UNK N   1      32.442  17.689   9.638  0.00  0.00     0.176 HD
HETATM   14  H   UNK N   1      33.447  17.500   8.197  0.00  0.00     0.176 HD
ENDBRANCH  10  12
ENDBRANCH   3   8
TORSDOF 2
ENDMDL
MODEL 6
REMARK VINA RESULT:      -4.4      9.232     10.463
REMARK  2 active torsions:
REMARK  status: ('A' for Active; 'I' for Inactive)
REMARK    1  A    between atoms: N_2  and  N_5 
REMARK       I    between atoms: N_2  and  C_9 
REMARK    2  A    between atoms: C_6  and  C_9 
ROOT
HETATM    1  N   UNK N   1      35.621  12.750  13.916  0.00  0.00    -0.375 N 
ATOM      2  HN  UNK N   1      35.679  12.502  12.929  1.00  0.00     0.164 HD
HETATM    3  C   UNK N   1      35.464  13.424  16.599  0.00  0.00     0.036 A 
HETATM    4  C   UNK N   1      34.524  12.559  16.026  0.00  0.00     0.034 A 
HETATM    5  C   UNK N   1      36.488  13.946  15.798  0.00  0.00     0.034 A 
HETATM    6  C   UNK N   1      34.619  12.231  14.675  0.00  0.00     0.088 A 
HETATM    7  C   UNK N   1      36.549  13.593  14.446  0.00  0.00     0.088 A 
ENDROOT
BRANCH   3   8
HETATM    8  C   UNK N   1      35.361  13.769  18.031  0.00  0.00     0.269 C 
HETATM    9  O   UNK N   1      35.466  14.934  18.393  0.00  0.00    -0.266 OA
HETATM   10  N   UNK N   1      35.149  12.789  18.940  0.00  0.00    -0.272 N 
HETATM   11  H   UNK N   1      35.067  11.858  18.634  0.00  0.00     0.189 HD
BRANCH  10  12
HETATM   12  N   UNK N   1      35.046  13.069  20.293  0.00  0.00    -0.342 N 
HETATM   13  H   UNK N   1      35.644  13.780  20.714  0.00  0.00     0.176 HD
HETATM   14  H   UNK N   1      34.372  12.564  20.869  0.00  0.00     0.176 HD
ENDBRANCH  10  12
ENDBRANCH   3   8
TORSDOF 2
ENDMDL
MODEL 7
REMARK VINA RESULT:      -4.3      8.725     10.143
REMARK  2 active torsions:
REMARK  status: ('A' for Active; 'I' for Inactive)
REMARK    1  A    between atoms: N_2  and  N_5 
REMARK       I    between atoms: N_2  and  C_9 
REMARK    2  A    between atoms: C_6  and  C_9 
ROOT
HETATM    1  N   UNK N   1      35.834  14.896  18.166  0.00  0.00    -0.375 N 
ATOM      2  HN  UNK N   1      35.626  15.283  19.085  1.00  0.00     0.164 HD
HETATM    3  C   UNK N   1      36.397  13.843  15.666  0.00  0.00     0.036 A 
HETATM    4  C   UNK N   1      37.059  14.990  16.121  0.00  0.00     0.034 A 
HETATM    5  C   UNK N   1      35.444  13.232  16.491  0.00  0.00     0.034 A 
HETATM    6  C   UNK N   1      36.763  15.505  17.381  0.00  0.00     0.088 A 
HETATM    7  C   UNK N   1      35.175  13.780  17.749  0.00  0.00     0.088 A 
ENDROOT
BRANCH   3   8
HETATM    8  C   UNK N   1      36.714  13.300  14.330  0.00  0.00     0.269 C 
HETATM    9  O   UNK N   1      36.846  12.092  14.170  0.00  0.00    -0.266 OA
HETATM   10  N   UNK N   1      36.857  14.145  13.282  0.00  0.00    -0.272 N 
HETATM   11  H   UNK N   1      36.747  15.112  13.425  0.00  0.00     0.189 HD
BRANCH  10  12
HETATM   12  N   UNK N   1      37.153  13.677  12.012  0.00  0.00    -0.342 N 
HETATM   13  H   UNK N   1      36.466  13.764  11.262  0.00  0.00     0.176 HD
HETATM   14  H   UNK N   1      38.059  13.245  11.825  0.00  0.00     0.176 HD
ENDBRANCH  10  12
ENDBRANCH   3   8
TORSDOF 2
ENDMDL
MODEL 8
REMARK VINA RESULT:      -4.3     16.583     17.318
REMARK  2 active torsions:
REMARK  status: ('A' for Active; 'I' for Inactive)
REMARK    1  A    between atoms: N_2  and  N_5 
REMARK       I    between atoms: N_2  and  C_9 
REMARK    2  A    between atoms: C_6  and  C_9 
ROOT
HETATM    1  N   UNK N   1      25.636  24.570  -6.438  0.00  0.00    -0.375 N 
ATOM      2  HN  UNK N   1      25.580  23.769  -7.067  1.00  0.00     0.164 HD
HETATM    3  C   UNK N   1      25.787  26.746  -4.731  0.00  0.00     0.036 A 
HETATM    4  C   UNK N   1      25.942  25.444  -4.240  0.00  0.00     0.034 A 
HETATM    5  C   UNK N   1      25.554  26.937  -6.099  0.00  0.00     0.034 A 
HETATM    6  C   UNK N   1      25.863  24.362  -5.113  0.00  0.00     0.088 A 
HETATM    7  C   UNK N   1      25.482  25.824  -6.943  0.00  0.00     0.088 A 
ENDROOT
BRANCH   3   8
HETATM    8  C   UNK N   1      25.871  27.891  -3.802  0.00  0.00     0.269 C 
HETATM    9  O   UNK N   1      25.827  27.709  -2.592  0.00  0.00    -0.266 OA
HETATM   10  N   UNK N   1      25.998  29.145  -4.298  0.00  0.00    -0.272 N 
HETATM   11  H   UNK N   1      26.033  29.276  -5.273  0.00  0.00     0.189 HD
BRANCH  10  12
HETATM   12  N   UNK N   1      26.081  30.247  -3.463  0.00  0.00    -0.342 N 
HETATM   13  H   UNK N   1      25.765  31.160  -3.790  0.00  0.00     0.176 HD
HETATM   14  H   UNK N   1      26.458  30.146  -2.520  0.00  0.00     0.176 HD
ENDBRANCH  10  12
ENDBRANCH   3   8
TORSDOF 2
ENDMDL
MODEL 9
REMARK VINA RESULT:      -4.3      1.506      2.446
REMARK  2 active torsions:
REMARK  status: ('A' for Active; 'I' for Inactive)
REMARK    1  A    between atoms: N_2  and  N_5 
REMARK       I    between atoms: N_2  and  C_9 
REMARK    2  A    between atoms: C_6  and  C_9 
ROOT
HETATM    1  N   UNK N   1      30.938  17.030   3.534  0.00  0.00    -0.375 N 
ATOM      2  HN  UNK N   1      30.351  16.903   2.710  1.00  0.00     0.164 HD
HETATM    3  C   UNK N   1      32.534  17.377   5.771  0.00  0.00     0.036 A 
HETATM    4  C   UNK N   1      33.084  17.452   4.486  0.00  0.00     0.034 A 
HETATM    5  C   UNK N   1      31.164  17.123   5.914  0.00  0.00     0.034 A 
HETATM    6  C   UNK N   1      32.266  17.275   3.373  0.00  0.00     0.088 A 
HETATM    7  C   UNK N   1      30.377  16.951   4.771  0.00  0.00     0.088 A 
ENDROOT
BRANCH   3   8
HETATM    8  C   UNK N   1      33.404  17.564   6.950  0.00  0.00     0.269 C 
HETATM    9  O   UNK N   1      34.534  18.018   6.817  0.00  0.00    -0.266 OA
HETATM   10  N   UNK N   1      32.944  17.232   8.179  0.00  0.00    -0.272 N 
HETATM   11  H   UNK N   1      32.034  16.869   8.270  0.00  0.00     0.189 HD
BRANCH  10  12
HETATM   12  N   UNK N   1      33.726  17.392   9.311  0.00  0.00    -0.342 N 
HETATM   13  H   UNK N   1      34.172  18.290   9.501  0.00  0.00     0.176 HD
HETATM   14  H   UNK N   1      33.858  16.612   9.955  0.00  0.00     0.176 HD
ENDBRANCH  10  12
ENDBRANCH   3   8
TORSDOF 2
ENDMDL
