MODEL 1
REMARK VINA RESULT:      -6.9      0.000      0.000
REMARK  5 active torsions:
REMARK  status: ('A' for Active; 'I' for Inactive)
REMARK    1  A    between atoms: S_1  and  N_6 
REMARK    2  A    between atoms: S_1  and  C_22 
REMARK    3  A    between atoms: C_7  and  C_12 
REMARK    4  A    between atoms: C_18  and  C_20 
REMARK    5  A    between atoms: C_20  and  C_22 
ROOT
HETATM    1  N   UNK N   1      34.910  13.000  20.193  0.00  0.00    -0.365 N 
HETATM    2  C   UNK N   1      35.034  10.874  19.464  0.00  0.00    -0.026 A 
HETATM    3  C   UNK N   1      35.278  11.718  18.401  0.00  0.00    -0.001 A 
HETATM    4  C   UNK N   1      34.803  11.699  20.564  0.00  0.00     0.096 A 
HETATM    5  C   UNK N   1      35.201  12.993  18.878  0.00  0.00     0.043 A 
HETATM    6  C   UNK N   1      35.554  11.457  17.060  0.00  0.00     0.021 A 
HETATM    7  C   UNK N   1      35.765  12.548  16.198  0.00  0.00    -0.056 A 
HETATM    8  C   UNK N   1      35.408  14.101  18.059  0.00  0.00     0.031 A 
HETATM    9  C   UNK N   1      35.695  13.868  16.700  0.00  0.00     0.009 A 
HETATM   10  H   UNK N   1      34.797  13.791  20.769  0.00  0.00     0.165 HD
ENDROOT
BRANCH   7  11
HETATM   11  C   UNK N   1      36.020  12.312  14.744  0.00  0.00     0.055 C 
BRANCH  11  12
HETATM   12  C   UNK N   1      36.538  13.595  14.046  0.00  0.00     0.167 C 
BRANCH  12  13
HETATM   13  S   UNK N   1      36.071  14.059  12.294  0.00  0.00     0.226 S 
HETATM   14  O   UNK N   1      36.243  15.247  13.252  0.00  0.00    -0.206 OA
HETATM   15  O   UNK N   1      34.764  13.397  12.749  0.00  0.00    -0.206 OA
BRANCH  13  16
HETATM   16  N   UNK N   1      37.380  12.880  12.442  0.00  0.00    -0.324 N 
HETATM   17  C   UNK N   1      37.839  12.588  11.095  0.00  0.00     0.159 C 
HETATM   18  H   UNK N   1      37.744  12.481  13.306  0.00  0.00     0.171 HD
ENDBRANCH  13  16
ENDBRANCH  12  13
ENDBRANCH  11  12
ENDBRANCH   7  11
BRANCH   2  19
HETATM   19  C   UNK N   1      35.023   9.366  19.490  0.00  0.00     0.024 C 
HETATM   20  C   UNK N   1      35.457   8.852  20.866  0.00  0.00     0.039 C 
HETATM   21  C   UNK N   1      35.362   7.327  20.911  0.00  0.00     0.272 C 
HETATM   22  N   UNK N   1      33.992   6.905  20.623  0.00  0.00     0.084 N 
HETATM   23  C   UNK N   1      33.679   7.262  19.243  0.00  0.00     0.272 C 
HETATM   24  C   UNK N   1      33.947   5.458  20.713  0.00  0.00     0.309 C 
HETATM   25  C   UNK N   1      33.661   8.777  19.105  0.00  0.00     0.039 C 
ENDBRANCH   2  19
TORSDOF 5
ENDMDL
MODEL 2
REMARK VINA RESULT:      -6.7     10.672     14.449
REMARK  5 active torsions:
REMARK  status: ('A' for Active; 'I' for Inactive)
REMARK    1  A    between atoms: S_1  and  N_6 
REMARK    2  A    between atoms: S_1  and  C_22 
REMARK    3  A    between atoms: C_7  and  C_12 
REMARK    4  A    between atoms: C_18  and  C_20 
REMARK    5  A    between atoms: C_20  and  C_22 
ROOT
HETATM    1  N   UNK N   1      26.966  18.568   6.284  0.00  0.00    -0.365 N 
HETATM    2  C   UNK N   1      28.146  16.901   5.338  0.00  0.00    -0.026 A 
HETATM    3  C   UNK N   1      28.810  17.322   6.472  0.00  0.00    -0.001 A 
HETATM    4  C   UNK N   1      27.006  17.697   5.243  0.00  0.00     0.096 A 
HETATM    5  C   UNK N   1      28.067  18.325   7.021  0.00  0.00     0.043 A 
HETATM    6  C   UNK N   1      30.007  16.902   7.050  0.00  0.00     0.021 A 
HETATM    7  C   UNK N   1      30.433  17.533   8.232  0.00  0.00    -0.056 A 
HETATM    8  C   UNK N   1      28.451  18.973   8.192  0.00  0.00     0.031 A 
HETATM    9  C   UNK N   1      29.653  18.564   8.804  0.00  0.00     0.009 A 
HETATM   10  H   UNK N   1      26.271  19.243   6.464  0.00  0.00     0.165 HD
ENDROOT
BRANCH   7  11
HETATM   11  C   UNK N   1      31.733  17.142   8.860  0.00  0.00     0.055 C 
BRANCH  11  12
HETATM   12  C   UNK N   1      32.931  17.815   8.144  0.00  0.00     0.167 C 
BRANCH  12  13
HETATM   13  S   UNK N   1      34.554  16.936   7.833  0.00  0.00     0.226 S 
HETATM   14  O   UNK N   1      34.278  18.129   6.906  0.00  0.00    -0.206 OA
HETATM   15  O   UNK N   1      33.574  15.857   7.356  0.00  0.00    -0.206 OA
BRANCH  13  16
HETATM   16  N   UNK N   1      34.206  17.305   9.526  0.00  0.00    -0.324 N 
HETATM   17  C   UNK N   1      35.250  16.678  10.318  0.00  0.00     0.159 C 
HETATM   18  H   UNK N   1      33.422  17.853   9.880  0.00  0.00     0.171 HD
ENDBRANCH  13  16
ENDBRANCH  12  13
ENDBRANCH  11  12
ENDBRANCH   7  11
BRANCH   2  19
HETATM   19  C   UNK N   1      28.523  15.803   4.376  0.00  0.00     0.024 C 
HETATM   20  C   UNK N   1      28.281  14.430   5.010  0.00  0.00     0.039 C 
HETATM   21  C   UNK N   1      28.583  13.323   4.000  0.00  0.00     0.272 C 
HETATM   22  N   UNK N   1      27.743  13.489   2.815  0.00  0.00     0.084 N 
HETATM   23  C   UNK N   1      28.126  14.727   2.145  0.00  0.00     0.272 C 
HETATM   24  C   UNK N   1      28.041  12.398   1.906  0.00  0.00     0.309 C 
HETATM   25  C   UNK N   1      27.784  15.911   3.037  0.00  0.00     0.039 C 
ENDBRANCH   2  19
TORSDOF 5
ENDMDL
MODEL 3
REMARK VINA RESULT:      -6.7     10.930     15.514
REMARK  5 active torsions:
REMARK  status: ('A' for Active; 'I' for Inactive)
REMARK    1  A    between atoms: S_1  and  N_6 
REMARK    2  A    between atoms: S_1  and  C_22 
REMARK    3  A    between atoms: C_7  and  C_12 
REMARK    4  A    between atoms: C_18  and  C_20 
REMARK    5  A    between atoms: C_20  and  C_22 
ROOT
HETATM    1  N   UNK N   1      28.867  15.757   2.984  0.00  0.00    -0.365 N 
HETATM    2  C   UNK N   1      28.981  17.585   4.294  0.00  0.00    -0.026 A 
HETATM    3  C   UNK N   1      30.203  16.945   4.323  0.00  0.00    -0.001 A 
HETATM    4  C   UNK N   1      28.168  16.821   3.458  0.00  0.00     0.096 A 
HETATM    5  C   UNK N   1      30.100  15.850   3.517  0.00  0.00     0.043 A 
HETATM    6  C   UNK N   1      31.384  17.243   4.999  0.00  0.00     0.021 A 
HETATM    7  C   UNK N   1      32.487  16.388   4.824  0.00  0.00    -0.056 A 
HETATM    8  C   UNK N   1      31.168  14.980   3.314  0.00  0.00     0.031 A 
HETATM    9  C   UNK N   1      32.378  15.260   3.979  0.00  0.00     0.009 A 
HETATM   10  H   UNK N   1      28.537  15.058   2.374  0.00  0.00     0.165 HD
ENDROOT
BRANCH   7  11
HETATM   11  C   UNK N   1      33.759  16.648   5.566  0.00  0.00     0.055 C 
BRANCH  11  12
HETATM   12  C   UNK N   1      33.599  16.360   7.080  0.00  0.00     0.167 C 
BRANCH  12  13
HETATM   13  S   UNK N   1      34.181  17.543   8.408  0.00  0.00     0.226 S 
HETATM   14  O   UNK N   1      32.659  17.492   8.211  0.00  0.00    -0.206 OA
HETATM   15  O   UNK N   1      34.695  18.272   7.161  0.00  0.00    -0.206 OA
BRANCH  13  16
HETATM   16  N   UNK N   1      34.907  15.932   8.459  0.00  0.00    -0.324 N 
HETATM   17  C   UNK N   1      35.469  15.764   9.788  0.00  0.00     0.159 C 
HETATM   18  H   UNK N   1      34.929  15.251   7.700  0.00  0.00     0.171 HD
ENDBRANCH  13  16
ENDBRANCH  12  13
ENDBRANCH  11  12
ENDBRANCH   7  11
BRANCH   2  19
HETATM   19  C   UNK N   1      28.563  18.856   4.989  0.00  0.00     0.024 C 
HETATM   20  C   UNK N   1      27.411  19.525   4.234  0.00  0.00     0.039 C 
HETATM   21  C   UNK N   1      26.936  20.766   4.991  0.00  0.00     0.272 C 
HETATM   22  N   UNK N   1      26.510  20.394   6.339  0.00  0.00     0.084 N 
HETATM   23  C   UNK N   1      27.676  19.923   7.079  0.00  0.00     0.272 C 
HETATM   24  C   UNK N   1      26.038  21.596   7.000  0.00  0.00     0.309 C 
HETATM   25  C   UNK N   1      28.181  18.630   6.457  0.00  0.00     0.039 C 
ENDBRANCH   2  19
TORSDOF 5
ENDMDL
MODEL 4
REMARK VINA RESULT:      -6.7     23.906     27.240
REMARK  5 active torsions:
REMARK  status: ('A' for Active; 'I' for Inactive)
REMARK    1  A    between atoms: S_1  and  N_6 
REMARK    2  A    between atoms: S_1  and  C_22 
REMARK    3  A    between atoms: C_7  and  C_12 
REMARK    4  A    between atoms: C_18  and  C_20 
REMARK    5  A    between atoms: C_20  and  C_22 
ROOT
HETATM    1  N   UNK N   1      25.574  24.454  -6.203  0.00  0.00    -0.365 N 
HETATM    2  C   UNK N   1      27.560  24.468  -5.142  0.00  0.00    -0.026 A 
HETATM    3  C   UNK N   1      26.932  25.677  -4.918  0.00  0.00    -0.001 A 
HETATM    4  C   UNK N   1      26.695  23.730  -5.948  0.00  0.00     0.096 A 
HETATM    5  C   UNK N   1      25.734  25.631  -5.568  0.00  0.00     0.043 A 
HETATM    6  C   UNK N   1      27.329  26.803  -4.200  0.00  0.00     0.021 A 
HETATM    7  C   UNK N   1      26.455  27.903  -4.149  0.00  0.00    -0.056 A 
HETATM    8  C   UNK N   1      24.838  26.696  -5.539  0.00  0.00     0.031 A 
HETATM    9  C   UNK N   1      25.209  27.847  -4.815  0.00  0.00     0.009 A 
HETATM   10  H   UNK N   1      24.800  24.175  -6.744  0.00  0.00     0.165 HD
ENDROOT
BRANCH   7  11
HETATM   11  C   UNK N   1      26.861  29.147  -3.427  0.00  0.00     0.055 C 
BRANCH  11  12
HETATM   12  C   UNK N   1      28.019  28.871  -2.434  0.00  0.00     0.167 C 
BRANCH  12  13
HETATM   13  S   UNK N   1      28.930  30.233  -1.529  0.00  0.00     0.226 S 
HETATM   14  O   UNK N   1      27.790  29.580  -0.734  0.00  0.00    -0.206 OA
HETATM   15  O   UNK N   1      28.211  31.062  -2.601  0.00  0.00    -0.206 OA
BRANCH  13  16
HETATM   16  N   UNK N   1      29.957  29.041  -2.335  0.00  0.00    -0.324 N 
HETATM   17  C   UNK N   1      31.327  29.337  -1.952  0.00  0.00     0.159 C 
HETATM   18  H   UNK N   1      29.649  28.289  -2.951  0.00  0.00     0.171 HD
ENDBRANCH  13  16
ENDBRANCH  12  13
ENDBRANCH  11  12
ENDBRANCH   7  11
BRANCH   2  19
HETATM   19  C   UNK N   1      28.895  23.988  -4.631  0.00  0.00     0.024 C 
HETATM   20  C   UNK N   1      28.775  23.522  -3.178  0.00  0.00     0.039 C 
HETATM   21  C   UNK N   1      30.111  22.957  -2.695  0.00  0.00     0.272 C 
HETATM   22  N   UNK N   1      30.520  21.845  -3.551  0.00  0.00     0.084 N 
HETATM   23  C   UNK N   1      30.791  22.365  -4.887  0.00  0.00     0.272 C 
HETATM   24  C   UNK N   1      31.770  21.324  -3.032  0.00  0.00     0.309 C 
HETATM   25  C   UNK N   1      29.497  22.878  -5.501  0.00  0.00     0.039 C 
ENDBRANCH   2  19
TORSDOF 5
ENDMDL
MODEL 5
REMARK VINA RESULT:      -6.7      6.463     11.331
REMARK  5 active torsions:
REMARK  status: ('A' for Active; 'I' for Inactive)
REMARK    1  A    between atoms: S_1  and  N_6 
REMARK    2  A    between atoms: S_1  and  C_22 
REMARK    3  A    between atoms: C_7  and  C_12 
REMARK    4  A    between atoms: C_18  and  C_20 
REMARK    5  A    between atoms: C_20  and  C_22 
ROOT
HETATM    1  N   UNK N   1      34.409  18.218   8.577  0.00  0.00    -0.365 N 
HETATM    2  C   UNK N   1      32.940  16.572   8.129  0.00  0.00    -0.026 A 
HETATM    3  C   UNK N   1      33.746  16.171   9.175  0.00  0.00    -0.001 A 
HETATM    4  C   UNK N   1      33.379  17.847   7.774  0.00  0.00     0.096 A 
HETATM    5  C   UNK N   1      34.617  17.190   9.422  0.00  0.00     0.043 A 
HETATM    6  C   UNK N   1      33.778  14.990   9.914  0.00  0.00     0.021 A 
HETATM    7  C   UNK N   1      34.731  14.872  10.941  0.00  0.00    -0.056 A 
HETATM    8  C   UNK N   1      35.573  17.116  10.431  0.00  0.00     0.031 A 
HETATM    9  C   UNK N   1      35.624  15.937  11.201  0.00  0.00     0.009 A 
HETATM   10  H   UNK N   1      34.906  19.068   8.546  0.00  0.00     0.165 HD
ENDROOT
BRANCH   7  11
HETATM   11  C   UNK N   1      34.827  13.605  11.729  0.00  0.00     0.055 C 
BRANCH  11  12
HETATM   12  C   UNK N   1      36.060  13.615  12.668  0.00  0.00     0.167 C 
BRANCH  12  13
HETATM   13  S   UNK N   1      36.012  12.953  14.417  0.00  0.00     0.226 S 
HETATM   14  O   UNK N   1      36.484  11.946  13.358  0.00  0.00    -0.206 OA
HETATM   15  O   UNK N   1      34.509  13.100  14.150  0.00  0.00    -0.206 OA
BRANCH  13  16
HETATM   16  N   UNK N   1      36.776  14.536  14.229  0.00  0.00    -0.324 N 
HETATM   17  C   UNK N   1      37.190  14.965  15.553  0.00  0.00     0.159 C 
HETATM   18  H   UNK N   1      36.902  15.050  13.357  0.00  0.00     0.171 HD
ENDBRANCH  13  16
ENDBRANCH  12  13
ENDBRANCH  11  12
ENDBRANCH   7  11
BRANCH   2  19
HETATM   19  C   UNK N   1      31.797  15.833   7.480  0.00  0.00     0.024 C 
HETATM   20  C   UNK N   1      30.760  16.821   6.938  0.00  0.00     0.039 C 
HETATM   21  C   UNK N   1      29.649  16.069   6.206  0.00  0.00     0.272 C 
HETATM   22  N   UNK N   1      30.217  15.282   5.113  0.00  0.00     0.084 N 
HETATM   23  C   UNK N   1      31.066  14.241   5.684  0.00  0.00     0.272 C 
HETATM   24  C   UNK N   1      29.123  14.618   4.431  0.00  0.00     0.309 C 
HETATM   25  C   UNK N   1      32.262  14.884   6.369  0.00  0.00     0.039 C 
ENDBRANCH   2  19
TORSDOF 5
ENDMDL
MODEL 6
REMARK VINA RESULT:      -6.7     23.239     27.472
REMARK  5 active torsions:
REMARK  status: ('A' for Active; 'I' for Inactive)
REMARK    1  A    between atoms: S_1  and  N_6 
REMARK    2  A    between atoms: S_1  and  C_22 
REMARK    3  A    between atoms: C_7  and  C_12 
REMARK    4  A    between atoms: C_18  and  C_20 
REMARK    5  A    between atoms: C_20  and  C_22 
ROOT
HETATM    1  N   UNK N   1      26.111  22.111  -8.386  0.00  0.00    -0.365 N 
HETATM    2  C   UNK N   1      26.890  23.580  -6.868  0.00  0.00    -0.026 A 
HETATM    3  C   UNK N   1      27.768  22.517  -6.944  0.00  0.00    -0.001 A 
HETATM    4  C   UNK N   1      25.867  23.298  -7.772  0.00  0.00     0.096 A 
HETATM    5  C   UNK N   1      27.269  21.653  -7.874  0.00  0.00     0.043 A 
HETATM    6  C   UNK N   1      28.954  22.250  -6.263  0.00  0.00     0.021 A 
HETATM    7  C   UNK N   1      29.642  21.061  -6.565  0.00  0.00    -0.056 A 
HETATM    8  C   UNK N   1      27.921  20.469  -8.205  0.00  0.00     0.031 A 
HETATM    9  C   UNK N   1      29.127  20.174  -7.538  0.00  0.00     0.009 A 
HETATM   10  H   UNK N   1      25.552  21.673  -9.069  0.00  0.00     0.165 HD
ENDROOT
BRANCH   7  11
HETATM   11  C   UNK N   1      30.895  20.717  -5.826  0.00  0.00     0.055 C 
BRANCH  11  12
HETATM   12  C   UNK N   1      30.749  20.990  -4.307  0.00  0.00     0.167 C 
BRANCH  12  13
HETATM   13  S   UNK N   1      32.017  21.949  -3.320  0.00  0.00     0.226 S 
HETATM   14  O   UNK N   1      30.577  22.056  -2.798  0.00  0.00    -0.206 OA
HETATM   15  O   UNK N   1      32.009  22.775  -4.612  0.00  0.00    -0.206 OA
BRANCH  13  16
HETATM   16  N   UNK N   1      32.467  20.286  -3.717  0.00  0.00    -0.324 N 
HETATM   17  C   UNK N   1      33.915  20.207  -3.622  0.00  0.00     0.159 C 
HETATM   18  H   UNK N   1      31.833  19.528  -3.965  0.00  0.00     0.171 HD
ENDBRANCH  13  16
ENDBRANCH  12  13
ENDBRANCH  11  12
ENDBRANCH   7  11
BRANCH   2  19
HETATM   19  C   UNK N   1      26.980  24.820  -6.015  0.00  0.00     0.024 C 
HETATM   20  C   UNK N   1      26.249  25.985  -6.687  0.00  0.00     0.039 C 
HETATM   21  C   UNK N   1      26.271  27.215  -5.779  0.00  0.00     0.272 C 
HETATM   22  N   UNK N   1      25.645  26.896  -4.496  0.00  0.00     0.084 N 
HETATM   23  C   UNK N   1      26.470  25.905  -3.812  0.00  0.00     0.272 C 
HETATM   24  C   UNK N   1      25.659  28.100  -3.687  0.00  0.00     0.309 C 
HETATM   25  C   UNK N   1      26.446  24.601  -4.595  0.00  0.00     0.039 C 
ENDBRANCH   2  19
TORSDOF 5
ENDMDL
MODEL 7
REMARK VINA RESULT:      -6.6     15.557     17.984
REMARK  5 active torsions:
REMARK  status: ('A' for Active; 'I' for Inactive)
REMARK    1  A    between atoms: S_1  and  N_6 
REMARK    2  A    between atoms: S_1  and  C_22 
REMARK    3  A    between atoms: C_7  and  C_12 
REMARK    4  A    between atoms: C_18  and  C_20 
REMARK    5  A    between atoms: C_20  and  C_22 
ROOT
HETATM    1  N   UNK N   1      22.240  19.775   3.062  0.00  0.00    -0.365 N 
HETATM    2  C   UNK N   1      22.782  18.363   4.729  0.00  0.00    -0.026 A 
HETATM    3  C   UNK N   1      23.931  18.987   4.290  0.00  0.00    -0.001 A 
HETATM    4  C   UNK N   1      21.746  18.868   3.944  0.00  0.00     0.096 A 
HETATM    5  C   UNK N   1      23.566  19.837   3.287  0.00  0.00     0.043 A 
HETATM    6  C   UNK N   1      25.259  18.864   4.692  0.00  0.00     0.021 A 
HETATM    7  C   UNK N   1      26.228  19.651   4.045  0.00  0.00    -0.056 A 
HETATM    8  C   UNK N   1      24.493  20.637   2.624  0.00  0.00     0.031 A 
HETATM    9  C   UNK N   1      25.843  20.539   3.015  0.00  0.00     0.009 A 
HETATM   10  H   UNK N   1      21.730  20.286   2.391  0.00  0.00     0.165 HD
ENDROOT
BRANCH   7  11
HETATM   11  C   UNK N   1      27.670  19.517   4.418  0.00  0.00     0.055 C 
BRANCH  11  12
HETATM   12  C   UNK N   1      28.149  18.048   4.304  0.00  0.00     0.167 C 
BRANCH  12  13
HETATM   13  S   UNK N   1      29.147  17.197   5.639  0.00  0.00     0.226 S 
HETATM   14  O   UNK N   1      27.951  16.389   5.113  0.00  0.00    -0.206 OA
HETATM   15  O   UNK N   1      28.506  18.320   6.464  0.00  0.00    -0.206 OA
BRANCH  13  16
HETATM   16  N   UNK N   1      30.093  17.925   4.335  0.00  0.00    -0.324 N 
HETATM   17  C   UNK N   1      31.459  17.458   4.494  0.00  0.00     0.159 C 
HETATM   18  H   UNK N   1      29.746  18.553   3.610  0.00  0.00     0.171 HD
ENDBRANCH  13  16
ENDBRANCH  12  13
ENDBRANCH  11  12
ENDBRANCH   7  11
BRANCH   2  19
HETATM   19  C   UNK N   1      22.620  17.350   5.834  0.00  0.00     0.024 C 
HETATM   20  C   UNK N   1      21.207  17.419   6.420  0.00  0.00     0.039 C 
HETATM   21  C   UNK N   1      21.024  16.333   7.481  0.00  0.00     0.272 C 
HETATM   22  N   UNK N   1      21.264  15.016   6.891  0.00  0.00     0.084 N 
HETATM   23  C   UNK N   1      22.668  14.932   6.502  0.00  0.00     0.272 C 
HETATM   24  C   UNK N   1      21.044  14.023   7.924  0.00  0.00     0.309 C 
HETATM   25  C   UNK N   1      22.941  15.921   5.379  0.00  0.00     0.039 C 
ENDBRANCH   2  19
TORSDOF 5
ENDMDL
MODEL 8
REMARK VINA RESULT:      -6.6     19.434     21.836
REMARK  5 active torsions:
REMARK  status: ('A' for Active; 'I' for Inactive)
REMARK    1  A    between atoms: S_1  and  N_6 
REMARK    2  A    between atoms: S_1  and  C_22 
REMARK    3  A    between atoms: C_7  and  C_12 
REMARK    4  A    between atoms: C_18  and  C_20 
REMARK    5  A    between atoms: C_20  and  C_22 
ROOT
HETATM    1  N   UNK N   1      20.106  18.143   0.630  0.00  0.00    -0.365 N 
HETATM    2  C   UNK N   1      19.985  16.069   1.497  0.00  0.00    -0.026 A 
HETATM    3  C   UNK N   1      20.362  16.943   2.496  0.00  0.00    -0.001 A 
HETATM    4  C   UNK N   1      19.838  16.842   0.346  0.00  0.00     0.096 A 
HETATM    5  C   UNK N   1      20.420  18.186   1.938  0.00  0.00     0.043 A 
HETATM    6  C   UNK N   1      20.661  16.733   3.841  0.00  0.00     0.021 A 
HETATM    7  C   UNK N   1      21.018  17.844   4.626  0.00  0.00    -0.056 A 
HETATM    8  C   UNK N   1      20.764  19.313   2.681  0.00  0.00     0.031 A 
HETATM    9  C   UNK N   1      21.065  19.133   4.046  0.00  0.00     0.009 A 
HETATM   10  H   UNK N   1      20.078  18.903   0.003  0.00  0.00     0.165 HD
ENDROOT
BRANCH   7  11
HETATM   11  C   UNK N   1      21.388  17.655   6.062  0.00  0.00     0.055 C 
BRANCH  11  12
HETATM   12  C   UNK N   1      20.718  16.391   6.657  0.00  0.00     0.167 C 
BRANCH  12  13
HETATM   13  S   UNK N   1      19.807  16.396   8.291  0.00  0.00     0.226 S 
HETATM   14  O   UNK N   1      18.909  16.265   7.052  0.00  0.00    -0.206 OA
HETATM   15  O   UNK N   1      20.287  17.852   8.252  0.00  0.00    -0.206 OA
BRANCH  13  16
HETATM   16  N   UNK N   1      21.218  15.335   8.215  0.00  0.00    -0.324 N 
HETATM   17  C   UNK N   1      21.197  14.517   9.416  0.00  0.00     0.159 C 
HETATM   18  H   UNK N   1      21.915  15.302   7.471  0.00  0.00     0.171 HD
ENDBRANCH  13  16
ENDBRANCH  12  13
ENDBRANCH  11  12
ENDBRANCH   7  11
BRANCH   2  19
HETATM   19  C   UNK N   1      19.750  14.582   1.582  0.00  0.00     0.024 C 
HETATM   20  C   UNK N   1      18.763  14.135   0.500  0.00  0.00     0.039 C 
HETATM   21  C   UNK N   1      18.595  12.615   0.537  0.00  0.00     0.272 C 
HETATM   22  N   UNK N   1      19.891  11.967   0.340  0.00  0.00     0.084 N 
HETATM   23  C   UNK N   1      20.745  12.281   1.480  0.00  0.00     0.272 C 
HETATM   24  C   UNK N   1      19.673  10.533   0.347  0.00  0.00     0.309 C 
HETATM   25  C   UNK N   1      21.048  13.772   1.489  0.00  0.00     0.039 C 
ENDBRANCH   2  19
TORSDOF 5
ENDMDL
MODEL 9
REMARK VINA RESULT:      -6.6     12.201     14.844
REMARK  5 active torsions:
REMARK  status: ('A' for Active; 'I' for Inactive)
REMARK    1  A    between atoms: S_1  and  N_6 
REMARK    2  A    between atoms: S_1  and  C_22 
REMARK    3  A    between atoms: C_7  and  C_12 
REMARK    4  A    between atoms: C_18  and  C_20 
REMARK    5  A    between atoms: C_20  and  C_22 
ROOT
HETATM    1  N   UNK N   1      31.407  16.263   9.354  0.00  0.00    -0.365 N 
HETATM    2  C   UNK N   1      31.299  16.247   7.106  0.00  0.00    -0.026 A 
HETATM    3  C   UNK N   1      30.347  17.123   7.586  0.00  0.00    -0.001 A 
HETATM    4  C   UNK N   1      31.940  15.723   8.228  0.00  0.00     0.096 A 
HETATM    5  C   UNK N   1      30.444  17.112   8.946  0.00  0.00     0.043 A 
HETATM    6  C   UNK N   1      29.408  17.916   6.929  0.00  0.00     0.021 A 
HETATM    7  C   UNK N   1      28.558  18.723   7.705  0.00  0.00    -0.056 A 
HETATM    8  C   UNK N   1      29.624  17.899   9.750  0.00  0.00     0.031 A 
HETATM    9  C   UNK N   1      28.670  18.717   9.114  0.00  0.00     0.009 A 
HETATM   10  H   UNK N   1      31.670  16.072  10.284  0.00  0.00     0.165 HD
ENDROOT
BRANCH   7  11
HETATM   11  C   UNK N   1      27.508  19.555   7.041  0.00  0.00     0.055 C 
BRANCH  11  12
HETATM   12  C   UNK N   1      27.295  19.125   5.567  0.00  0.00     0.167 C 
BRANCH  12  13
HETATM   13  S   UNK N   1      26.061  19.959   4.433  0.00  0.00     0.226 S 
HETATM   14  O   UNK N   1      27.442  19.704   3.810  0.00  0.00    -0.206 OA
HETATM   15  O   UNK N   1      26.307  21.093   5.435  0.00  0.00    -0.206 OA
BRANCH  13  16
HETATM   16  N   UNK N   1      25.450  18.552   5.312  0.00  0.00    -0.324 N 
HETATM   17  C   UNK N   1      24.077  18.350   4.882  0.00  0.00     0.159 C 
HETATM   18  H   UNK N   1      25.963  17.990   5.991  0.00  0.00     0.171 HD
ENDBRANCH  13  16
ENDBRANCH  12  13
ENDBRANCH  11  12
ENDBRANCH   7  11
BRANCH   2  19
HETATM   19  C   UNK N   1      31.632  15.905   5.675  0.00  0.00     0.024 C 
HETATM   20  C   UNK N   1      32.666  16.886   5.117  0.00  0.00     0.039 C 
HETATM   21  C   UNK N   1      33.062  16.481   3.697  0.00  0.00     0.272 C 
HETATM   22  N   UNK N   1      33.603  15.123   3.699  0.00  0.00     0.084 N 
HETATM   23  C   UNK N   1      32.536  14.200   4.071  0.00  0.00     0.272 C 
HETATM   24  C   UNK N   1      33.995  14.801   2.340  0.00  0.00     0.309 C 
HETATM   25  C   UNK N   1      32.122  14.461   5.512  0.00  0.00     0.039 C 
ENDBRANCH   2  19
TORSDOF 5
ENDMDL
