MODEL 1
REMARK VINA RESULT:      -5.8      0.000      0.000
REMARK  5 active torsions:
REMARK  status: ('A' for Active; 'I' for Inactive)
REMARK    1  A    between atoms: N_2  and  C_12 
REMARK    2  A    between atoms: N_3  and  C_18 
REMARK    3  A    between atoms: C_8  and  C_10 
REMARK    4  A    between atoms: C_10  and  C_12 
REMARK    5  A    between atoms: C_15  and  C_18 
ROOT
HETATM    1  N   UNK N   1      23.598  20.515   2.830  0.00  0.00    -0.365 N 
HETATM    2  C   UNK N   1      23.154  18.676   4.038  0.00  0.00    -0.029 A 
HETATM    3  C   UNK N   1      24.492  18.943   4.141  0.00  0.00    -0.001 A 
HETATM    4  C   UNK N   1      24.730  20.061   3.401  0.00  0.00     0.043 A 
HETATM    5  C   UNK N   1      25.505  18.273   4.821  0.00  0.00     0.023 A 
HETATM    6  C   UNK N   1      22.614  19.661   3.217  0.00  0.00     0.096 A 
HETATM    7  C   UNK N   1      26.814  18.778   4.723  0.00  0.00    -0.037 A 
HETATM    8  C   UNK N   1      26.003  20.607   3.291  0.00  0.00     0.031 A 
HETATM    9  C   UNK N   1      27.054  19.949   3.958  0.00  0.00     0.011 A 
HETATM   10  H   UNK N   1      23.502  21.305   2.250  0.00  0.00     0.165 HD
ENDROOT
BRANCH   7  11
HETATM   11  C   UNK N   1      27.913  18.000   5.407  0.00  0.00     0.188 C 
BRANCH  11  12
HETATM   12  N   UNK N   1      27.897  17.978   6.872  0.00  0.00    -0.283 N 
HETATM   13  N   UNK N   1      27.702  16.930   7.650  0.00  0.00    -0.293 N 
HETATM   14  C   UNK N   1      27.752  17.372   8.919  0.00  0.00     0.198 A 
ATOM     15  HN  UNK N   1      27.542  15.969   7.347  1.00  0.00     0.188 HD
HETATM   16  N   UNK N   1      27.982  18.703   8.947  0.00  0.00    -0.346 N 
HETATM   17  C   UNK N   1      28.071  19.056   7.649  0.00  0.00     0.201 A 
ATOM     18  HN  UNK N   1      28.068  19.306   9.766  1.00  0.00     0.167 HD
ENDBRANCH  11  12
ENDBRANCH   7  11
BRANCH   2  19
HETATM   19  C   UNK N   1      22.436  17.553   4.702  0.00  0.00     0.071 C 
BRANCH  19  20
HETATM   20  C   UNK N   1      21.626  18.046   5.902  0.00  0.00     0.276 C 
BRANCH  20  21
HETATM   21  N   UNK N   1      21.371  16.989   6.887  0.00  0.00     0.080 N 
HETATM   22  C   UNK N   1      20.004  16.500   6.760  0.00  0.00     0.309 C 
HETATM   23  C   UNK N   1      22.282  15.875   6.676  0.00  0.00     0.309 C 
ENDBRANCH  20  21
ENDBRANCH  19  20
ENDBRANCH   2  19
TORSDOF 5
ENDMDL
MODEL 2
REMARK VINA RESULT:      -5.8     11.217     13.395
REMARK  5 active torsions:
REMARK  status: ('A' for Active; 'I' for Inactive)
REMARK    1  A    between atoms: N_2  and  C_12 
REMARK    2  A    between atoms: N_3  and  C_18 
REMARK    3  A    between atoms: C_8  and  C_10 
REMARK    4  A    between atoms: C_10  and  C_12 
REMARK    5  A    between atoms: C_15  and  C_18 
ROOT
HETATM    1  N   UNK N   1      25.348  24.449  -5.853  0.00  0.00    -0.365 N 
HETATM    2  C   UNK N   1      26.756  24.414  -4.105  0.00  0.00    -0.029 A 
HETATM    3  C   UNK N   1      26.318  25.698  -4.275  0.00  0.00    -0.001 A 
HETATM    4  C   UNK N   1      25.468  25.688  -5.339  0.00  0.00     0.043 A 
HETATM    5  C   UNK N   1      26.620  26.864  -3.578  0.00  0.00     0.023 A 
HETATM    6  C   UNK N   1      26.146  23.651  -5.096  0.00  0.00     0.096 A 
HETATM    7  C   UNK N   1      26.024  28.065  -4.005  0.00  0.00    -0.037 A 
HETATM    8  C   UNK N   1      24.841  26.846  -5.784  0.00  0.00     0.031 A 
HETATM    9  C   UNK N   1      25.132  28.045  -5.108  0.00  0.00     0.011 A 
HETATM   10  H   UNK N   1      24.796  24.177  -6.621  0.00  0.00     0.165 HD
ENDROOT
BRANCH   7  11
HETATM   11  C   UNK N   1      26.417  29.332  -3.284  0.00  0.00     0.188 C 
BRANCH  11  12
HETATM   12  N   UNK N   1      27.812  29.442  -2.850  0.00  0.00    -0.283 N 
HETATM   13  N   UNK N   1      28.890  29.391  -3.611  0.00  0.00    -0.293 N 
HETATM   14  C   UNK N   1      29.951  29.517  -2.794  0.00  0.00     0.198 A 
ATOM     15  HN  UNK N   1      28.914  29.276  -4.624  1.00  0.00     0.188 HD
HETATM   16  N   UNK N   1      29.546  29.650  -1.512  0.00  0.00    -0.346 N 
HETATM   17  C   UNK N   1      28.200  29.602  -1.577  0.00  0.00     0.201 A 
ATOM     18  HN  UNK N   1      30.128  29.761  -0.680  1.00  0.00     0.167 HD
ENDBRANCH  11  12
ENDBRANCH   7  11
BRANCH   2  19
HETATM   19  C   UNK N   1      27.690  23.945  -3.044  0.00  0.00     0.071 C 
BRANCH  19  20
HETATM   20  C   UNK N   1      28.992  23.416  -3.646  0.00  0.00     0.276 C 
BRANCH  20  21
HETATM   21  N   UNK N   1      30.180  23.856  -2.904  0.00  0.00     0.080 N 
HETATM   22  C   UNK N   1      31.175  22.792  -2.866  0.00  0.00     0.309 C 
HETATM   23  C   UNK N   1      30.772  25.018  -3.548  0.00  0.00     0.309 C 
ENDBRANCH  20  21
ENDBRANCH  19  20
ENDBRANCH   2  19
TORSDOF 5
ENDMDL
MODEL 3
REMARK VINA RESULT:      -5.7      5.375      7.642
REMARK  5 active torsions:
REMARK  status: ('A' for Active; 'I' for Inactive)
REMARK    1  A    between atoms: N_2  and  C_12 
REMARK    2  A    between atoms: N_3  and  C_18 
REMARK    3  A    between atoms: C_8  and  C_10 
REMARK    4  A    between atoms: C_10  and  C_12 
REMARK    5  A    between atoms: C_15  and  C_18 
ROOT
HETATM    1  N   UNK N   1      31.106  17.458   4.033  0.00  0.00    -0.365 N 
HETATM    2  C   UNK N   1      29.967  17.274   5.958  0.00  0.00    -0.029 A 
HETATM    3  C   UNK N   1      31.303  17.250   6.248  0.00  0.00    -0.001 A 
HETATM    4  C   UNK N   1      31.967  17.364   5.064  0.00  0.00     0.043 A 
HETATM    5  C   UNK N   1      31.970  17.124   7.463  0.00  0.00     0.023 A 
HETATM    6  C   UNK N   1      29.862  17.401   4.577  0.00  0.00     0.096 A 
HETATM    7  C   UNK N   1      33.376  17.107   7.449  0.00  0.00    -0.037 A 
HETATM    8  C   UNK N   1      33.355  17.372   5.003  0.00  0.00     0.031 A 
HETATM    9  C   UNK N   1      34.061  17.236   6.212  0.00  0.00     0.011 A 
HETATM   10  H   UNK N   1      31.332  17.549   3.079  0.00  0.00     0.165 HD
ENDROOT
BRANCH   7  11
HETATM   11  C   UNK N   1      34.084  16.897   8.766  0.00  0.00     0.188 C 
BRANCH  11  12
HETATM   12  N   UNK N   1      34.242  15.514   9.221  0.00  0.00    -0.283 N 
HETATM   13  N   UNK N   1      34.876  14.538   8.597  0.00  0.00    -0.293 N 
HETATM   14  C   UNK N   1      34.754  13.440   9.365  0.00  0.00     0.198 A 
ATOM     15  HN  UNK N   1      35.363  14.603   7.704  1.00  0.00     0.188 HD
HETATM   16  N   UNK N   1      34.042  13.720  10.479  0.00  0.00    -0.346 N 
HETATM   17  C   UNK N   1      33.736  15.028  10.363  0.00  0.00     0.201 A 
ATOM     18  HN  UNK N   1      33.792  13.084  11.237  1.00  0.00     0.167 HD
ENDBRANCH  11  12
ENDBRANCH   7  11
BRANCH   2  19
HETATM   19  C   UNK N   1      28.858  17.198   6.950  0.00  0.00     0.071 C 
BRANCH  19  20
HETATM   20  C   UNK N   1      28.600  18.559   7.597  0.00  0.00     0.276 C 
BRANCH  20  21
HETATM   21  N   UNK N   1      28.393  18.468   9.047  0.00  0.00     0.080 N 
HETATM   22  C   UNK N   1      27.906  17.142   9.406  0.00  0.00     0.309 C 
HETATM   23  C   UNK N   1      29.644  18.706   9.749  0.00  0.00     0.309 C 
ENDBRANCH  20  21
ENDBRANCH  19  20
ENDBRANCH   2  19
TORSDOF 5
ENDMDL
MODEL 4
REMARK VINA RESULT:      -5.7      4.012      8.406
REMARK  5 active torsions:
REMARK  status: ('A' for Active; 'I' for Inactive)
REMARK    1  A    between atoms: N_2  and  C_12 
REMARK    2  A    between atoms: N_3  and  C_18 
REMARK    3  A    between atoms: C_8  and  C_10 
REMARK    4  A    between atoms: C_10  and  C_12 
REMARK    5  A    between atoms: C_15  and  C_18 
ROOT
HETATM    1  N   UNK N   1      32.553  17.179   9.062  0.00  0.00    -0.365 N 
HETATM    2  C   UNK N   1      32.821  17.281   6.836  0.00  0.00    -0.029 A 
HETATM    3  C   UNK N   1      31.482  17.341   7.109  0.00  0.00    -0.001 A 
HETATM    4  C   UNK N   1      31.351  17.278   8.463  0.00  0.00     0.043 A 
HETATM    5  C   UNK N   1      30.382  17.432   6.261  0.00  0.00     0.023 A 
HETATM    6  C   UNK N   1      33.472  17.178   8.061  0.00  0.00     0.096 A 
HETATM    7  C   UNK N   1      29.100  17.451   6.838  0.00  0.00    -0.037 A 
HETATM    8  C   UNK N   1      30.106  17.312   9.079  0.00  0.00     0.031 A 
HETATM    9  C   UNK N   1      28.971  17.394   8.250  0.00  0.00     0.011 A 
HETATM   10  H   UNK N   1      32.730  17.120  10.029  0.00  0.00     0.165 HD
ENDROOT
BRANCH   7  11
HETATM   11  C   UNK N   1      27.915  17.477   5.902  0.00  0.00     0.188 C 
BRANCH  11  12
HETATM   12  N   UNK N   1      27.356  18.792   5.578  0.00  0.00    -0.283 N 
HETATM   13  N   UNK N   1      26.694  19.598   6.386  0.00  0.00    -0.293 N 
HETATM   14  C   UNK N   1      26.355  20.681   5.666  0.00  0.00     0.198 A 
ATOM     15  HN  UNK N   1      26.479  19.430   7.369  1.00  0.00     0.188 HD
HETATM   16  N   UNK N   1      26.804  20.564   4.397  0.00  0.00    -0.346 N 
HETATM   17  C   UNK N   1      27.429  19.370   4.370  0.00  0.00     0.201 A 
ATOM     18  HN  UNK N   1      26.693  21.229   3.630  1.00  0.00     0.167 HD
ENDBRANCH  11  12
ENDBRANCH   7  11
BRANCH   2  19
HETATM   19  C   UNK N   1      33.438  17.339   5.482  0.00  0.00     0.071 C 
BRANCH  19  20
HETATM   20  C   UNK N   1      33.772  15.939   4.965  0.00  0.00     0.276 C 
BRANCH  20  21
HETATM   21  N   UNK N   1      33.039  15.596   3.741  0.00  0.00     0.080 N 
HETATM   22  C   UNK N   1      31.872  14.783   4.061  0.00  0.00     0.309 C 
HETATM   23  C   UNK N   1      32.589  16.806   3.069  0.00  0.00     0.309 C 
ENDBRANCH  20  21
ENDBRANCH  19  20
ENDBRANCH   2  19
TORSDOF 5
ENDMDL
MODEL 5
REMARK VINA RESULT:      -5.7      4.543      6.866
REMARK  5 active torsions:
REMARK  status: ('A' for Active; 'I' for Inactive)
REMARK    1  A    between atoms: N_2  and  C_12 
REMARK    2  A    between atoms: N_3  and  C_18 
REMARK    3  A    between atoms: C_8  and  C_10 
REMARK    4  A    between atoms: C_10  and  C_12 
REMARK    5  A    between atoms: C_15  and  C_18 
ROOT
HETATM    1  N   UNK N   1      20.421  17.580   7.484  0.00  0.00    -0.365 N 
HETATM    2  C   UNK N   1      22.003  16.544   6.274  0.00  0.00    -0.029 A 
HETATM    3  C   UNK N   1      21.574  15.682   7.246  0.00  0.00    -0.001 A 
HETATM    4  C   UNK N   1      20.617  16.337   7.960  0.00  0.00     0.043 A 
HETATM    5  C   UNK N   1      21.970  14.383   7.551  0.00  0.00     0.023 A 
HETATM    6  C   UNK N   1      21.278  17.720   6.438  0.00  0.00     0.096 A 
HETATM    7  C   UNK N   1      21.356  13.743   8.643  0.00  0.00    -0.037 A 
HETATM    8  C   UNK N   1      19.970  15.737   9.035  0.00  0.00     0.031 A 
HETATM    9  C   UNK N   1      20.353  14.427   9.378  0.00  0.00     0.011 A 
HETATM   10  H   UNK N   1      19.787  18.252   7.823  0.00  0.00     0.165 HD
ENDROOT
BRANCH   7  11
HETATM   11  C   UNK N   1      21.846  12.361   9.006  0.00  0.00     0.188 C 
BRANCH  11  12
HETATM   12  N   UNK N   1      22.526  12.217  10.296  0.00  0.00    -0.283 N 
HETATM   13  N   UNK N   1      21.983  11.878  11.450  0.00  0.00    -0.293 N 
HETATM   14  C   UNK N   1      22.969  11.888  12.363  0.00  0.00     0.198 A 
ATOM     15  HN  UNK N   1      21.002  11.654  11.616  1.00  0.00     0.188 HD
HETATM   16  N   UNK N   1      24.142  12.232  11.788  0.00  0.00    -0.346 N 
HETATM   17  C   UNK N   1      23.835  12.431  10.491  0.00  0.00     0.201 A 
ATOM     18  HN  UNK N   1      25.055  12.322  12.235  1.00  0.00     0.167 HD
ENDBRANCH  11  12
ENDBRANCH   7  11
BRANCH   2  19
HETATM   19  C   UNK N   1      23.033  16.249   5.240  0.00  0.00     0.071 C 
BRANCH  19  20
HETATM   20  C   UNK N   1      22.702  16.938   3.916  0.00  0.00     0.276 C 
BRANCH  20  21
HETATM   21  N   UNK N   1      22.137  16.017   2.923  0.00  0.00     0.080 N 
HETATM   22  C   UNK N   1      22.401  14.636   3.305  0.00  0.00     0.309 C 
HETATM   23  C   UNK N   1      20.697  16.203   2.828  0.00  0.00     0.309 C 
ENDBRANCH  20  21
ENDBRANCH  19  20
ENDBRANCH   2  19
TORSDOF 5
ENDMDL
MODEL 6
REMARK VINA RESULT:      -5.7      4.456      7.459
REMARK  5 active torsions:
REMARK  status: ('A' for Active; 'I' for Inactive)
REMARK    1  A    between atoms: N_2  and  C_12 
REMARK    2  A    between atoms: N_3  and  C_18 
REMARK    3  A    between atoms: C_8  and  C_10 
REMARK    4  A    between atoms: C_10  and  C_12 
REMARK    5  A    between atoms: C_15  and  C_18 
ROOT
HETATM    1  N   UNK N   1      27.557  17.862   7.318  0.00  0.00    -0.365 N 
HETATM    2  C   UNK N   1      28.750  16.608   5.889  0.00  0.00    -0.029 A 
HETATM    3  C   UNK N   1      29.600  17.095   6.843  0.00  0.00    -0.001 A 
HETATM    4  C   UNK N   1      28.849  17.849   7.694  0.00  0.00     0.043 A 
HETATM    5  C   UNK N   1      30.973  16.936   7.008  0.00  0.00     0.023 A 
HETATM    6  C   UNK N   1      27.484  17.096   6.197  0.00  0.00     0.096 A 
HETATM    7  C   UNK N   1      31.590  17.589   8.090  0.00  0.00    -0.037 A 
HETATM    8  C   UNK N   1      29.412  18.497   8.787  0.00  0.00     0.031 A 
HETATM    9  C   UNK N   1      30.801  18.366   8.977  0.00  0.00     0.011 A 
HETATM   10  H   UNK N   1      26.814  18.330   7.764  0.00  0.00     0.165 HD
ENDROOT
BRANCH   7  11
HETATM   11  C   UNK N   1      33.090  17.466   8.214  0.00  0.00     0.188 C 
BRANCH  11  12
HETATM   12  N   UNK N   1      33.599  16.639   9.311  0.00  0.00    -0.283 N 
HETATM   13  N   UNK N   1      34.597  16.923  10.127  0.00  0.00    -0.293 N 
HETATM   14  C   UNK N   1      34.728  15.878  10.962  0.00  0.00     0.198 A 
ATOM     15  HN  UNK N   1      35.161  17.773  10.123  1.00  0.00     0.188 HD
HETATM   16  N   UNK N   1      33.811  14.928  10.677  0.00  0.00    -0.346 N 
HETATM   17  C   UNK N   1      33.115  15.432   9.639  0.00  0.00     0.201 A 
ATOM     18  HN  UNK N   1      33.676  14.029  11.143  1.00  0.00     0.167 HD
ENDBRANCH  11  12
ENDBRANCH   7  11
BRANCH   2  19
HETATM   19  C   UNK N   1      29.128  15.712   4.761  0.00  0.00     0.071 C 
BRANCH  19  20
HETATM   20  C   UNK N   1      29.690  16.510   3.584  0.00  0.00     0.276 C 
BRANCH  20  21
HETATM   21  N   UNK N   1      30.957  15.967   3.083  0.00  0.00     0.080 N 
HETATM   22  C   UNK N   1      32.007  16.974   3.164  0.00  0.00     0.309 C 
HETATM   23  C   UNK N   1      31.359  14.816   3.877  0.00  0.00     0.309 C 
ENDBRANCH  20  21
ENDBRANCH  19  20
ENDBRANCH   2  19
TORSDOF 5
ENDMDL
MODEL 7
REMARK VINA RESULT:      -5.6      9.928     14.498
REMARK  5 active torsions:
REMARK  status: ('A' for Active; 'I' for Inactive)
REMARK    1  A    between atoms: N_2  and  C_12 
REMARK    2  A    between atoms: N_3  and  C_18 
REMARK    3  A    between atoms: C_8  and  C_10 
REMARK    4  A    between atoms: C_10  and  C_12 
REMARK    5  A    between atoms: C_15  and  C_18 
ROOT
HETATM    1  N   UNK N   1      37.627  11.747  12.515  0.00  0.00    -0.365 N 
HETATM    2  C   UNK N   1      36.741  13.072  14.094  0.00  0.00    -0.029 A 
HETATM    3  C   UNK N   1      36.582  13.686  12.882  0.00  0.00    -0.001 A 
HETATM    4  C   UNK N   1      37.128  12.860  11.946  0.00  0.00     0.043 A 
HETATM    5  C   UNK N   1      36.012  14.910  12.548  0.00  0.00     0.023 A 
HETATM    6  C   UNK N   1      37.395  11.869  13.848  0.00  0.00     0.096 A 
HETATM    7  C   UNK N   1      36.013  15.296  11.195  0.00  0.00    -0.037 A 
HETATM    8  C   UNK N   1      37.135  13.189  10.596  0.00  0.00     0.031 A 
HETATM    9  C   UNK N   1      36.575  14.426  10.224  0.00  0.00     0.011 A 
HETATM   10  H   UNK N   1      38.072  10.996  12.058  0.00  0.00     0.165 HD
ENDROOT
BRANCH   7  11
HETATM   11  C   UNK N   1      35.456  16.658  10.858  0.00  0.00     0.188 C 
BRANCH  11  12
HETATM   12  N   UNK N   1      34.460  16.719   9.785  0.00  0.00    -0.283 N 
HETATM   13  N   UNK N   1      33.351  16.009   9.685  0.00  0.00    -0.293 N 
HETATM   14  C   UNK N   1      32.754  16.378   8.538  0.00  0.00     0.198 A 
ATOM     15  HN  UNK N   1      33.013  15.314  10.350  1.00  0.00     0.188 HD
HETATM   16  N   UNK N   1      33.484  17.325   7.908  0.00  0.00    -0.346 N 
HETATM   17  C   UNK N   1      34.547  17.521   8.714  0.00  0.00     0.201 A 
ATOM     18  HN  UNK N   1      33.278  17.787   7.022  1.00  0.00     0.167 HD
ENDBRANCH  11  12
ENDBRANCH   7  11
BRANCH   2  19
HETATM   19  C   UNK N   1      36.276  13.601  15.406  0.00  0.00     0.071 C 
BRANCH  19  20
HETATM   20  C   UNK N   1      34.906  13.034  15.778  0.00  0.00     0.276 C 
BRANCH  20  21
HETATM   21  N   UNK N   1      34.727  12.887  17.227  0.00  0.00     0.080 N 
HETATM   22  C   UNK N   1      35.355  11.656  17.692  0.00  0.00     0.309 C 
HETATM   23  C   UNK N   1      35.336  14.009  17.925  0.00  0.00     0.309 C 
ENDBRANCH  20  21
ENDBRANCH  19  20
ENDBRANCH   2  19
TORSDOF 5
ENDMDL
MODEL 8
REMARK VINA RESULT:      -5.6      7.466     11.719
REMARK  5 active torsions:
REMARK  status: ('A' for Active; 'I' for Inactive)
REMARK    1  A    between atoms: N_2  and  C_12 
REMARK    2  A    between atoms: N_3  and  C_18 
REMARK    3  A    between atoms: C_8  and  C_10 
REMARK    4  A    between atoms: C_10  and  C_12 
REMARK    5  A    between atoms: C_15  and  C_18 
ROOT
HETATM    1  N   UNK N   1      34.927  17.269  10.456  0.00  0.00    -0.365 N 
HETATM    2  C   UNK N   1      35.585  15.215   9.835  0.00  0.00    -0.029 A 
HETATM    3  C   UNK N   1      35.069  15.849   8.738  0.00  0.00    -0.001 A 
HETATM    4  C   UNK N   1      34.680  17.089   9.145  0.00  0.00     0.043 A 
HETATM    5  C   UNK N   1      34.906  15.414   7.426  0.00  0.00     0.023 A 
HETATM    6  C   UNK N   1      35.486  16.110  10.895  0.00  0.00     0.096 A 
HETATM    7  C   UNK N   1      34.312  16.295   6.505  0.00  0.00    -0.037 A 
HETATM    8  C   UNK N   1      34.106  18.000   8.267  0.00  0.00     0.031 A 
HETATM    9  C   UNK N   1      33.917  17.589   6.934  0.00  0.00     0.011 A 
HETATM   10  H   UNK N   1      34.739  18.074  10.990  0.00  0.00     0.165 HD
ENDROOT
BRANCH   7  11
HETATM   11  C   UNK N   1      34.077  15.784   5.104  0.00  0.00     0.188 C 
BRANCH  11  12
HETATM   12  N   UNK N   1      32.851  16.225   4.434  0.00  0.00    -0.283 N 
HETATM   13  N   UNK N   1      31.610  15.907   4.753  0.00  0.00    -0.293 N 
HETATM   14  C   UNK N   1      30.809  16.518   3.863  0.00  0.00     0.198 A 
ATOM     15  HN  UNK N   1      31.316  15.310   5.526  1.00  0.00     0.188 HD
HETATM   16  N   UNK N   1      31.542  17.227   2.977  0.00  0.00    -0.346 N 
HETATM   17  C   UNK N   1      32.819  17.027   3.360  0.00  0.00     0.201 A 
ATOM     18  HN  UNK N   1      31.206  17.788   2.193  1.00  0.00     0.167 HD
ENDBRANCH  11  12
ENDBRANCH   7  11
BRANCH   2  19
HETATM   19  C   UNK N   1      36.155  13.839   9.858  0.00  0.00     0.071 C 
BRANCH  19  20
HETATM   20  C   UNK N   1      35.226  12.866  10.583  0.00  0.00     0.276 C 
BRANCH  20  21
HETATM   21  N   UNK N   1      35.801  12.357  11.833  0.00  0.00     0.080 N 
HETATM   22  C   UNK N   1      37.233  12.625  11.878  0.00  0.00     0.309 C 
HETATM   23  C   UNK N   1      35.173  13.005  12.975  0.00  0.00     0.309 C 
ENDBRANCH  20  21
ENDBRANCH  19  20
ENDBRANCH   2  19
TORSDOF 5
ENDMDL
MODEL 9
REMARK VINA RESULT:      -5.6      4.927      7.962
REMARK  5 active torsions:
REMARK  status: ('A' for Active; 'I' for Inactive)
REMARK    1  A    between atoms: N_2  and  C_12 
REMARK    2  A    between atoms: N_3  and  C_18 
REMARK    3  A    between atoms: C_8  and  C_10 
REMARK    4  A    between atoms: C_10  and  C_12 
REMARK    5  A    between atoms: C_15  and  C_18 
ROOT
HETATM    1  N   UNK N   1      31.784  17.751   8.833  0.00  0.00    -0.365 N 
HETATM    2  C   UNK N   1      30.021  17.511   7.465  0.00  0.00    -0.029 A 
HETATM    3  C   UNK N   1      31.161  17.361   6.724  0.00  0.00    -0.001 A 
HETATM    4  C   UNK N   1      32.211  17.510   7.579  0.00  0.00     0.043 A 
HETATM    5  C   UNK N   1      31.340  17.118   5.366  0.00  0.00     0.023 A 
HETATM    6  C   UNK N   1      30.427  17.756   8.773  0.00  0.00     0.096 A 
HETATM    7  C   UNK N   1      32.656  17.034   4.875  0.00  0.00    -0.037 A 
HETATM    8  C   UNK N   1      33.527  17.416   7.143  0.00  0.00     0.031 A 
HETATM    9  C   UNK N   1      33.744  17.181   5.773  0.00  0.00     0.011 A 
HETATM   10  H   UNK N   1      32.342  17.894   9.632  0.00  0.00     0.165 HD
ENDROOT
BRANCH   7  11
HETATM   11  C   UNK N   1      32.833  16.842   3.388  0.00  0.00     0.188 C 
BRANCH  11  12
HETATM   12  N   UNK N   1      33.034  15.469   2.916  0.00  0.00    -0.283 N 
HETATM   13  N   UNK N   1      34.058  15.007   2.222  0.00  0.00    -0.293 N 
HETATM   14  C   UNK N   1      33.817  13.704   1.993  0.00  0.00     0.198 A 
ATOM     15  HN  UNK N   1      34.874  15.537   1.917  1.00  0.00     0.188 HD
HETATM   16  N   UNK N   1      32.639  13.337   2.543  0.00  0.00    -0.346 N 
HETATM   17  C   UNK N   1      32.171  14.464   3.117  0.00  0.00     0.201 A 
ATOM     18  HN  UNK N   1      32.201  12.415   2.528  1.00  0.00     0.167 HD
ENDBRANCH  11  12
ENDBRANCH   7  11
BRANCH   2  19
HETATM   19  C   UNK N   1      28.627  17.408   6.950  0.00  0.00     0.071 C 
BRANCH  19  20
HETATM   20  C   UNK N   1      28.054  18.787   6.623  0.00  0.00     0.276 C 
BRANCH  20  21
HETATM   21  N   UNK N   1      28.207  19.145   5.209  0.00  0.00     0.080 N 
HETATM   22  C   UNK N   1      27.938  17.990   4.362  0.00  0.00     0.309 C 
HETATM   23  C   UNK N   1      27.275  20.205   4.855  0.00  0.00     0.309 C 
ENDBRANCH  20  21
ENDBRANCH  19  20
ENDBRANCH   2  19
TORSDOF 5
ENDMDL
