REMARK  1 active torsions:
REMARK  status: ('A' for Active; 'I' for Inactive)
REMARK    1  A    between atoms: O_3  and  C_20 
ROOT
HETATM    1  O   UNK N   1       1.060  -0.318  -0.639  0.00  0.00    -0.334 OA
HETATM    2  O   UNK N   1      -0.039  -2.600   0.701  0.00  0.00    -0.295 OA
HETATM    3  N   UNK N   1       6.108  -1.335  -0.802  0.00  0.00     0.089 N 
HETATM    4  C   UNK N   1       3.203  -1.244  -0.437  0.00  0.00     0.031 C 
HETATM    5  C   UNK N   1       4.082  -2.065   0.502  0.00  0.00     0.036 C 
HETATM    6  C   UNK N   1       5.479  -1.339   0.539  0.00  0.00     0.232 C 
HETATM    7  C   UNK N   1       1.679  -1.573  -0.556  0.00  0.00     0.212 C 
HETATM    8  C   UNK N   1       3.838  -1.235  -1.841  0.00  0.00     0.048 C 
HETATM    9  C   UNK N   1       3.113   0.142   0.037  0.00  0.00    -0.003 A 
HETATM   10  C   UNK N   1       3.419  -2.137   1.874  0.00  0.00     0.015 C 
HETATM   11  C   UNK N   1       5.397   0.142   1.043  0.00  0.00     0.075 C 
HETATM   12  C   UNK N   1       5.274  -0.696  -1.829  0.00  0.00     0.273 C 
HETATM   13  C   UNK N   1       4.128   0.863   0.642  0.00  0.00    -0.046 A 
HETATM   14  C   UNK N   1       2.034  -2.788   1.797  0.00  0.00     0.081 C 
HETATM   15  C   UNK N   1       1.148  -2.319   0.660  0.00  0.00     0.157 C 
HETATM   16  C   UNK N   1       1.889   0.640  -0.197  0.00  0.00     0.111 A 
HETATM   17  C   UNK N   1       6.474  -2.678  -1.239  0.00  0.00     0.310 C 
HETATM   18  C   UNK N   1       3.879   2.208   0.957  0.00  0.00     0.011 A 
HETATM   19  C   UNK N   1       1.598   1.981   0.058  0.00  0.00     0.102 A 
HETATM   20  C   UNK N   1       2.625   2.781   0.631  0.00  0.00     0.040 A 
ENDROOT
BRANCH  19  21
HETATM   21  O   UNK N   1       0.377   2.481  -0.240  0.00  0.00    -0.353 OA
HETATM   22  C   UNK N   1       0.067   3.817  -0.121  0.00  0.00     0.210 C 
ENDBRANCH  19  21
TORSDOF 1
