MODEL 1
REMARK VINA RESULT:      -6.8      0.000      0.000
REMARK  1 active torsions:
REMARK  status: ('A' for Active; 'I' for Inactive)
REMARK    1  A    between atoms: O_3  and  C_20 
ROOT
HETATM    1  O   UNK N   1      26.956  24.915  -4.021  0.00  0.00    -0.334 OA
HETATM    2  O   UNK N   1      25.220  24.568  -6.275  0.00  0.00    -0.295 OA
HETATM    3  N   UNK N   1      27.630  30.017  -3.797  0.00  0.00     0.089 N 
HETATM    4  C   UNK N   1      26.934  27.231  -4.374  0.00  0.00     0.031 C 
HETATM    5  C   UNK N   1      26.906  28.287  -5.475  0.00  0.00     0.036 C 
HETATM    6  C   UNK N   1      27.985  29.363  -5.077  0.00  0.00     0.232 C 
HETATM    7  C   UNK N   1      26.119  25.908  -4.548  0.00  0.00     0.212 C 
HETATM    8  C   UNK N   1      26.560  27.893  -3.033  0.00  0.00     0.048 C 
HETATM    9  C   UNK N   1      28.283  26.667  -4.248  0.00  0.00    -0.003 A 
HETATM   10  C   UNK N   1      27.205  27.621  -6.815  0.00  0.00     0.015 C 
HETATM   11  C   UNK N   1      29.430  28.773  -4.939  0.00  0.00     0.075 C 
HETATM   12  C   UNK N   1      27.481  29.069  -2.685  0.00  0.00     0.273 C 
HETATM   13  C   UNK N   1      29.472  27.358  -4.405  0.00  0.00    -0.046 A 
HETATM   14  C   UNK N   1      26.177  26.533  -7.145  0.00  0.00     0.081 C 
HETATM   15  C   UNK N   1      25.821  25.597  -6.008  0.00  0.00     0.157 C 
HETATM   16  C   UNK N   1      28.220  25.360  -3.952  0.00  0.00     0.111 A 
HETATM   17  C   UNK N   1      26.422  30.826  -3.912  0.00  0.00     0.310 C 
HETATM   18  C   UNK N   1      30.669  26.664  -4.167  0.00  0.00     0.011 A 
HETATM   19  C   UNK N   1      29.375  24.631  -3.665  0.00  0.00     0.102 A 
HETATM   20  C   UNK N   1      30.622  25.308  -3.759  0.00  0.00     0.040 A 
ENDROOT
BRANCH  19  21
HETATM   21  O   UNK N   1      29.287  23.329  -3.309  0.00  0.00    -0.353 OA
HETATM   22  C   UNK N   1      29.772  22.846  -2.115  0.00  0.00     0.210 C 
ENDBRANCH  19  21
TORSDOF 1
ENDMDL
MODEL 2
REMARK VINA RESULT:      -6.6     13.674     16.159
REMARK  1 active torsions:
REMARK  status: ('A' for Active; 'I' for Inactive)
REMARK    1  A    between atoms: O_3  and  C_20 
ROOT
HETATM    1  O   UNK N   1      34.672  17.168   6.055  0.00  0.00    -0.334 OA
HETATM    2  O   UNK N   1      34.207  18.713   8.423  0.00  0.00    -0.295 OA
HETATM    3  N   UNK N   1      29.926  16.225   4.285  0.00  0.00     0.089 N 
HETATM    4  C   UNK N   1      32.359  17.025   5.706  0.00  0.00     0.031 C 
HETATM    5  C   UNK N   1      31.030  16.895   6.445  0.00  0.00     0.036 C 
HETATM    6  C   UNK N   1      30.207  15.796   5.674  0.00  0.00     0.232 C 
HETATM    7  C   UNK N   1      33.503  17.897   6.319  0.00  0.00     0.212 C 
HETATM    8  C   UNK N   1      32.087  17.479   4.259  0.00  0.00     0.048 C 
HETATM    9  C   UNK N   1      33.042  15.728   5.662  0.00  0.00    -0.003 A 
HETATM   10  C   UNK N   1      31.300  16.517   7.899  0.00  0.00     0.015 C 
HETATM   11  C   UNK N   1      30.926  14.405   5.619  0.00  0.00     0.075 C 
HETATM   12  C   UNK N   1      31.141  16.526   3.516  0.00  0.00     0.273 C 
HETATM   13  C   UNK N   1      32.435  14.492   5.525  0.00  0.00    -0.046 A 
HETATM   14  C   UNK N   1      32.158  17.572   8.605  0.00  0.00     0.081 C 
HETATM   15  C   UNK N   1      33.353  18.081   7.823  0.00  0.00     0.157 C 
HETATM   16  C   UNK N   1      34.370  15.892   5.770  0.00  0.00     0.111 A 
HETATM   17  C   UNK N   1      29.024  17.370   4.237  0.00  0.00     0.310 C 
HETATM   18  C   UNK N   1      33.261  13.362   5.422  0.00  0.00     0.011 A 
HETATM   19  C   UNK N   1      35.241  14.810   5.634  0.00  0.00     0.102 A 
HETATM   20  C   UNK N   1      34.669  13.523   5.439  0.00  0.00     0.040 A 
ENDROOT
BRANCH  19  21
HETATM   21  O   UNK N   1      36.579  15.003   5.687  0.00  0.00    -0.353 OA
HETATM   22  C   UNK N   1      37.489  14.024   5.357  0.00  0.00     0.210 C 
ENDBRANCH  19  21
TORSDOF 1
ENDMDL
MODEL 3
REMARK VINA RESULT:      -6.6     17.294     19.645
REMARK  1 active torsions:
REMARK  status: ('A' for Active; 'I' for Inactive)
REMARK    1  A    between atoms: O_3  and  C_20 
ROOT
HETATM    1  O   UNK N   1      20.728  13.120   9.343  0.00  0.00    -0.334 OA
HETATM    2  O   UNK N   1      22.149  12.144  11.632  0.00  0.00    -0.295 OA
HETATM    3  N   UNK N   1      23.948  12.175   5.434  0.00  0.00     0.089 N 
HETATM    4  C   UNK N   1      22.523  12.494   7.974  0.00  0.00     0.031 C 
HETATM    5  C   UNK N   1      24.046  12.412   7.939  0.00  0.00     0.036 C 
HETATM    6  C   UNK N   1      24.483  12.997   6.544  0.00  0.00     0.232 C 
HETATM    7  C   UNK N   1      21.760  12.173   9.301  0.00  0.00     0.212 C 
HETATM    8  C   UNK N   1      21.946  11.637   6.830  0.00  0.00     0.048 C 
HETATM    9  C   UNK N   1      22.086  13.881   7.775  0.00  0.00    -0.003 A 
HETATM   10  C   UNK N   1      24.617  13.199   9.113  0.00  0.00     0.015 C 
HETATM   11  C   UNK N   1      24.023  14.477   6.319  0.00  0.00     0.075 C 
HETATM   12  C   UNK N   1      22.483  12.059   5.456  0.00  0.00     0.273 C 
HETATM   13  C   UNK N   1      22.688  14.813   6.947  0.00  0.00    -0.046 A 
HETATM   14  C   UNK N   1      24.122  12.649  10.455  0.00  0.00     0.081 C 
HETATM   15  C   UNK N   1      22.642  12.331  10.531  0.00  0.00     0.157 C 
HETATM   16  C   UNK N   1      20.998  14.142   8.516  0.00  0.00     0.111 A 
HETATM   17  C   UNK N   1      24.541  10.842   5.405  0.00  0.00     0.310 C 
HETATM   18  C   UNK N   1      22.078  16.072   6.825  0.00  0.00     0.011 A 
HETATM   19  C   UNK N   1      20.328  15.361   8.404  0.00  0.00     0.102 A 
HETATM   20  C   UNK N   1      20.875  16.336   7.525  0.00  0.00     0.040 A 
ENDROOT
BRANCH  19  21
HETATM   21  O   UNK N   1      19.199  15.584   9.114  0.00  0.00    -0.353 OA
HETATM   22  C   UNK N   1      18.513  16.777   9.072  0.00  0.00     0.210 C 
ENDBRANCH  19  21
TORSDOF 1
ENDMDL
MODEL 4
REMARK VINA RESULT:      -6.6     11.885     14.759
REMARK  1 active torsions:
REMARK  status: ('A' for Active; 'I' for Inactive)
REMARK    1  A    between atoms: O_3  and  C_20 
ROOT
HETATM    1  O   UNK N   1      28.062  18.842   7.887  0.00  0.00    -0.334 OA
HETATM    2  O   UNK N   1      30.598  18.224   9.070  0.00  0.00    -0.295 OA
HETATM    3  N   UNK N   1      27.353  15.024   4.501  0.00  0.00     0.089 N 
HETATM    4  C   UNK N   1      28.243  16.939   6.531  0.00  0.00     0.031 C 
HETATM    5  C   UNK N   1      29.253  16.097   5.757  0.00  0.00     0.036 C 
HETATM    6  C   UNK N   1      28.599  15.812   4.353  0.00  0.00     0.232 C 
HETATM    7  C   UNK N   1      28.650  17.569   7.903  0.00  0.00     0.212 C 
HETATM    8  C   UNK N   1      26.941  16.132   6.702  0.00  0.00     0.048 C 
HETATM    9  C   UNK N   1      27.931  18.165   5.788  0.00  0.00    -0.003 A 
HETATM   10  C   UNK N   1      30.567  16.865   5.650  0.00  0.00     0.015 C 
HETATM   11  C   UNK N   1      28.260  17.112   3.549  0.00  0.00     0.075 C 
HETATM   12  C   UNK N   1      26.356  15.677   5.360  0.00  0.00     0.273 C 
HETATM   13  C   UNK N   1      27.831  18.280   4.412  0.00  0.00    -0.046 A 
HETATM   14  C   UNK N   1      31.146  17.186   7.032  0.00  0.00     0.081 C 
HETATM   15  C   UNK N   1      30.158  17.711   8.054  0.00  0.00     0.157 C 
HETATM   16  C   UNK N   1      27.746  19.192   6.631  0.00  0.00     0.111 A 
HETATM   17  C   UNK N   1      27.613  13.676   4.996  0.00  0.00     0.310 C 
HETATM   18  C   UNK N   1      27.444  19.521   3.883  0.00  0.00     0.011 A 
HETATM   19  C   UNK N   1      27.320  20.437   6.165  0.00  0.00     0.102 A 
HETATM   20  C   UNK N   1      27.151  20.593   4.762  0.00  0.00     0.040 A 
ENDROOT
BRANCH  19  21
HETATM   21  O   UNK N   1      27.081  21.444   7.036  0.00  0.00    -0.353 OA
HETATM   22  C   UNK N   1      25.879  21.599   7.689  0.00  0.00     0.210 C 
ENDBRANCH  19  21
TORSDOF 1
ENDMDL
MODEL 5
REMARK VINA RESULT:      -6.5     13.771     15.440
REMARK  1 active torsions:
REMARK  status: ('A' for Active; 'I' for Inactive)
REMARK    1  A    between atoms: O_3  and  C_20 
ROOT
HETATM    1  O   UNK N   1      31.706  16.859   7.534  0.00  0.00    -0.334 OA
HETATM    2  O   UNK N   1      34.289  17.755   6.674  0.00  0.00    -0.295 OA
HETATM    3  N   UNK N   1      29.878  14.342   3.427  0.00  0.00     0.089 N 
HETATM    4  C   UNK N   1      31.362  15.871   5.437  0.00  0.00     0.031 C 
HETATM    5  C   UNK N   1      31.638  16.065   3.949  0.00  0.00     0.036 C 
HETATM    6  C   UNK N   1      30.284  15.750   3.209  0.00  0.00     0.232 C 
HETATM    7  C   UNK N   1      32.444  16.290   6.486  0.00  0.00     0.212 C 
HETATM    8  C   UNK N   1      30.946  14.408   5.685  0.00  0.00     0.048 C 
HETATM    9  C   UNK N   1      30.262  16.742   5.866  0.00  0.00    -0.003 A 
HETATM   10  C   UNK N   1      32.121  17.492   3.711  0.00  0.00     0.015 C 
HETATM   11  C   UNK N   1      29.100  16.673   3.658  0.00  0.00     0.075 C 
HETATM   12  C   UNK N   1      29.728  13.998   4.847  0.00  0.00     0.273 C 
HETATM   13  C   UNK N   1      29.144  17.069   5.118  0.00  0.00    -0.046 A 
HETATM   14  C   UNK N   1      33.403  17.791   4.495  0.00  0.00     0.081 C 
HETATM   15  C   UNK N   1      33.419  17.321   5.936  0.00  0.00     0.157 C 
HETATM   16  C   UNK N   1      30.479  17.195   7.110  0.00  0.00     0.111 A 
HETATM   17  C   UNK N   1      30.797  13.403   2.794  0.00  0.00     0.310 C 
HETATM   18  C   UNK N   1      28.155  17.856   5.728  0.00  0.00     0.011 A 
HETATM   19  C   UNK N   1      29.512  17.946   7.780  0.00  0.00     0.102 A 
HETATM   20  C   UNK N   1      28.319  18.266   7.074  0.00  0.00     0.040 A 
ENDROOT
BRANCH  19  21
HETATM   21  O   UNK N   1      29.722  18.344   9.056  0.00  0.00    -0.353 OA
HETATM   22  C   UNK N   1      29.256  17.640  10.144  0.00  0.00     0.210 C 
ENDBRANCH  19  21
TORSDOF 1
ENDMDL
MODEL 6
REMARK VINA RESULT:      -6.5     13.497     16.070
REMARK  1 active torsions:
REMARK  status: ('A' for Active; 'I' for Inactive)
REMARK    1  A    between atoms: O_3  and  C_20 
ROOT
HETATM    1  O   UNK N   1      29.653  16.274   6.189  0.00  0.00    -0.334 OA
HETATM    2  O   UNK N   1      28.172  17.679   8.199  0.00  0.00    -0.295 OA
HETATM    3  N   UNK N   1      34.285  15.615   8.347  0.00  0.00     0.089 N 
HETATM    4  C   UNK N   1      31.527  16.257   7.595  0.00  0.00     0.031 C 
HETATM    5  C   UNK N   1      32.269  17.096   8.632  0.00  0.00     0.036 C 
HETATM    6  C   UNK N   1      33.795  17.010   8.253  0.00  0.00     0.232 C 
HETATM    7  C   UNK N   1      29.964  16.279   7.556  0.00  0.00     0.212 C 
HETATM    8  C   UNK N   1      32.019  14.799   7.683  0.00  0.00     0.048 C 
HETATM    9  C   UNK N   1      31.809  16.757   6.245  0.00  0.00    -0.003 A 
HETATM   10  C   UNK N   1      31.733  18.524   8.597  0.00  0.00     0.015 C 
HETATM   11  C   UNK N   1      34.109  17.541   6.813  0.00  0.00     0.075 C 
HETATM   12  C   UNK N   1      33.536  14.682   7.494  0.00  0.00     0.273 C 
HETATM   13  C   UNK N   1      33.015  17.273   5.802  0.00  0.00    -0.046 A 
HETATM   14  C   UNK N   1      30.232  18.570   8.905  0.00  0.00     0.081 C 
HETATM   15  C   UNK N   1      29.384  17.529   8.201  0.00  0.00     0.157 C 
HETATM   16  C   UNK N   1      30.720  16.648   5.467  0.00  0.00     0.111 A 
HETATM   17  C   UNK N   1      34.284  15.126   9.721  0.00  0.00     0.310 C 
HETATM   18  C   UNK N   1      33.118  17.630   4.449  0.00  0.00     0.011 A 
HETATM   19  C   UNK N   1      30.777  16.949   4.105  0.00  0.00     0.102 A 
HETATM   20  C   UNK N   1      32.010  17.433   3.588  0.00  0.00     0.040 A 
ENDROOT
BRANCH  19  21
HETATM   21  O   UNK N   1      29.686  16.776   3.324  0.00  0.00    -0.353 OA
HETATM   22  C   UNK N   1      29.443  15.614   2.627  0.00  0.00     0.210 C 
ENDBRANCH  19  21
TORSDOF 1
ENDMDL
MODEL 7
REMARK VINA RESULT:      -6.4     13.708     15.995
REMARK  1 active torsions:
REMARK  status: ('A' for Active; 'I' for Inactive)
REMARK    1  A    between atoms: O_3  and  C_20 
ROOT
HETATM    1  O   UNK N   1      21.620  18.511   6.312  0.00  0.00    -0.334 OA
HETATM    2  O   UNK N   1      20.662  20.153   4.168  0.00  0.00    -0.295 OA
HETATM    3  N   UNK N   1      23.919  14.590   3.887  0.00  0.00     0.089 N 
HETATM    4  C   UNK N   1      22.494  16.999   4.749  0.00  0.00     0.031 C 
HETATM    5  C   UNK N   1      22.217  16.375   3.385  0.00  0.00     0.036 C 
HETATM    6  C   UNK N   1      22.499  14.834   3.544  0.00  0.00     0.232 C 
HETATM    7  C   UNK N   1      22.126  18.497   5.005  0.00  0.00     0.212 C 
HETATM    8  C   UNK N   1      23.971  16.762   5.120  0.00  0.00     0.048 C 
HETATM    9  C   UNK N   1      21.654  16.368   5.774  0.00  0.00    -0.003 A 
HETATM   10  C   UNK N   1      20.776  16.671   2.982  0.00  0.00     0.015 C 
HETATM   11  C   UNK N   1      21.609  14.148   4.635  0.00  0.00     0.075 C 
HETATM   12  C   UNK N   1      24.342  15.273   5.117  0.00  0.00     0.273 C 
HETATM   13  C   UNK N   1      21.293  15.032   5.822  0.00  0.00    -0.046 A 
HETATM   14  C   UNK N   1      20.512  18.178   2.899  0.00  0.00     0.081 C 
HETATM   15  C   UNK N   1      21.060  19.006   4.045  0.00  0.00     0.157 C 
HETATM   16  C   UNK N   1      21.269  17.272   6.688  0.00  0.00     0.111 A 
HETATM   17  C   UNK N   1      24.817  14.953   2.795  0.00  0.00     0.310 C 
HETATM   18  C   UNK N   1      20.547  14.594   6.927  0.00  0.00     0.011 A 
HETATM   19  C   UNK N   1      20.561  16.885   7.827  0.00  0.00     0.102 A 
HETATM   20  C   UNK N   1      20.211  15.512   7.952  0.00  0.00     0.040 A 
ENDROOT
BRANCH  19  21
HETATM   21  O   UNK N   1      20.233  17.800   8.768  0.00  0.00    -0.353 OA
HETATM   22  C   UNK N   1      18.965  17.911   9.293  0.00  0.00     0.210 C 
ENDBRANCH  19  21
TORSDOF 1
ENDMDL
MODEL 8
REMARK VINA RESULT:      -6.4      2.668      4.813
REMARK  1 active torsions:
REMARK  status: ('A' for Active; 'I' for Inactive)
REMARK    1  A    between atoms: O_3  and  C_20 
ROOT
HETATM    1  O   UNK N   1      30.647  23.315  -4.671  0.00  0.00    -0.334 OA
HETATM    2  O   UNK N   1      30.813  22.831  -1.852  0.00  0.00    -0.295 OA
HETATM    3  N   UNK N   1      26.615  26.492  -5.112  0.00  0.00     0.089 N 
HETATM    4  C   UNK N   1      28.787  24.695  -4.315  0.00  0.00     0.031 C 
HETATM    5  C   UNK N   1      27.540  24.844  -3.448  0.00  0.00     0.036 C 
HETATM    6  C   UNK N   1      26.363  25.199  -4.433  0.00  0.00     0.232 C 
HETATM    7  C   UNK N   1      30.109  24.151  -3.682  0.00  0.00     0.212 C 
HETATM    8  C   UNK N   1      29.069  26.034  -5.024  0.00  0.00     0.048 C 
HETATM    9  C   UNK N   1      28.571  23.667  -5.340  0.00  0.00    -0.003 A 
HETATM   10  C   UNK N   1      27.300  23.543  -2.689  0.00  0.00     0.015 C 
HETATM   11  C   UNK N   1      26.122  24.110  -5.533  0.00  0.00     0.075 C 
HETATM   12  C   UNK N   1      27.878  26.513  -5.862  0.00  0.00     0.273 C 
HETATM   13  C   UNK N   1      27.383  23.418  -6.005  0.00  0.00    -0.046 A 
HETATM   14  C   UNK N   1      28.488  23.188  -1.789  0.00  0.00     0.081 C 
HETATM   15  C   UNK N   1      29.859  23.341  -2.418  0.00  0.00     0.157 C 
HETATM   16  C   UNK N   1      29.702  22.979  -5.562  0.00  0.00     0.111 A 
HETATM   17  C   UNK N   1      26.583  27.614  -4.180  0.00  0.00     0.310 C 
HETATM   18  C   UNK N   1      27.388  22.443  -7.015  0.00  0.00     0.011 A 
HETATM   19  C   UNK N   1      29.776  22.028  -6.580  0.00  0.00     0.102 A 
HETATM   20  C   UNK N   1      28.595  21.771  -7.331  0.00  0.00     0.040 A 
ENDROOT
BRANCH  19  21
HETATM   21  O   UNK N   1      30.941  21.387  -6.829  0.00  0.00    -0.353 OA
HETATM   22  C   UNK N   1      31.245  20.154  -6.297  0.00  0.00     0.210 C 
ENDBRANCH  19  21
TORSDOF 1
ENDMDL
MODEL 9
REMARK VINA RESULT:      -6.4     23.992     26.397
REMARK  1 active torsions:
REMARK  status: ('A' for Active; 'I' for Inactive)
REMARK    1  A    between atoms: O_3  and  C_20 
ROOT
HETATM    1  O   UNK N   1      37.122  12.724  13.468  0.00  0.00    -0.334 OA
HETATM    2  O   UNK N   1      35.796  12.297  10.964  0.00  0.00    -0.295 OA
HETATM    3  N   UNK N   1      36.510   8.241  15.932  0.00  0.00     0.089 N 
HETATM    4  C   UNK N   1      36.561  10.546  14.125  0.00  0.00     0.031 C 
HETATM    5  C   UNK N   1      35.454   9.500  14.024  0.00  0.00     0.036 C 
HETATM    6  C   UNK N   1      35.273   8.915  15.475  0.00  0.00     0.232 C 
HETATM    7  C   UNK N   1      36.868  11.468  12.900  0.00  0.00     0.212 C 
HETATM    8  C   UNK N   1      37.860   9.861  14.592  0.00  0.00     0.048 C 
HETATM    9  C   UNK N   1      36.200  11.571  15.112  0.00  0.00    -0.003 A 
HETATM   10  C   UNK N   1      34.186  10.161  13.493  0.00  0.00     0.015 C 
HETATM   11  C   UNK N   1      34.888   9.999  16.539  0.00  0.00     0.075 C 
HETATM   12  C   UNK N   1      37.685   9.124  15.925  0.00  0.00     0.273 C 
HETATM   13  C   UNK N   1      35.510  11.357  16.292  0.00  0.00    -0.046 A 
HETATM   14  C   UNK N   1      34.411  10.778  12.108  0.00  0.00     0.081 C 
HETATM   15  C   UNK N   1      35.690  11.575  11.942  0.00  0.00     0.157 C 
HETATM   16  C   UNK N   1      36.636  12.777  14.717  0.00  0.00     0.111 A 
HETATM   17  C   UNK N   1      36.799   7.041  15.154  0.00  0.00     0.310 C 
HETATM   18  C   UNK N   1      35.326  12.451  17.152  0.00  0.00     0.011 A 
HETATM   19  C   UNK N   1      36.516  13.892  15.548  0.00  0.00     0.102 A 
HETATM   20  C   UNK N   1      35.862  13.714  16.799  0.00  0.00     0.040 A 
ENDROOT
BRANCH  19  21
HETATM   21  O   UNK N   1      37.015  15.087  15.159  0.00  0.00    -0.353 OA
HETATM   22  C   UNK N   1      37.518  16.012  16.047  0.00  0.00     0.210 C 
ENDBRANCH  19  21
TORSDOF 1
ENDMDL
