MODEL 1
REMARK VINA RESULT:      -7.3      0.000      0.000
REMARK  4 active torsions:
REMARK  status: ('A' for Active; 'I' for Inactive)
REMARK    1  A    between atoms: C_10  and  O_1 
REMARK    2  A    between atoms: O_1  and  C_26 
REMARK    3  A    between atoms: O_3  and  N_4 
REMARK    4  A    between atoms: C_6  and  C_17 
ROOT
HETATM    1  N   UNK N   1      34.265   9.677  20.659  0.00  0.00    -0.273 N 
ATOM      2  HN  UNK N   1      34.303  10.355  21.419  1.00  0.00     0.193 HD
HETATM    3  C   UNK N   1      35.781  11.536  13.169  0.00  0.00     0.007 C 
HETATM    4  C   UNK N   1      35.853  12.795  14.073  0.00  0.00     0.002 C 
HETATM    5  C   UNK N   1      34.925  12.830  15.328  0.00  0.00    -0.005 C 
HETATM    6  C   UNK N   1      34.518  11.423  15.860  0.00  0.00    -0.002 C 
HETATM    7  C   UNK N   1      36.083  12.150  11.771  0.00  0.00     0.140 C 
HETATM    8  C   UNK N   1      34.352  10.976  13.293  0.00  0.00     0.014 C 
HETATM    9  C   UNK N   1      35.415  13.955  13.150  0.00  0.00     0.010 C 
HETATM   10  C   UNK N   1      34.124  10.445  14.725  0.00  0.00     0.006 C 
HETATM   11  C   UNK N   1      35.148  13.335  11.775  0.00  0.00     0.053 C 
HETATM   12  C   UNK N   1      35.599  10.936  16.843  0.00  0.00     0.019 C 
HETATM   13  C   UNK N   1      35.621  13.752  16.367  0.00  0.00     0.010 C 
HETATM   14  C   UNK N   1      35.496  13.352  17.842  0.00  0.00     0.035 C 
HETATM   15  C   UNK N   1      35.455  11.865  18.048  0.00  0.00    -0.073 C 
HETATM   16  C   UNK N   1      35.558   9.443  17.232  0.00  0.00     0.015 C 
HETATM   17  C   UNK N   1      35.869  11.185  10.673  0.00  0.00    -0.077 C 
HETATM   18  C   UNK N   1      34.532   9.083  18.305  0.00  0.00     0.059 C 
HETATM   19  C   UNK N   1      35.046  11.425  19.247  0.00  0.00     0.030 C 
HETATM   20  C   UNK N   1      34.665  10.021  19.483  0.00  0.00     0.032 C 
HETATM   21  C   UNK N   1      35.696  10.402   9.769  0.00  0.00     0.015 C 
ENDROOT
BRANCH   7  22
HETATM   22  O   UNK N   1      37.384  12.662  11.734  0.00  0.00    -0.296 OA
BRANCH  22  23
HETATM   23  C   UNK N   1      38.062  13.011  10.601  0.00  0.00     0.256 C 
HETATM   24  O   UNK N   1      38.954  12.276  10.186  0.00  0.00    -0.266 OA
HETATM   25  C   UNK N   1      37.796  14.304   9.888  0.00  0.00     0.126 C 
ENDBRANCH  22  23
ENDBRANCH   7  22
BRANCH   3  26
HETATM   26  C   UNK N   1      36.719  10.357  13.549  0.00  0.00     0.009 C 
HETATM   27  C   UNK N   1      37.991  10.727  14.295  0.00  0.00     0.006 C 
ENDBRANCH   3  26
BRANCH   1  28
HETATM   28  O   UNK N   1      33.811   8.462  20.896  0.00  0.00    -0.290 OA
HETATM   29  H   UNK N   1      33.922   7.743  20.307  0.00  0.00     0.244 HD
ENDBRANCH   1  28
TORSDOF 4
ENDMDL
MODEL 2
REMARK VINA RESULT:      -7.0     21.502     24.758
REMARK  4 active torsions:
REMARK  status: ('A' for Active; 'I' for Inactive)
REMARK    1  A    between atoms: C_10  and  O_1 
REMARK    2  A    between atoms: O_1  and  C_26 
REMARK    3  A    between atoms: O_3  and  N_4 
REMARK    4  A    between atoms: C_6  and  C_17 
ROOT
HETATM    1  N   UNK N   1      34.534  20.264  -5.828  0.00  0.00    -0.273 N 
ATOM      2  HN  UNK N   1      35.005  19.853  -5.023  1.00  0.00     0.193 HD
HETATM    3  C   UNK N   1      28.147  24.810  -5.210  0.00  0.00     0.007 C 
HETATM    4  C   UNK N   1      28.584  24.284  -3.818  0.00  0.00     0.002 C 
HETATM    5  C   UNK N   1      29.274  22.885  -3.765  0.00  0.00    -0.005 C 
HETATM    6  C   UNK N   1      29.982  22.473  -5.090  0.00  0.00    -0.002 C 
HETATM    7  C   UNK N   1      26.883  25.640  -4.838  0.00  0.00     0.140 C 
HETATM    8  C   UNK N   1      27.833  23.577  -6.078  0.00  0.00     0.014 C 
HETATM    9  C   UNK N   1      27.264  24.172  -3.020  0.00  0.00     0.010 C 
HETATM   10  C   UNK N   1      29.131  22.786  -6.346  0.00  0.00     0.006 C 
HETATM   11  C   UNK N   1      26.152  24.659  -3.954  0.00  0.00     0.053 C 
HETATM   12  C   UNK N   1      31.418  23.029  -5.077  0.00  0.00     0.019 C 
HETATM   13  C   UNK N   1      30.183  22.888  -2.505  0.00  0.00     0.010 C 
HETATM   14  C   UNK N   1      31.522  22.150  -2.614  0.00  0.00     0.035 C 
HETATM   15  C   UNK N   1      32.123  22.220  -3.989  0.00  0.00    -0.073 C 
HETATM   16  C   UNK N   1      32.178  23.016  -6.419  0.00  0.00     0.015 C 
HETATM   17  C   UNK N   1      26.134  26.092  -6.028  0.00  0.00    -0.077 C 
HETATM   18  C   UNK N   1      32.789  21.669  -6.801  0.00  0.00     0.059 C 
HETATM   19  C   UNK N   1      33.120  21.365  -4.265  0.00  0.00     0.030 C 
HETATM   20  C   UNK N   1      33.582  21.112  -5.640  0.00  0.00     0.032 C 
HETATM   21  C   UNK N   1      25.515  26.465  -6.996  0.00  0.00     0.015 C 
ENDROOT
BRANCH   7  22
HETATM   22  O   UNK N   1      27.234  26.728  -4.031  0.00  0.00    -0.296 OA
BRANCH  22  23
HETATM   23  C   UNK N   1      26.456  27.827  -3.808  0.00  0.00     0.256 C 
HETATM   24  O   UNK N   1      25.513  27.745  -3.026  0.00  0.00    -0.266 OA
HETATM   25  C   UNK N   1      26.677  29.114  -4.547  0.00  0.00     0.126 C 
ENDBRANCH  22  23
ENDBRANCH   7  22
BRANCH   3  26
HETATM   26  C   UNK N   1      29.209  25.615  -6.010  0.00  0.00     0.009 C 
HETATM   27  C   UNK N   1      30.242  26.365  -5.185  0.00  0.00     0.006 C 
ENDBRANCH   3  26
BRANCH   1  28
HETATM   28  O   UNK N   1      34.912  19.920  -7.044  0.00  0.00    -0.290 OA
HETATM   29  H   UNK N   1      35.763  19.588  -7.248  0.00  0.00     0.244 HD
ENDBRANCH   1  28
TORSDOF 4
ENDMDL
MODEL 3
REMARK VINA RESULT:      -6.9      2.063      3.514
REMARK  4 active torsions:
REMARK  status: ('A' for Active; 'I' for Inactive)
REMARK    1  A    between atoms: C_10  and  O_1 
REMARK    2  A    between atoms: O_1  and  C_26 
REMARK    3  A    between atoms: O_3  and  N_4 
REMARK    4  A    between atoms: C_6  and  C_17 
ROOT
HETATM    1  N   UNK N   1      35.166  12.622  20.312  0.00  0.00    -0.273 N 
ATOM      2  HN  UNK N   1      35.436  11.940  21.021  1.00  0.00     0.193 HD
HETATM    3  C   UNK N   1      36.172  11.427  12.604  0.00  0.00     0.007 C 
HETATM    4  C   UNK N   1      36.743  10.240  13.424  0.00  0.00     0.002 C 
HETATM    5  C   UNK N   1      37.313  10.557  14.842  0.00  0.00    -0.005 C 
HETATM    6  C   UNK N   1      36.709  11.832  15.502  0.00  0.00    -0.002 C 
HETATM    7  C   UNK N   1      36.504  10.980  11.151  0.00  0.00     0.140 C 
HETATM    8  C   UNK N   1      36.938  12.687  13.046  0.00  0.00     0.014 C 
HETATM    9  C   UNK N   1      37.918   9.714  12.567  0.00  0.00     0.010 C 
HETATM   10  C   UNK N   1      36.592  13.019  14.513  0.00  0.00     0.006 C 
HETATM   11  C   UNK N   1      37.952  10.579  11.304  0.00  0.00     0.053 C 
HETATM   12  C   UNK N   1      35.425  11.438  16.256  0.00  0.00     0.019 C 
HETATM   13  C   UNK N   1      37.172   9.253  15.676  0.00  0.00     0.010 C 
HETATM   14  C   UNK N   1      36.817   9.414  17.159  0.00  0.00     0.035 C 
HETATM   15  C   UNK N   1      35.924  10.592  17.426  0.00  0.00    -0.073 C 
HETATM   16  C   UNK N   1      34.503  12.591  16.702  0.00  0.00     0.015 C 
HETATM   17  C   UNK N   1      36.249  12.046  10.160  0.00  0.00    -0.077 C 
HETATM   18  C   UNK N   1      34.937  13.308  17.979  0.00  0.00     0.059 C 
HETATM   19  C   UNK N   1      35.808  10.994  18.701  0.00  0.00     0.030 C 
HETATM   20  C   UNK N   1      35.228  12.298  19.066  0.00  0.00     0.032 C 
HETATM   21  C   UNK N   1      36.044  12.912   9.344  0.00  0.00     0.015 C 
ENDROOT
BRANCH   7  22
HETATM   22  O   UNK N   1      35.796   9.819  10.823  0.00  0.00    -0.296 OA
BRANCH  22  23
HETATM   23  C   UNK N   1      35.015   9.659   9.714  0.00  0.00     0.256 C 
HETATM   24  O   UNK N   1      35.539   9.325   8.655  0.00  0.00    -0.266 OA
HETATM   25  C   UNK N   1      33.544   9.950   9.737  0.00  0.00     0.126 C 
ENDBRANCH  22  23
ENDBRANCH   7  22
BRANCH   3  26
HETATM   26  C   UNK N   1      34.670  11.761  12.826  0.00  0.00     0.009 C 
HETATM   27  C   UNK N   1      33.813  10.644  13.398  0.00  0.00     0.006 C 
ENDBRANCH   3  26
BRANCH   1  28
HETATM   28  O   UNK N   1      34.758  13.818  20.686  0.00  0.00    -0.290 OA
HETATM   29  H   UNK N   1      34.602  14.523  20.090  0.00  0.00     0.244 HD
ENDBRANCH   1  28
TORSDOF 4
ENDMDL
MODEL 4
REMARK VINA RESULT:      -6.8     15.250     17.793
REMARK  4 active torsions:
REMARK  status: ('A' for Active; 'I' for Inactive)
REMARK    1  A    between atoms: C_10  and  O_1 
REMARK    2  A    between atoms: O_1  and  C_26 
REMARK    3  A    between atoms: O_3  and  N_4 
REMARK    4  A    between atoms: C_6  and  C_17 
ROOT
HETATM    1  N   UNK N   1      19.412  17.479   0.875  0.00  0.00    -0.273 N 
ATOM      2  HN  UNK N   1      19.565  18.478   0.736  1.00  0.00     0.193 HD
HETATM    3  C   UNK N   1      23.056  13.323   6.470  0.00  0.00     0.007 C 
HETATM    4  C   UNK N   1      23.549  14.794   6.469  0.00  0.00     0.002 C 
HETATM    5  C   UNK N   1      23.560  15.545   5.101  0.00  0.00    -0.005 C 
HETATM    6  C   UNK N   1      22.543  14.989   4.060  0.00  0.00    -0.002 C 
HETATM    7  C   UNK N   1      23.918  12.715   7.615  0.00  0.00     0.140 C 
HETATM    8  C   UNK N   1      23.384  12.739   5.083  0.00  0.00     0.014 C 
HETATM    9  C   UNK N   1      25.015  14.707   6.953  0.00  0.00     0.010 C 
HETATM   10  C   UNK N   1      22.527  13.440   4.008  0.00  0.00     0.006 C 
HETATM   11  C   UNK N   1      25.288  13.227   7.238  0.00  0.00     0.053 C 
HETATM   12  C   UNK N   1      21.186  15.683   4.275  0.00  0.00     0.019 C 
HETATM   13  C   UNK N   1      23.410  17.057   5.426  0.00  0.00     0.010 C 
HETATM   14  C   UNK N   1      22.572  17.895   4.453  0.00  0.00     0.035 C 
HETATM   15  C   UNK N   1      21.433  17.129   3.845  0.00  0.00    -0.073 C 
HETATM   16  C   UNK N   1      19.966  15.052   3.572  0.00  0.00     0.015 C 
HETATM   17  C   UNK N   1      23.797  11.245   7.692  0.00  0.00    -0.077 C 
HETATM   18  C   UNK N   1      19.821  15.401   2.092  0.00  0.00     0.059 C 
HETATM   19  C   UNK N   1      20.838  17.669   2.770  0.00  0.00     0.030 C 
HETATM   20  C   UNK N   1      19.934  16.897   1.900  0.00  0.00     0.032 C 
HETATM   21  C   UNK N   1      23.704  10.042   7.763  0.00  0.00     0.015 C 
ENDROOT
BRANCH   7  22
HETATM   22  O   UNK N   1      23.589  13.304   8.840  0.00  0.00    -0.296 OA
BRANCH  22  23
HETATM   23  C   UNK N   1      23.801  12.744  10.067  0.00  0.00     0.256 C 
HETATM   24  O   UNK N   1      24.948  12.660  10.497  0.00  0.00    -0.266 OA
HETATM   25  C   UNK N   1      22.678  12.162  10.873  0.00  0.00     0.126 C 
ENDBRANCH  22  23
ENDBRANCH   7  22
BRANCH   3  26
HETATM   26  C   UNK N   1      21.529  13.105   6.656  0.00  0.00     0.009 C 
HETATM   27  C   UNK N   1      20.815  14.100   7.557  0.00  0.00     0.006 C 
ENDBRANCH   3  26
BRANCH   1  28
HETATM   28  O   UNK N   1      18.685  16.807   0.006  0.00  0.00    -0.290 OA
HETATM   29  H   UNK N   1      17.755  16.715   0.069  0.00  0.00     0.244 HD
ENDBRANCH   1  28
TORSDOF 4
ENDMDL
MODEL 5
REMARK VINA RESULT:      -6.6      2.188      3.178
REMARK  4 active torsions:
REMARK  status: ('A' for Active; 'I' for Inactive)
REMARK    1  A    between atoms: C_10  and  O_1 
REMARK    2  A    between atoms: O_1  and  C_26 
REMARK    3  A    between atoms: O_3  and  N_4 
REMARK    4  A    between atoms: C_6  and  C_17 
ROOT
HETATM    1  N   UNK N   1      35.353  13.804  19.309  0.00  0.00    -0.273 N 
ATOM      2  HN  UNK N   1      35.692  14.757  19.437  1.00  0.00     0.193 HD
HETATM    3  C   UNK N   1      35.238  10.195  12.322  0.00  0.00     0.007 C 
HETATM    4  C   UNK N   1      35.743  11.655  12.178  0.00  0.00     0.002 C 
HETATM    5  C   UNK N   1      35.177  12.710  13.179  0.00  0.00    -0.005 C 
HETATM    6  C   UNK N   1      34.687  12.110  14.530  0.00  0.00    -0.002 C 
HETATM    7  C   UNK N   1      35.280   9.713  10.843  0.00  0.00     0.140 C 
HETATM    8  C   UNK N   1      33.813  10.268  12.900  0.00  0.00     0.014 C 
HETATM    9  C   UNK N   1      35.289  12.079  10.762  0.00  0.00     0.010 C 
HETATM   10  C   UNK N   1      33.865  10.810  14.344  0.00  0.00     0.006 C 
HETATM   11  C   UNK N   1      34.588  10.862  10.152  0.00  0.00     0.053 C 
HETATM   12  C   UNK N   1      35.882  12.034  15.499  0.00  0.00     0.019 C 
HETATM   13  C   UNK N   1      36.255  13.823  13.304  0.00  0.00     0.010 C 
HETATM   14  C   UNK N   1      36.437  14.459  14.687  0.00  0.00     0.035 C 
HETATM   15  C   UNK N   1      36.201  13.494  15.815  0.00  0.00    -0.073 C 
HETATM   16  C   UNK N   1      35.691  11.177  16.768  0.00  0.00     0.015 C 
HETATM   17  C   UNK N   1      34.641   8.393  10.661  0.00  0.00    -0.077 C 
HETATM   18  C   UNK N   1      34.921  11.858  17.897  0.00  0.00     0.059 C 
HETATM   19  C   UNK N   1      36.037  14.016  17.040  0.00  0.00     0.030 C 
HETATM   20  C   UNK N   1      35.499  13.230  18.164  0.00  0.00     0.032 C 
HETATM   21  C   UNK N   1      34.119   7.315  10.503  0.00  0.00     0.015 C 
ENDROOT
BRANCH   7  22
HETATM   22  O   UNK N   1      36.598   9.693  10.372  0.00  0.00    -0.296 OA
BRANCH  22  23
HETATM   23  C   UNK N   1      37.048   8.950   9.319  0.00  0.00     0.256 C 
HETATM   24  O   UNK N   1      36.728   9.271   8.179  0.00  0.00    -0.266 OA
HETATM   25  C   UNK N   1      37.865   7.708   9.522  0.00  0.00     0.126 C 
ENDBRANCH  22  23
ENDBRANCH   7  22
BRANCH   3  26
HETATM   26  C   UNK N   1      36.031   9.282  13.299  0.00  0.00     0.009 C 
HETATM   27  C   UNK N   1      37.499   9.625  13.493  0.00  0.00     0.006 C 
ENDBRANCH   3  26
BRANCH   1  28
HETATM   28  O   UNK N   1      34.776  13.181  20.316  0.00  0.00    -0.290 OA
HETATM   29  H   UNK N   1      35.203  12.530  20.837  0.00  0.00     0.244 HD
ENDBRANCH   1  28
TORSDOF 4
ENDMDL
MODEL 6
REMARK VINA RESULT:      -6.5      3.282      4.858
REMARK  4 active torsions:
REMARK  status: ('A' for Active; 'I' for Inactive)
REMARK    1  A    between atoms: C_10  and  O_1 
REMARK    2  A    between atoms: O_1  and  C_26 
REMARK    3  A    between atoms: O_3  and  N_4 
REMARK    4  A    between atoms: C_6  and  C_17 
ROOT
HETATM    1  N   UNK N   1      35.593  15.026  18.733  0.00  0.00    -0.273 N 
ATOM      2  HN  UNK N   1      35.270  14.883  19.690  1.00  0.00     0.193 HD
HETATM    3  C   UNK N   1      36.256   9.187  13.506  0.00  0.00     0.007 C 
HETATM    4  C   UNK N   1      35.807   8.641  14.886  0.00  0.00     0.002 C 
HETATM    5  C   UNK N   1      36.307   9.401  16.155  0.00  0.00    -0.005 C 
HETATM    6  C   UNK N   1      36.652  10.899  15.906  0.00  0.00    -0.002 C 
HETATM    7  C   UNK N   1      36.339   7.875  12.673  0.00  0.00     0.140 C 
HETATM    8  C   UNK N   1      37.623   9.865  13.715  0.00  0.00     0.014 C 
HETATM    9  C   UNK N   1      36.402   7.215  14.945  0.00  0.00     0.010 C 
HETATM   10  C   UNK N   1      37.453  11.119  14.598  0.00  0.00     0.006 C 
HETATM   11  C   UNK N   1      37.123   6.993  13.613  0.00  0.00     0.053 C 
HETATM   12  C   UNK N   1      35.372  11.737  16.076  0.00  0.00     0.019 C 
HETATM   13  C   UNK N   1      35.253   9.143  17.268  0.00  0.00     0.010 C 
HETATM   14  C   UNK N   1      34.960  10.303  18.227  0.00  0.00     0.035 C 
HETATM   15  C   UNK N   1      35.064  11.651  17.571  0.00  0.00    -0.073 C 
HETATM   16  C   UNK N   1      35.421  13.190  15.560  0.00  0.00     0.015 C 
HETATM   17  C   UNK N   1      36.956   8.087  11.347  0.00  0.00    -0.077 C 
HETATM   18  C   UNK N   1      36.102  14.186  16.497  0.00  0.00     0.059 C 
HETATM   19  C   UNK N   1      35.128  12.720  18.379  0.00  0.00     0.030 C 
HETATM   20  C   UNK N   1      35.539  14.049  17.894  0.00  0.00     0.032 C 
HETATM   21  C   UNK N   1      37.461   8.251  10.262  0.00  0.00     0.015 C 
ENDROOT
BRANCH   7  22
HETATM   22  O   UNK N   1      35.071   7.300  12.542  0.00  0.00    -0.296 OA
BRANCH  22  23
HETATM   23  C   UNK N   1      34.501   6.905  11.365  0.00  0.00     0.256 C 
HETATM   24  O   UNK N   1      34.760   5.791  10.919  0.00  0.00    -0.266 OA
HETATM   25  C   UNK N   1      33.625   7.823  10.565  0.00  0.00     0.126 C 
ENDBRANCH  22  23
ENDBRANCH   7  22
BRANCH   3  26
HETATM   26  C   UNK N   1      35.352  10.278  12.866  0.00  0.00     0.009 C 
HETATM   27  C   UNK N   1      33.914  10.326  13.355  0.00  0.00     0.006 C 
ENDBRANCH   3  26
BRANCH   1  28
HETATM   28  O   UNK N   1      36.057  16.207  18.377  0.00  0.00    -0.290 OA
HETATM   29  H   UNK N   1      36.781  16.628  18.796  0.00  0.00     0.244 HD
ENDBRANCH   1  28
TORSDOF 4
ENDMDL
MODEL 7
REMARK VINA RESULT:      -6.5      3.357      7.786
REMARK  4 active torsions:
REMARK  status: ('A' for Active; 'I' for Inactive)
REMARK    1  A    between atoms: C_10  and  O_1 
REMARK    2  A    between atoms: O_1  and  C_26 
REMARK    3  A    between atoms: O_3  and  N_4 
REMARK    4  A    between atoms: C_6  and  C_17 
ROOT
HETATM    1  N   UNK N   1      38.542  13.009   7.146  0.00  0.00    -0.273 N 
ATOM      2  HN  UNK N   1      38.356  12.365   6.378  1.00  0.00     0.193 HD
HETATM    3  C   UNK N   1      35.700  11.968  14.405  0.00  0.00     0.007 C 
HETATM    4  C   UNK N   1      35.185  10.860  13.449  0.00  0.00     0.002 C 
HETATM    5  C   UNK N   1      34.990  11.243  11.949  0.00  0.00    -0.005 C 
HETATM    6  C   UNK N   1      35.878  12.430  11.472  0.00  0.00    -0.002 C 
HETATM    7  C   UNK N   1      34.998  11.570  15.736  0.00  0.00     0.140 C 
HETATM    8  C   UNK N   1      35.212  13.314  13.837  0.00  0.00     0.014 C 
HETATM    9  C   UNK N   1      33.793  10.487  14.010  0.00  0.00     0.010 C 
HETATM   10  C   UNK N   1      35.915  13.596  12.493  0.00  0.00     0.006 C 
HETATM   11  C   UNK N   1      33.584  11.353  15.256  0.00  0.00     0.053 C 
HETATM   12  C   UNK N   1      37.239  11.877  11.012  0.00  0.00     0.019 C 
HETATM   13  C   UNK N   1      35.153   9.929  11.133  0.00  0.00     0.010 C 
HETATM   14  C   UNK N   1      35.847  10.041   9.771  0.00  0.00     0.035 C 
HETATM   15  C   UNK N   1      36.915  11.097   9.739  0.00  0.00    -0.073 C 
HETATM   16  C   UNK N   1      38.372  12.904  10.811  0.00  0.00     0.015 C 
HETATM   17  C   UNK N   1      35.154  12.598  16.786  0.00  0.00    -0.077 C 
HETATM   18  C   UNK N   1      38.325  13.667   9.488  0.00  0.00     0.059 C 
HETATM   19  C   UNK N   1      37.361  11.478   8.532  0.00  0.00     0.030 C 
HETATM   20  C   UNK N   1      38.163  12.699   8.339  0.00  0.00     0.032 C 
HETATM   21  C   UNK N   1      35.277  13.434  17.650  0.00  0.00     0.015 C 
ENDROOT
BRANCH   7  22
HETATM   22  O   UNK N   1      35.468  10.331  16.184  0.00  0.00    -0.296 OA
BRANCH  22  23
HETATM   23  C   UNK N   1      35.614   9.968  17.492  0.00  0.00     0.256 C 
HETATM   24  O   UNK N   1      36.728  10.016  18.006  0.00  0.00    -0.266 OA
HETATM   25  C   UNK N   1      34.463   9.445  18.300  0.00  0.00     0.126 C 
ENDBRANCH  22  23
ENDBRANCH   7  22
BRANCH   3  26
HETATM   26  C   UNK N   1      37.242  12.112  14.531  0.00  0.00     0.009 C 
HETATM   27  C   UNK N   1      38.055  10.854  14.271  0.00  0.00     0.006 C 
ENDBRANCH   3  26
BRANCH   1  28
HETATM   28  O   UNK N   1      39.167  14.144   6.903  0.00  0.00    -0.290 OA
HETATM   29  H   UNK N   1      39.988  14.199   6.456  0.00  0.00     0.244 HD
ENDBRANCH   1  28
TORSDOF 4
ENDMDL
MODEL 8
REMARK VINA RESULT:      -6.4      1.753      3.255
REMARK  4 active torsions:
REMARK  status: ('A' for Active; 'I' for Inactive)
REMARK    1  A    between atoms: C_10  and  O_1 
REMARK    2  A    between atoms: O_1  and  C_26 
REMARK    3  A    between atoms: O_3  and  N_4 
REMARK    4  A    between atoms: C_6  and  C_17 
ROOT
HETATM    1  N   UNK N   1      36.442   9.659  20.575  0.00  0.00    -0.273 N 
ATOM      2  HN  UNK N   1      36.993   8.839  20.826  1.00  0.00     0.193 HD
HETATM    3  C   UNK N   1      35.741  12.255  13.184  0.00  0.00     0.007 C 
HETATM    4  C   UNK N   1      36.696  11.035  13.249  0.00  0.00     0.002 C 
HETATM    5  C   UNK N   1      37.528  10.846  14.557  0.00  0.00    -0.005 C 
HETATM    6  C   UNK N   1      36.885  11.490  15.821  0.00  0.00    -0.002 C 
HETATM    7  C   UNK N   1      35.785  12.593  11.665  0.00  0.00     0.140 C 
HETATM    8  C   UNK N   1      36.354  13.354  14.071  0.00  0.00     0.014 C 
HETATM    9  C   UNK N   1      37.703  11.275  12.100  0.00  0.00     0.010 C 
HETATM   10  C   UNK N   1      36.321  12.907  15.548  0.00  0.00     0.006 C 
HETATM   11  C   UNK N   1      37.273  12.576  11.415  0.00  0.00     0.053 C 
HETATM   12  C   UNK N   1      35.915  10.475  16.454  0.00  0.00     0.019 C 
HETATM   13  C   UNK N   1      37.829   9.326  14.672  0.00  0.00     0.010 C 
HETATM   14  C   UNK N   1      37.823   8.723  16.083  0.00  0.00     0.035 C 
HETATM   15  C   UNK N   1      36.826   9.376  16.997  0.00  0.00    -0.073 C 
HETATM   16  C   UNK N   1      34.938  11.020  17.516  0.00  0.00     0.015 C 
HETATM   17  C   UNK N   1      35.110  13.870  11.352  0.00  0.00    -0.077 C 
HETATM   18  C   UNK N   1      35.534  11.199  18.911  0.00  0.00     0.059 C 
HETATM   19  C   UNK N   1      36.954   9.135  18.311  0.00  0.00     0.030 C 
HETATM   20  C   UNK N   1      36.256   9.939  19.330  0.00  0.00     0.032 C 
HETATM   21  C   UNK N   1      34.561  14.913  11.086  0.00  0.00     0.015 C 
ENDROOT
BRANCH   7  22
HETATM   22  O   UNK N   1      35.237  11.547  10.916  0.00  0.00    -0.296 OA
BRANCH  22  23
HETATM   23  C   UNK N   1      34.757  11.656   9.642  0.00  0.00     0.256 C 
HETATM   24  O   UNK N   1      33.543  11.650   9.457  0.00  0.00    -0.266 OA
HETATM   25  C   UNK N   1      35.672  11.711   8.456  0.00  0.00     0.126 C 
ENDBRANCH  22  23
ENDBRANCH   7  22
BRANCH   3  26
HETATM   26  C   UNK N   1      34.303  12.038  13.734  0.00  0.00     0.009 C 
HETATM   27  C   UNK N   1      33.814  10.600  13.778  0.00  0.00     0.006 C 
ENDBRANCH   3  26
BRANCH   1  28
HETATM   28  O   UNK N   1      35.930  10.413  21.527  0.00  0.00    -0.290 OA
HETATM   29  H   UNK N   1      36.327  10.527  22.368  0.00  0.00     0.244 HD
ENDBRANCH   1  28
TORSDOF 4
ENDMDL
MODEL 9
REMARK VINA RESULT:      -6.3     25.479     27.312
REMARK  4 active torsions:
REMARK  status: ('A' for Active; 'I' for Inactive)
REMARK    1  A    between atoms: C_10  and  O_1 
REMARK    2  A    between atoms: O_1  and  C_26 
REMARK    3  A    between atoms: O_3  and  N_4 
REMARK    4  A    between atoms: C_6  and  C_17 
ROOT
HETATM    1  N   UNK N   1      28.105  30.972  -2.774  0.00  0.00    -0.273 N 
ATOM      2  HN  UNK N   1      28.577  31.781  -3.177  1.00  0.00     0.193 HD
HETATM    3  C   UNK N   1      26.487  24.459  -6.876  0.00  0.00     0.007 C 
HETATM    4  C   UNK N   1      27.144  25.532  -7.784  0.00  0.00     0.002 C 
HETATM    5  C   UNK N   1      26.872  27.029  -7.436  0.00  0.00    -0.005 C 
HETATM    6  C   UNK N   1      26.520  27.283  -5.940  0.00  0.00    -0.002 C 
HETATM    7  C   UNK N   1      26.245  23.307  -7.894  0.00  0.00     0.140 C 
HETATM    8  C   UNK N   1      25.186  25.072  -6.327  0.00  0.00     0.014 C 
HETATM    9  C   UNK N   1      26.539  25.272  -9.183  0.00  0.00     0.010 C 
HETATM   10  C   UNK N   1      25.522  26.240  -5.376  0.00  0.00     0.006 C 
HETATM   11  C   UNK N   1      25.606  24.067  -9.032  0.00  0.00     0.053 C 
HETATM   12  C   UNK N   1      27.827  27.479  -5.151  0.00  0.00     0.019 C 
HETATM   13  C   UNK N   1      28.088  27.835  -7.973  0.00  0.00     0.010 C 
HETATM   14  C   UNK N   1      28.555  29.028  -7.130  0.00  0.00     0.035 C 
HETATM   15  C   UNK N   1      28.372  28.815  -5.655  0.00  0.00    -0.073 C 
HETATM   16  C   UNK N   1      27.723  27.419  -3.613  0.00  0.00     0.015 C 
HETATM   17  C   UNK N   1      25.425  22.217  -7.328  0.00  0.00    -0.077 C 
HETATM   18  C   UNK N   1      27.224  28.701  -2.949  0.00  0.00     0.059 C 
HETATM   19  C   UNK N   1      28.461  29.896  -4.866  0.00  0.00     0.030 C 
HETATM   20  C   UNK N   1      28.003  29.889  -3.466  0.00  0.00     0.032 C 
HETATM   21  C   UNK N   1      24.754  21.321  -6.873  0.00  0.00     0.015 C 
ENDROOT
BRANCH   7  22
HETATM   22  O   UNK N   1      27.463  22.813  -8.372  0.00  0.00    -0.296 OA
BRANCH  22  23
HETATM   23  C   UNK N   1      27.667  21.554  -8.858  0.00  0.00     0.256 C 
HETATM   24  O   UNK N   1      28.185  20.709  -8.133  0.00  0.00    -0.266 OA
HETATM   25  C   UNK N   1      27.342  21.193 -10.277  0.00  0.00     0.126 C 
ENDBRANCH  22  23
ENDBRANCH   7  22
BRANCH   3  26
HETATM   26  C   UNK N   1      27.297  24.024  -5.623  0.00  0.00     0.009 C 
HETATM   27  C   UNK N   1      28.808  24.155  -5.722  0.00  0.00     0.006 C 
ENDBRANCH   3  26
BRANCH   1  28
HETATM   28  O   UNK N   1      27.612  31.051  -1.554  0.00  0.00    -0.290 OA
HETATM   29  H   UNK N   1      28.068  31.441  -0.835  0.00  0.00     0.244 HD
ENDBRANCH   1  28
TORSDOF 4
ENDMDL
