MODEL 1
REMARK VINA RESULT:      -7.9      0.000      0.000
REMARK  4 active torsions:
REMARK  status: ('A' for Active; 'I' for Inactive)
REMARK    1  A    between atoms: C_12  and  O_2 
REMARK    2  A    between atoms: O_4  and  C_25 
REMARK    3  A    between atoms: C_10  and  C_20 
REMARK    4  A    between atoms: C_20  and  C_25 
ROOT
HETATM    1  O   UNK N   1      34.738  17.268   7.172  0.00  0.00    -0.381 OA
HETATM    2  O   UNK N   1      26.294  20.767   4.950  0.00  0.00    -0.289 OA
HETATM    3  C   UNK N   1      32.625  16.424   7.983  0.00  0.00     0.001 C 
HETATM    4  C   UNK N   1      32.151  16.398   6.530  0.00  0.00     0.002 C 
HETATM    5  C   UNK N   1      30.624  16.505   6.409  0.00  0.00    -0.001 C 
HETATM    6  C   UNK N   1      30.148  17.844   7.069  0.00  0.00     0.035 C 
HETATM    7  C   UNK N   1      34.137  16.159   7.783  0.00  0.00     0.128 C 
HETATM    8  C   UNK N   1      32.230  17.775   8.608  0.00  0.00     0.045 C 
HETATM    9  C   UNK N   1      30.699  18.007   8.524  0.00  0.00     0.124 C 
HETATM   10  C   UNK N   1      32.804  15.136   5.976  0.00  0.00     0.009 C 
HETATM   11  C   UNK N   1      28.590  17.980   6.958  0.00  0.00     0.004 A 
HETATM   12  C   UNK N   1      34.118  15.001   6.769  0.00  0.00     0.047 C 
HETATM   13  C   UNK N   1      30.220  16.480   4.927  0.00  0.00     0.014 C 
HETATM   14  C   UNK N   1      28.710  16.595   4.759  0.00  0.00     0.012 C 
HETATM   15  C   UNK N   1      31.995  15.270   8.795  0.00  0.00     0.019 C 
HETATM   16  C   UNK N   1      28.215  17.834   5.479  0.00  0.00    -0.060 A 
HETATM   17  C   UNK N   1      27.882  16.859   7.715  0.00  0.00     0.025 C 
HETATM   18  C   UNK N   1      28.124  19.286   7.583  0.00  0.00    -0.009 A 
HETATM   19  C   UNK N   1      28.367  16.553   3.275  0.00  0.00     0.015 C 
HETATM   20  C   UNK N   1      27.485  18.766   4.835  0.00  0.00     0.059 A 
HETATM   21  C   UNK N   1      27.393  20.196   6.926  0.00  0.00     0.052 A 
HETATM   22  C   UNK N   1      27.009  19.966   5.530  0.00  0.00     0.172 A 
HETATM   23  H   UNK N   1      35.172  18.060   6.817  0.00  0.00     0.211 HD
ENDROOT
BRANCH   7  24
HETATM   24  C   UNK N   1      34.944  15.817   9.029  0.00  0.00     0.184 C 
HETATM   25  O   UNK N   1      35.530  14.749   9.106  0.00  0.00    -0.292 OA
BRANCH  24  26
HETATM   26  C   UNK N   1      35.035  16.760  10.201  0.00  0.00     0.245 C 
BRANCH  26  27
HETATM   27  O   UNK N   1      35.583  17.995   9.846  0.00  0.00    -0.393 OA
HETATM   28  H   UNK N   1      35.452  18.539   9.054  0.00  0.00     0.209 HD
ENDBRANCH  26  27
ENDBRANCH  24  26
ENDBRANCH   7  24
BRANCH   9  29
HETATM   29  O   UNK N   1      30.045  17.178   9.438  0.00  0.00    -0.395 OA
HETATM   30  H   UNK N   1      29.856  16.602  10.195  0.00  0.00     0.210 HD
ENDBRANCH   9  29
TORSDOF 4
ENDMDL
MODEL 2
REMARK VINA RESULT:      -7.3      7.489     11.204
REMARK  4 active torsions:
REMARK  status: ('A' for Active; 'I' for Inactive)
REMARK    1  A    between atoms: C_12  and  O_2 
REMARK    2  A    between atoms: O_4  and  C_25 
REMARK    3  A    between atoms: C_10  and  C_20 
REMARK    4  A    between atoms: C_20  and  C_25 
ROOT
HETATM    1  O   UNK N   1      38.325  13.787  10.775  0.00  0.00    -0.381 OA
HETATM    2  O   UNK N   1      36.227   8.870  18.514  0.00  0.00    -0.289 OA
HETATM    3  C   UNK N   1      36.129  12.956  11.342  0.00  0.00     0.001 C 
HETATM    4  C   UNK N   1      36.314  13.593  12.719  0.00  0.00     0.002 C 
HETATM    5  C   UNK N   1      35.471  12.903  13.802  0.00  0.00    -0.001 C 
HETATM    6  C   UNK N   1      35.879  11.393  13.888  0.00  0.00     0.035 C 
HETATM    7  C   UNK N   1      36.964  13.930  10.475  0.00  0.00     0.128 C 
HETATM    8  C   UNK N   1      36.608  11.493  11.405  0.00  0.00     0.045 C 
HETATM    9  C   UNK N   1      35.836  10.696  12.488  0.00  0.00     0.124 C 
HETATM   10  C   UNK N   1      36.036  15.069  12.457  0.00  0.00     0.009 C 
HETATM   11  C   UNK N   1      35.033  10.665  14.990  0.00  0.00     0.004 A 
HETATM   12  C   UNK N   1      36.493  15.297  11.004  0.00  0.00     0.047 C 
HETATM   13  C   UNK N   1      35.711  13.588  15.156  0.00  0.00     0.014 C 
HETATM   14  C   UNK N   1      34.901  12.928  16.265  0.00  0.00     0.012 C 
HETATM   15  C   UNK N   1      34.648  13.001  10.901  0.00  0.00     0.019 C 
HETATM   16  C   UNK N   1      35.205  11.443  16.298  0.00  0.00    -0.060 A 
HETATM   17  C   UNK N   1      33.545  10.684  14.647  0.00  0.00     0.025 C 
HETATM   18  C   UNK N   1      35.435   9.201  15.088  0.00  0.00    -0.009 A 
HETATM   19  C   UNK N   1      35.168  13.653  17.579  0.00  0.00     0.015 C 
HETATM   20  C   UNK N   1      35.619  10.845  17.432  0.00  0.00     0.059 A 
HETATM   21  C   UNK N   1      35.837   8.625  16.228  0.00  0.00     0.052 A 
HETATM   22  C   UNK N   1      35.917   9.409  17.464  0.00  0.00     0.172 A 
HETATM   23  H   UNK N   1      39.272  13.641  10.925  0.00  0.00     0.211 HD
ENDROOT
BRANCH   7  24
HETATM   24  C   UNK N   1      36.802  13.814   8.964  0.00  0.00     0.184 C 
HETATM   25  O   UNK N   1      36.048  14.567   8.368  0.00  0.00    -0.292 OA
BRANCH  24  26
HETATM   26  C   UNK N   1      37.540  12.772   8.164  0.00  0.00     0.245 C 
BRANCH  26  27
HETATM   27  O   UNK N   1      38.906  13.047   8.068  0.00  0.00    -0.393 OA
HETATM   28  H   UNK N   1      39.470  13.635   8.594  0.00  0.00     0.209 HD
ENDBRANCH  26  27
ENDBRANCH  24  26
ENDBRANCH   7  24
BRANCH   9  29
HETATM   29  O   UNK N   1      34.532  10.449  12.055  0.00  0.00    -0.395 OA
HETATM   30  H   UNK N   1      33.710  10.001  11.799  0.00  0.00     0.210 HD
ENDBRANCH   9  29
TORSDOF 4
ENDMDL
MODEL 3
REMARK VINA RESULT:      -7.2     11.824     14.936
REMARK  4 active torsions:
REMARK  status: ('A' for Active; 'I' for Inactive)
REMARK    1  A    between atoms: C_12  and  O_2 
REMARK    2  A    between atoms: O_4  and  C_25 
REMARK    3  A    between atoms: C_10  and  C_20 
REMARK    4  A    between atoms: C_20  and  C_25 
ROOT
HETATM    1  O   UNK N   1      26.121  23.936  -3.293  0.00  0.00    -0.381 OA
HETATM    2  O   UNK N   1      33.927  18.743  -4.044  0.00  0.00    -0.289 OA
HETATM    3  C   UNK N   1      28.159  24.638  -4.382  0.00  0.00     0.001 C 
HETATM    4  C   UNK N   1      28.123  23.322  -5.157  0.00  0.00     0.002 C 
HETATM    5  C   UNK N   1      29.517  22.877  -5.624  0.00  0.00    -0.001 C 
HETATM    6  C   UNK N   1      30.446  22.700  -4.375  0.00  0.00     0.035 C 
HETATM    7  C   UNK N   1      26.643  24.883  -4.185  0.00  0.00     0.128 C 
HETATM    8  C   UNK N   1      29.005  24.441  -3.110  0.00  0.00     0.045 C 
HETATM    9  C   UNK N   1      30.440  23.967  -3.458  0.00  0.00     0.124 C 
HETATM   10  C   UNK N   1      27.080  23.585  -6.238  0.00  0.00     0.009 C 
HETATM   11  C   UNK N   1      31.877  22.244  -4.825  0.00  0.00     0.004 A 
HETATM   12  C   UNK N   1      26.094  24.576  -5.591  0.00  0.00     0.047 C 
HETATM   13  C   UNK N   1      29.405  21.548  -6.387  0.00  0.00     0.014 C 
HETATM   14  C   UNK N   1      30.770  21.063  -6.862  0.00  0.00     0.012 C 
HETATM   15  C   UNK N   1      28.764  25.773  -5.239  0.00  0.00     0.019 C 
HETATM   16  C   UNK N   1      31.717  20.982  -5.679  0.00  0.00    -0.060 A 
HETATM   17  C   UNK N   1      32.544  23.301  -5.703  0.00  0.00     0.025 C 
HETATM   18  C   UNK N   1      32.779  22.056  -3.615  0.00  0.00    -0.009 A 
HETATM   19  C   UNK N   1      30.599  19.752  -7.619  0.00  0.00     0.015 C 
HETATM   20  C   UNK N   1      32.376  19.842  -5.395  0.00  0.00     0.059 A 
HETATM   21  C   UNK N   1      33.431  20.915  -3.355  0.00  0.00     0.052 A 
HETATM   22  C   UNK N   1      33.288  19.762  -4.249  0.00  0.00     0.172 A 
HETATM   23  H   UNK N   1      25.769  23.331  -2.621  0.00  0.00     0.211 HD
ENDROOT
BRANCH   7  24
HETATM   24  C   UNK N   1      26.228  26.265  -3.696  0.00  0.00     0.184 C 
HETATM   25  O   UNK N   1      26.356  26.564  -2.520  0.00  0.00    -0.292 OA
BRANCH  24  26
HETATM   26  C   UNK N   1      25.640  27.294  -4.628  0.00  0.00     0.245 C 
BRANCH  26  27
HETATM   27  O   UNK N   1      25.233  28.447  -3.954  0.00  0.00    -0.393 OA
HETATM   28  H   UNK N   1      24.444  28.619  -3.416  0.00  0.00     0.209 HD
ENDBRANCH  26  27
ENDBRANCH  24  26
ENDBRANCH   7  24
BRANCH   9  29
HETATM   29  O   UNK N   1      31.167  25.026  -4.006  0.00  0.00    -0.395 OA
HETATM   30  H   UNK N   1      31.529  25.909  -4.179  0.00  0.00     0.210 HD
ENDBRANCH   9  29
TORSDOF 4
ENDMDL
MODEL 4
REMARK VINA RESULT:      -7.1      6.007     10.503
REMARK  4 active torsions:
REMARK  status: ('A' for Active; 'I' for Inactive)
REMARK    1  A    between atoms: C_12  and  O_2 
REMARK    2  A    between atoms: O_4  and  C_25 
REMARK    3  A    between atoms: C_10  and  C_20 
REMARK    4  A    between atoms: C_20  and  C_25 
ROOT
HETATM    1  O   UNK N   1      33.220  13.691   9.774  0.00  0.00    -0.381 OA
HETATM    2  O   UNK N   1      34.689  10.018  18.308  0.00  0.00    -0.289 OA
HETATM    3  C   UNK N   1      35.373  13.488  10.849  0.00  0.00     0.001 C 
HETATM    4  C   UNK N   1      35.031  12.022  11.114  0.00  0.00     0.002 C 
HETATM    5  C   UNK N   1      35.783  11.454  12.326  0.00  0.00    -0.001 C 
HETATM    6  C   UNK N   1      35.417  12.292  13.598  0.00  0.00     0.035 C 
HETATM    7  C   UNK N   1      34.599  13.716   9.528  0.00  0.00     0.128 C 
HETATM    8  C   UNK N   1      34.937  14.325  12.067  0.00  0.00     0.045 C 
HETATM    9  C   UNK N   1      35.622  13.826  13.365  0.00  0.00     0.124 C 
HETATM   10  C   UNK N   1      35.287  11.359   9.765  0.00  0.00     0.009 C 
HETATM   11  C   UNK N   1      36.171  11.731  14.853  0.00  0.00     0.004 A 
HETATM   12  C   UNK N   1      34.970  12.453   8.729  0.00  0.00     0.047 C 
HETATM   13  C   UNK N   1      35.387   9.984  12.536  0.00  0.00     0.014 C 
HETATM   14  C   UNK N   1      36.103   9.381  13.739  0.00  0.00     0.012 C 
HETATM   15  C   UNK N   1      36.888  13.672  10.606  0.00  0.00     0.019 C 
HETATM   16  C   UNK N   1      35.844  10.239  14.963  0.00  0.00    -0.060 A 
HETATM   17  C   UNK N   1      37.685  11.850  14.687  0.00  0.00     0.025 C 
HETATM   18  C   UNK N   1      35.808  12.532  16.094  0.00  0.00    -0.009 A 
HETATM   19  C   UNK N   1      35.683   7.925  13.892  0.00  0.00     0.015 C 
HETATM   20  C   UNK N   1      35.339   9.702  16.091  0.00  0.00     0.059 A 
HETATM   21  C   UNK N   1      35.313  11.978  17.208  0.00  0.00     0.052 A 
HETATM   22  C   UNK N   1      35.084  10.531  17.274  0.00  0.00     0.172 A 
HETATM   23  H   UNK N   1      32.268  13.748   9.950  0.00  0.00     0.211 HD
ENDROOT
BRANCH   7  24
HETATM   24  C   UNK N   1      34.914  14.994   8.760  0.00  0.00     0.184 C 
HETATM   25  O   UNK N   1      35.492  14.938   7.686  0.00  0.00    -0.292 OA
BRANCH  24  26
HETATM   26  C   UNK N   1      34.547  16.354   9.296  0.00  0.00     0.245 C 
BRANCH  26  27
HETATM   27  O   UNK N   1      33.167  16.513   9.437  0.00  0.00    -0.393 OA
HETATM   28  H   UNK N   1      32.480  15.872   9.678  0.00  0.00     0.209 HD
ENDBRANCH  26  27
ENDBRANCH  24  26
ENDBRANCH   7  24
BRANCH   9  29
HETATM   29  O   UNK N   1      36.970  14.189  13.359  0.00  0.00    -0.395 OA
HETATM   30  H   UNK N   1      37.938  14.157  13.418  0.00  0.00     0.210 HD
ENDBRANCH   9  29
TORSDOF 4
ENDMDL
MODEL 5
REMARK VINA RESULT:      -7.1     11.373     13.702
REMARK  4 active torsions:
REMARK  status: ('A' for Active; 'I' for Inactive)
REMARK    1  A    between atoms: C_12  and  O_2 
REMARK    2  A    between atoms: O_4  and  C_25 
REMARK    3  A    between atoms: C_10  and  C_20 
REMARK    4  A    between atoms: C_20  and  C_25 
ROOT
HETATM    1  O   UNK N   1      32.892  21.795  -6.124  0.00  0.00    -0.381 OA
HETATM    2  O   UNK N   1      26.775  28.932  -5.767  0.00  0.00    -0.289 OA
HETATM    3  C   UNK N   1      31.029  21.955  -4.596  0.00  0.00     0.001 C 
HETATM    4  C   UNK N   1      30.145  22.258  -5.805  0.00  0.00     0.002 C 
HETATM    5  C   UNK N   1      28.893  23.063  -5.429  0.00  0.00    -0.001 C 
HETATM    6  C   UNK N   1      29.328  24.417  -4.773  0.00  0.00     0.035 C 
HETATM    7  C   UNK N   1      32.092  21.042  -5.254  0.00  0.00     0.128 C 
HETATM    8  C   UNK N   1      31.525  23.286  -3.999  0.00  0.00     0.045 C 
HETATM    9  C   UNK N   1      30.338  24.198  -3.598  0.00  0.00     0.124 C 
HETATM   10  C   UNK N   1      29.927  20.884  -6.428  0.00  0.00     0.009 C 
HETATM   11  C   UNK N   1      28.065  25.260  -4.380  0.00  0.00     0.004 A 
HETATM   12  C   UNK N   1      31.213  20.102  -6.099  0.00  0.00     0.047 C 
HETATM   13  C   UNK N   1      28.058  23.337  -6.690  0.00  0.00     0.014 C 
HETATM   14  C   UNK N   1      26.807  24.144  -6.365  0.00  0.00     0.012 C 
HETATM   15  C   UNK N   1      30.251  21.160  -3.523  0.00  0.00     0.019 C 
HETATM   16  C   UNK N   1      27.200  25.414  -5.636  0.00  0.00    -0.060 A 
HETATM   17  C   UNK N   1      27.219  24.535  -3.337  0.00  0.00     0.025 C 
HETATM   18  C   UNK N   1      28.482  26.582  -3.756  0.00  0.00    -0.009 A 
HETATM   19  C   UNK N   1      26.014  24.375  -7.645  0.00  0.00     0.015 C 
HETATM   20  C   UNK N   1      26.809  26.622  -6.086  0.00  0.00     0.059 A 
HETATM   21  C   UNK N   1      28.076  27.773  -4.216  0.00  0.00     0.052 A 
HETATM   22  C   UNK N   1      27.192  27.851  -5.384  0.00  0.00     0.172 A 
HETATM   23  H   UNK N   1      33.495  22.324  -6.670  0.00  0.00     0.211 HD
ENDROOT
BRANCH   7  24
HETATM   24  C   UNK N   1      33.015  20.275  -4.315  0.00  0.00     0.184 C 
HETATM   25  O   UNK N   1      33.087  19.059  -4.385  0.00  0.00    -0.292 OA
BRANCH  24  26
HETATM   26  C   UNK N   1      33.846  20.975  -3.271  0.00  0.00     0.245 C 
BRANCH  26  27
HETATM   27  O   UNK N   1      33.230  20.977  -2.017  0.00  0.00    -0.393 OA
HETATM   28  H   UNK N   1      33.114  21.692  -1.372  0.00  0.00     0.209 HD
ENDBRANCH  26  27
ENDBRANCH  24  26
ENDBRANCH   7  24
BRANCH   9  29
HETATM   29  O   UNK N   1      29.721  23.696  -2.451  0.00  0.00    -0.395 OA
HETATM   30  H   UNK N   1      29.098  23.253  -1.853  0.00  0.00     0.210 HD
ENDBRANCH   9  29
TORSDOF 4
ENDMDL
MODEL 6
REMARK VINA RESULT:      -6.9      8.656     11.731
REMARK  4 active torsions:
REMARK  status: ('A' for Active; 'I' for Inactive)
REMARK    1  A    between atoms: C_12  and  O_2 
REMARK    2  A    between atoms: O_4  and  C_25 
REMARK    3  A    between atoms: C_10  and  C_20 
REMARK    4  A    between atoms: C_20  and  C_25 
ROOT
HETATM    1  O   UNK N   1      18.847  17.956   2.974  0.00  0.00    -0.381 OA
HETATM    2  O   UNK N   1      20.766  12.285  10.229  0.00  0.00    -0.289 OA
HETATM    3  C   UNK N   1      21.063  17.363   3.727  0.00  0.00     0.001 C 
HETATM    4  C   UNK N   1      20.617  15.901   3.687  0.00  0.00     0.002 C 
HETATM    5  C   UNK N   1      21.424  15.015   4.647  0.00  0.00    -0.001 C 
HETATM    6  C   UNK N   1      21.255  15.552   6.109  0.00  0.00     0.035 C 
HETATM    7  C   UNK N   1      20.193  17.947   2.587  0.00  0.00     0.128 C 
HETATM    8  C   UNK N   1      20.820  17.916   5.144  0.00  0.00     0.045 C 
HETATM    9  C   UNK N   1      21.575  17.081   6.210  0.00  0.00     0.124 C 
HETATM   10  C   UNK N   1      20.685  15.560   2.203  0.00  0.00     0.009 C 
HETATM   11  C   UNK N   1      22.069  14.663   7.111  0.00  0.00     0.004 A 
HETATM   12  C   UNK N   1      20.373  16.887   1.485  0.00  0.00     0.047 C 
HETATM   13  C   UNK N   1      20.918  13.567   4.560  0.00  0.00     0.014 C 
HETATM   14  C   UNK N   1      21.686  12.651   5.506  0.00  0.00     0.012 C 
HETATM   15  C   UNK N   1      22.560  17.498   3.365  0.00  0.00     0.019 C 
HETATM   16  C   UNK N   1      21.620  13.211   6.914  0.00  0.00    -0.060 A 
HETATM   17  C   UNK N   1      23.565  14.716   6.809  0.00  0.00     0.025 C 
HETATM   18  C   UNK N   1      21.897  15.171   8.534  0.00  0.00    -0.009 A 
HETATM   19  C   UNK N   1      21.152  11.231   5.370  0.00  0.00     0.015 C 
HETATM   20  C   UNK N   1      21.175  12.458   7.940  0.00  0.00     0.059 A 
HETATM   21  C   UNK N   1      21.459  14.403   9.541  0.00  0.00     0.052 A 
HETATM   22  C   UNK N   1      21.108  13.000   9.301  0.00  0.00     0.172 A 
HETATM   23  H   UNK N   1      17.924  18.032   3.262  0.00  0.00     0.211 HD
ENDROOT
BRANCH   7  24
HETATM   24  C   UNK N   1      20.550  19.346   2.100  0.00  0.00     0.184 C 
HETATM   25  O   UNK N   1      20.886  19.525   0.941  0.00  0.00    -0.292 OA
BRANCH  24  26
HETATM   26  C   UNK N   1      20.519  20.540   3.021  0.00  0.00     0.245 C 
BRANCH  26  27
HETATM   27  O   UNK N   1      21.416  21.535   2.627  0.00  0.00    -0.393 OA
HETATM   28  H   UNK N   1      22.380  21.510   2.522  0.00  0.00     0.209 HD
ENDBRANCH  26  27
ENDBRANCH  24  26
ENDBRANCH   7  24
BRANCH   9  29
HETATM   29  O   UNK N   1      22.944  17.345   6.137  0.00  0.00    -0.395 OA
HETATM   30  H   UNK N   1      23.799  17.739   5.905  0.00  0.00     0.210 HD
ENDBRANCH   9  29
TORSDOF 4
ENDMDL
MODEL 7
REMARK VINA RESULT:      -6.8      4.227      5.899
REMARK  4 active torsions:
REMARK  status: ('A' for Active; 'I' for Inactive)
REMARK    1  A    between atoms: C_12  and  O_2 
REMARK    2  A    between atoms: O_4  and  C_25 
REMARK    3  A    between atoms: C_10  and  C_20 
REMARK    4  A    between atoms: C_20  and  C_25 
ROOT
HETATM    1  O   UNK N   1      33.380  14.908  11.364  0.00  0.00    -0.381 OA
HETATM    2  O   UNK N   1      30.886  13.565   2.394  0.00  0.00    -0.289 OA
HETATM    3  C   UNK N   1      34.910  14.498   9.541  0.00  0.00     0.001 C 
HETATM    4  C   UNK N   1      34.198  15.613   8.776  0.00  0.00     0.002 C 
HETATM    5  C   UNK N   1      34.328  15.456   7.254  0.00  0.00    -0.001 C 
HETATM    6  C   UNK N   1      33.714  14.080   6.824  0.00  0.00     0.035 C 
HETATM    7  C   UNK N   1      34.728  15.002  10.994  0.00  0.00     0.128 C 
HETATM    8  C   UNK N   1      34.252  13.152   9.181  0.00  0.00     0.045 C 
HETATM    9  C   UNK N   1      34.305  12.892   7.654  0.00  0.00     0.124 C 
HETATM   10  C   UNK N   1      34.776  16.881   9.395  0.00  0.00     0.009 C 
HETATM   11  C   UNK N   1      33.833  13.895   5.271  0.00  0.00     0.004 A 
HETATM   12  C   UNK N   1      35.088  16.492  10.853  0.00  0.00     0.047 C 
HETATM   13  C   UNK N   1      33.585  16.603   6.552  0.00  0.00     0.014 C 
HETATM   14  C   UNK N   1      33.679  16.482   5.036  0.00  0.00     0.012 C 
HETATM   15  C   UNK N   1      36.414  14.453   9.188  0.00  0.00     0.019 C 
HETATM   16  C   UNK N   1      33.183  15.114   4.607  0.00  0.00    -0.060 A 
HETATM   17  C   UNK N   1      35.293  13.866   4.828  0.00  0.00     0.025 C 
HETATM   18  C   UNK N   1      33.225  12.568   4.846  0.00  0.00    -0.009 A 
HETATM   19  C   UNK N   1      32.937  17.647   4.394  0.00  0.00     0.015 C 
HETATM   20  C   UNK N   1      32.206  14.987   3.688  0.00  0.00     0.059 A 
HETATM   21  C   UNK N   1      32.258  12.463   3.925  0.00  0.00     0.052 A 
HETATM   22  C   UNK N   1      31.724  13.665   3.275  0.00  0.00     0.172 A 
HETATM   23  H   UNK N   1      32.462  14.778  11.651  0.00  0.00     0.211 HD
ENDROOT
BRANCH   7  24
HETATM   24  C   UNK N   1      35.558  14.310  12.069  0.00  0.00     0.184 C 
HETATM   25  O   UNK N   1      36.392  14.940  12.699  0.00  0.00    -0.292 OA
BRANCH  24  26
HETATM   26  C   UNK N   1      35.395  12.844  12.377  0.00  0.00     0.245 C 
BRANCH  26  27
HETATM   27  O   UNK N   1      34.286  12.593  13.189  0.00  0.00    -0.393 OA
HETATM   28  H   UNK N   1      33.979  11.770  13.600  0.00  0.00     0.209 HD
ENDBRANCH  26  27
ENDBRANCH  24  26
ENDBRANCH   7  24
BRANCH   9  29
HETATM   29  O   UNK N   1      35.609  12.572   7.273  0.00  0.00    -0.395 OA
HETATM   30  H   UNK N   1      36.533  12.275   7.291  0.00  0.00     0.210 HD
ENDBRANCH   9  29
TORSDOF 4
ENDMDL
MODEL 8
REMARK VINA RESULT:      -6.8     14.782     17.026
REMARK  4 active torsions:
REMARK  status: ('A' for Active; 'I' for Inactive)
REMARK    1  A    between atoms: C_12  and  O_2 
REMARK    2  A    between atoms: O_4  and  C_25 
REMARK    3  A    between atoms: C_10  and  C_20 
REMARK    4  A    between atoms: C_20  and  C_25 
ROOT
HETATM    1  O   UNK N   1      28.012  26.864  -6.015  0.00  0.00    -0.381 OA
HETATM    2  O   UNK N   1      28.970  19.796 -12.147  0.00  0.00    -0.289 OA
HETATM    3  C   UNK N   1      26.637  24.878  -6.076  0.00  0.00     0.001 C 
HETATM    4  C   UNK N   1      27.929  24.062  -6.097  0.00  0.00     0.002 C 
HETATM    5  C   UNK N   1      27.740  22.682  -6.744  0.00  0.00    -0.001 C 
HETATM    6  C   UNK N   1      27.239  22.868  -8.216  0.00  0.00     0.035 C 
HETATM    7  C   UNK N   1      27.104  26.110  -5.260  0.00  0.00     0.128 C 
HETATM    8  C   UNK N   1      26.188  25.132  -7.527  0.00  0.00     0.045 C 
HETATM    9  C   UNK N   1      25.984  23.800  -8.293  0.00  0.00     0.124 C 
HETATM   10  C   UNK N   1      28.380  24.091  -4.640  0.00  0.00     0.009 C 
HETATM   11  C   UNK N   1      27.040  21.472  -8.901  0.00  0.00     0.004 A 
HETATM   12  C   UNK N   1      27.873  25.443  -4.104  0.00  0.00     0.047 C 
HETATM   13  C   UNK N   1      29.076  21.923  -6.737  0.00  0.00     0.014 C 
HETATM   14  C   UNK N   1      28.938  20.548  -7.381  0.00  0.00     0.012 C 
HETATM   15  C   UNK N   1      25.521  24.135  -5.307  0.00  0.00     0.019 C 
HETATM   16  C   UNK N   1      28.356  20.699  -8.774  0.00  0.00    -0.060 A 
HETATM   17  C   UNK N   1      25.966  20.654  -8.187  0.00  0.00     0.025 C 
HETATM   18  C   UNK N   1      26.567  21.647 -10.336  0.00  0.00    -0.009 A 
HETATM   19  C   UNK N   1      30.285  19.838  -7.337  0.00  0.00     0.015 C 
HETATM   20  C   UNK N   1      28.984  20.180  -9.847  0.00  0.00     0.059 A 
HETATM   21  C   UNK N   1      27.203  21.116 -11.389  0.00  0.00     0.052 A 
HETATM   22  C   UNK N   1      28.424  20.328 -11.195  0.00  0.00     0.172 A 
HETATM   23  H   UNK N   1      28.583  27.428  -6.559  0.00  0.00     0.211 HD
ENDROOT
BRANCH   7  24
HETATM   24  C   UNK N   1      26.017  27.051  -4.757  0.00  0.00     0.184 C 
HETATM   25  O   UNK N   1      25.186  27.497  -5.532  0.00  0.00    -0.292 OA
BRANCH  24  26
HETATM   26  C   UNK N   1      25.937  27.474  -3.313  0.00  0.00     0.245 C 
BRANCH  26  27
HETATM   27  O   UNK N   1      25.563  28.812  -3.172  0.00  0.00    -0.393 OA
HETATM   28  H   UNK N   1      26.036  29.562  -2.779  0.00  0.00     0.209 HD
ENDBRANCH  26  27
ENDBRANCH  24  26
ENDBRANCH   7  24
BRANCH   9  29
HETATM   29  O   UNK N   1      24.823  23.169  -7.844  0.00  0.00    -0.395 OA
HETATM   30  H   UNK N   1      23.928  22.797  -7.803  0.00  0.00     0.210 HD
ENDBRANCH   9  29
TORSDOF 4
ENDMDL
MODEL 9
REMARK VINA RESULT:      -6.7      8.879     13.573
REMARK  4 active torsions:
REMARK  status: ('A' for Active; 'I' for Inactive)
REMARK    1  A    between atoms: C_12  and  O_2 
REMARK    2  A    between atoms: O_4  and  C_25 
REMARK    3  A    between atoms: C_10  and  C_20 
REMARK    4  A    between atoms: C_20  and  C_25 
ROOT
HETATM    1  O   UNK N   1      37.569  12.674  12.905  0.00  0.00    -0.381 OA
HETATM    2  O   UNK N   1      38.016   9.592  21.780  0.00  0.00    -0.289 OA
HETATM    3  C   UNK N   1      35.940  11.239  13.963  0.00  0.00     0.001 C 
HETATM    4  C   UNK N   1      35.901  12.241  15.117  0.00  0.00     0.002 C 
HETATM    5  C   UNK N   1      35.465  11.595  16.439  0.00  0.00    -0.001 C 
HETATM    6  C   UNK N   1      36.464  10.445  16.805  0.00  0.00     0.035 C 
HETATM    7  C   UNK N   1      36.260  12.191  12.783  0.00  0.00     0.128 C 
HETATM    8  C   UNK N   1      36.983  10.152  14.285  0.00  0.00     0.045 C 
HETATM    9  C   UNK N   1      36.656   9.439  15.622  0.00  0.00     0.124 C 
HETATM   10  C   UNK N   1      35.027  13.364  14.570  0.00  0.00     0.009 C 
HETATM   11  C   UNK N   1      36.041   9.768  18.155  0.00  0.00     0.004 A 
HETATM   12  C   UNK N   1      35.288  13.355  13.052  0.00  0.00     0.047 C 
HETATM   13  C   UNK N   1      35.456  12.654  17.552  0.00  0.00     0.014 C 
HETATM   14  C   UNK N   1      35.038  12.053  18.889  0.00  0.00     0.012 C 
HETATM   15  C   UNK N   1      34.556  10.586  13.746  0.00  0.00     0.019 C 
HETATM   16  C   UNK N   1      35.931  10.871  19.213  0.00  0.00    -0.060 A 
HETATM   17  C   UNK N   1      34.666   9.115  18.040  0.00  0.00     0.025 C 
HETATM   18  C   UNK N   1      37.017   8.660  18.523  0.00  0.00    -0.009 A 
HETATM   19  C   UNK N   1      35.036  13.147  19.950  0.00  0.00     0.015 C 
HETATM   20  C   UNK N   1      36.601  10.807  20.380  0.00  0.00     0.059 A 
HETATM   21  C   UNK N   1      37.668   8.613  19.692  0.00  0.00     0.052 A 
HETATM   22  C   UNK N   1      37.468   9.666  20.693  0.00  0.00     0.172 A 
HETATM   23  H   UNK N   1      38.497  12.954  12.943  0.00  0.00     0.211 HD
ENDROOT
BRANCH   7  24
HETATM   24  C   UNK N   1      36.098  11.622  11.379  0.00  0.00     0.184 C 
HETATM   25  O   UNK N   1      36.806  10.701  11.006  0.00  0.00    -0.292 OA
BRANCH  24  26
HETATM   26  C   UNK N   1      35.087  12.176  10.409  0.00  0.00     0.245 C 
BRANCH  26  27
HETATM   27  O   UNK N   1      33.862  11.510  10.482  0.00  0.00    -0.393 OA
HETATM   28  H   UNK N   1      33.539  10.728  10.006  0.00  0.00     0.209 HD
ENDBRANCH  26  27
ENDBRANCH  24  26
ENDBRANCH   7  24
BRANCH   9  29
HETATM   29  O   UNK N   1      35.554   8.598  15.452  0.00  0.00    -0.395 OA
HETATM   30  H   UNK N   1      34.657   8.271  15.279  0.00  0.00     0.210 HD
ENDBRANCH   9  29
TORSDOF 4
ENDMDL
