MODEL 1
REMARK VINA RESULT:      -6.0      0.000      0.000
REMARK  7 active torsions:
REMARK  status: ('A' for Active; 'I' for Inactive)
REMARK    1  A    between atoms: O_1  and  C_8 
REMARK    2  A    between atoms: O_1  and  C_10 
REMARK    3  A    between atoms: O_2  and  C_5 
REMARK    4  A    between atoms: N_3  and  C_6 
REMARK    5  A    between atoms: N_3  and  C_7 
REMARK    6  A    between atoms: C_5  and  C_6 
REMARK    7  A    between atoms: C_5  and  C_8 
ROOT
HETATM    1  O   UNK N   1      30.557  17.375   8.741  0.00  0.00    -0.348 OA
ENDROOT
BRANCH   1   2
HETATM    2  C   UNK N   1      29.731  18.453   8.945  0.00  0.00     0.209 C 
BRANCH   2   3
HETATM    3  C   UNK N   1      28.335  18.199   8.409  0.00  0.00     0.159 C 
BRANCH   3   4
HETATM    4  O   UNK N   1      27.392  18.233   9.439  0.00  0.00    -0.392 OA
HETATM    5  H   UNK N   1      27.604  18.012  10.360  0.00  0.00     0.210 HD
ENDBRANCH   3   4
BRANCH   3   6
HETATM    6  C   UNK N   1      28.052  19.324   7.442  0.00  0.00     0.147 C 
BRANCH   6   7
HETATM    7  N   UNK N   1      27.119  18.907   6.411  0.00  0.00    -0.415 N 
HETATM    8  H   UNK N   1      26.718  17.978   6.290  0.00  0.00     0.153 HD
BRANCH   7   9
HETATM    9  C   UNK N   1      26.868  20.082   5.585  0.00  0.00     0.068 C 
HETATM   10  C   UNK N   1      27.533  19.907   4.239  0.00  0.00     0.031 C 
HETATM   11  C   UNK N   1      27.419  21.333   6.252  0.00  0.00     0.031 C 
ENDBRANCH   7   9
ENDBRANCH   6   7
ENDBRANCH   3   6
ENDBRANCH   2   3
ENDBRANCH   1   2
BRANCH   1  12
HETATM   12  C   UNK N   1      31.610  17.426   7.893  0.00  0.00     0.081 A 
HETATM   13  C   UNK N   1      31.454  17.039   6.564  0.00  0.00     0.025 A 
HETATM   14  C   UNK N   1      32.490  17.080   5.681  0.00  0.00     0.045 A 
HETATM   15  C   UNK N   1      30.350  16.566   5.898  0.00  0.00     0.033 A 
HETATM   16  N   UNK N   1      32.100  16.653   4.470  0.00  0.00    -0.365 N 
HETATM   17  C   UNK N   1      33.761  17.511   6.047  0.00  0.00     0.030 A 
HETATM   18  C   UNK N   1      30.787  16.334   4.593  0.00  0.00     0.089 A 
HETATM   19  H   UNK N   1      32.653  16.585   3.658  0.00  0.00     0.165 HD
HETATM   20  C   UNK N   1      33.959  17.910   7.382  0.00  0.00     0.005 A 
HETATM   21  C   UNK N   1      32.889  17.865   8.304  0.00  0.00     0.038 A 
ENDBRANCH   1  12
TORSDOF 7
ENDMDL
MODEL 2
REMARK VINA RESULT:      -5.9      2.821      6.490
REMARK  7 active torsions:
REMARK  status: ('A' for Active; 'I' for Inactive)
REMARK    1  A    between atoms: O_1  and  C_8 
REMARK    2  A    between atoms: O_1  and  C_10 
REMARK    3  A    between atoms: O_2  and  C_5 
REMARK    4  A    between atoms: N_3  and  C_6 
REMARK    5  A    between atoms: N_3  and  C_7 
REMARK    6  A    between atoms: C_5  and  C_6 
REMARK    7  A    between atoms: C_5  and  C_8 
ROOT
HETATM    1  O   UNK N   1      32.244  17.262   8.205  0.00  0.00    -0.348 OA
ENDROOT
BRANCH   1   2
HETATM    2  C   UNK N   1      33.012  18.392   8.342  0.00  0.00     0.209 C 
BRANCH   2   3
HETATM    3  C   UNK N   1      34.473  18.117   8.044  0.00  0.00     0.159 C 
BRANCH   3   4
HETATM    4  O   UNK N   1      35.281  19.159   8.505  0.00  0.00    -0.392 OA
HETATM    5  H   UNK N   1      34.927  19.954   8.934  0.00  0.00     0.210 HD
ENDBRANCH   3   4
BRANCH   3   6
HETATM    6  C   UNK N   1      34.817  16.854   8.797  0.00  0.00     0.147 C 
BRANCH   6   7
HETATM    7  N   UNK N   1      34.600  17.018  10.223  0.00  0.00    -0.415 N 
HETATM    8  H   UNK N   1      34.452  17.895  10.721  0.00  0.00     0.153 HD
BRANCH   7   9
HETATM    9  C   UNK N   1      34.633  15.681  10.801  0.00  0.00     0.068 C 
HETATM   10  C   UNK N   1      35.857  15.536  11.677  0.00  0.00     0.031 C 
HETATM   11  C   UNK N   1      34.679  14.625   9.706  0.00  0.00     0.031 C 
ENDBRANCH   7   9
ENDBRANCH   6   7
ENDBRANCH   3   6
ENDBRANCH   2   3
ENDBRANCH   1   2
BRANCH   1  12
HETATM   12  C   UNK N   1      31.137  17.234   7.428  0.00  0.00     0.081 A 
HETATM   13  C   UNK N   1      29.881  17.433   7.997  0.00  0.00     0.025 A 
HETATM   14  C   UNK N   1      28.745  17.416   7.246  0.00  0.00     0.045 A 
HETATM   15  C   UNK N   1      29.521  17.660   9.303  0.00  0.00     0.033 A 
HETATM   16  N   UNK N   1      27.664  17.622   8.014  0.00  0.00    -0.365 N 
HETATM   17  C   UNK N   1      28.767  17.202   5.871  0.00  0.00     0.030 A 
HETATM   18  C   UNK N   1      28.129  17.773   9.279  0.00  0.00     0.089 A 
HETATM   19  H   UNK N   1      26.725  17.658   7.719  0.00  0.00     0.165 HD
HETATM   20  C   UNK N   1      30.017  16.995   5.260  0.00  0.00     0.005 A 
HETATM   21  C   UNK N   1      31.199  17.008   6.034  0.00  0.00     0.038 A 
ENDBRANCH   1  12
TORSDOF 7
ENDMDL
MODEL 3
REMARK VINA RESULT:      -5.8      7.563      9.743
REMARK  7 active torsions:
REMARK  status: ('A' for Active; 'I' for Inactive)
REMARK    1  A    between atoms: O_1  and  C_8 
REMARK    2  A    between atoms: O_1  and  C_10 
REMARK    3  A    between atoms: O_2  and  C_5 
REMARK    4  A    between atoms: N_3  and  C_6 
REMARK    5  A    between atoms: N_3  and  C_7 
REMARK    6  A    between atoms: C_5  and  C_6 
REMARK    7  A    between atoms: C_5  and  C_8 
ROOT
HETATM    1  O   UNK N   1      36.582  13.156  12.321  0.00  0.00    -0.348 OA
ENDROOT
BRANCH   1   2
HETATM    2  C   UNK N   1      36.194  13.847  11.200  0.00  0.00     0.209 C 
BRANCH   2   3
HETATM    3  C   UNK N   1      36.066  15.333  11.473  0.00  0.00     0.159 C 
BRANCH   3   4
HETATM    4  O   UNK N   1      37.112  16.042  10.879  0.00  0.00    -0.392 OA
HETATM    5  H   UNK N   1      37.818  16.471  11.388  0.00  0.00     0.210 HD
ENDBRANCH   3   4
BRANCH   3   6
HETATM    6  C   UNK N   1      34.760  15.757  10.843  0.00  0.00     0.147 C 
BRANCH   6   7
HETATM    7  N   UNK N   1      34.851  17.102  10.303  0.00  0.00    -0.415 N 
HETATM    8  H   UNK N   1      35.288  17.909  10.746  0.00  0.00     0.153 HD
BRANCH   7   9
HETATM    9  C   UNK N   1      34.195  17.068   9.003  0.00  0.00     0.068 C 
HETATM   10  C   UNK N   1      34.704  15.889   8.206  0.00  0.00     0.031 C 
HETATM   11  C   UNK N   1      34.474  18.348   8.229  0.00  0.00     0.031 C 
ENDBRANCH   7   9
ENDBRANCH   6   7
ENDBRANCH   3   6
ENDBRANCH   2   3
ENDBRANCH   1   2
BRANCH   1  12
HETATM   12  C   UNK N   1      35.706  12.444  13.066  0.00  0.00     0.081 A 
HETATM   13  C   UNK N   1      35.564  12.716  14.425  0.00  0.00     0.025 A 
HETATM   14  C   UNK N   1      34.691  12.023  15.206  0.00  0.00     0.045 A 
HETATM   15  C   UNK N   1      36.203  13.637  15.220  0.00  0.00     0.033 A 
HETATM   16  N   UNK N   1      34.738  12.458  16.474  0.00  0.00    -0.365 N 
HETATM   17  C   UNK N   1      33.886  11.007  14.699  0.00  0.00     0.030 A 
HETATM   18  C   UNK N   1      35.664  13.449  16.494  0.00  0.00     0.089 A 
HETATM   19  H   UNK N   1      34.208  12.127  17.235  0.00  0.00     0.165 HD
HETATM   20  C   UNK N   1      34.002  10.701  13.330  0.00  0.00     0.005 A 
HETATM   21  C   UNK N   1      34.910  11.413  12.516  0.00  0.00     0.038 A 
ENDBRANCH   1  12
TORSDOF 7
ENDMDL
MODEL 4
REMARK VINA RESULT:      -5.6      7.147      9.003
REMARK  7 active torsions:
REMARK  status: ('A' for Active; 'I' for Inactive)
REMARK    1  A    between atoms: O_1  and  C_8 
REMARK    2  A    between atoms: O_1  and  C_10 
REMARK    3  A    between atoms: O_2  and  C_5 
REMARK    4  A    between atoms: N_3  and  C_6 
REMARK    5  A    between atoms: N_3  and  C_7 
REMARK    6  A    between atoms: C_5  and  C_6 
REMARK    7  A    between atoms: C_5  and  C_8 
ROOT
HETATM    1  O   UNK N   1      35.815  14.007  12.020  0.00  0.00    -0.348 OA
ENDROOT
BRANCH   1   2
HETATM    2  C   UNK N   1      34.906  14.920  11.544  0.00  0.00     0.209 C 
BRANCH   2   3
HETATM    3  C   UNK N   1      35.587  16.172  11.027  0.00  0.00     0.159 C 
BRANCH   3   4
HETATM    4  O   UNK N   1      36.972  15.999  10.967  0.00  0.00    -0.392 OA
HETATM    5  H   UNK N   1      37.559  16.589  10.468  0.00  0.00     0.210 HD
ENDBRANCH   3   4
BRANCH   3   6
HETATM    6  C   UNK N   1      35.054  16.386   9.630  0.00  0.00     0.147 C 
BRANCH   6   7
HETATM    7  N   UNK N   1      33.620  16.613   9.646  0.00  0.00    -0.415 N 
HETATM    8  H   UNK N   1      32.970  16.365  10.392  0.00  0.00     0.153 HD
BRANCH   7   9
HETATM    9  C   UNK N   1      33.293  17.265   8.384  0.00  0.00     0.068 C 
HETATM   10  C   UNK N   1      34.302  18.354   8.099  0.00  0.00     0.031 C 
HETATM   11  C   UNK N   1      31.902  17.880   8.444  0.00  0.00     0.031 C 
ENDBRANCH   7   9
ENDBRANCH   6   7
ENDBRANCH   3   6
ENDBRANCH   2   3
ENDBRANCH   1   2
BRANCH   1  12
HETATM   12  C   UNK N   1      35.853  13.641  13.321  0.00  0.00     0.081 A 
HETATM   13  C   UNK N   1      35.193  12.488  13.741  0.00  0.00     0.025 A 
HETATM   14  C   UNK N   1      35.212  12.087  15.042  0.00  0.00     0.045 A 
HETATM   15  C   UNK N   1      34.443  11.583  13.030  0.00  0.00     0.033 A 
HETATM   16  N   UNK N   1      34.503  10.959  15.202  0.00  0.00    -0.365 N 
HETATM   17  C   UNK N   1      35.888  12.798  16.029  0.00  0.00     0.030 A 
HETATM   18  C   UNK N   1      34.027  10.641  13.973  0.00  0.00     0.089 A 
HETATM   19  H   UNK N   1      34.360  10.462  16.040  0.00  0.00     0.165 HD
HETATM   20  C   UNK N   1      36.565  13.970  15.645  0.00  0.00     0.005 A 
HETATM   21  C   UNK N   1      36.546  14.394  14.297  0.00  0.00     0.038 A 
ENDBRANCH   1  12
TORSDOF 7
ENDMDL
MODEL 5
REMARK VINA RESULT:      -5.6      9.886     12.190
REMARK  7 active torsions:
REMARK  status: ('A' for Active; 'I' for Inactive)
REMARK    1  A    between atoms: O_1  and  C_8 
REMARK    2  A    between atoms: O_1  and  C_10 
REMARK    3  A    between atoms: O_2  and  C_5 
REMARK    4  A    between atoms: N_3  and  C_6 
REMARK    5  A    between atoms: N_3  and  C_7 
REMARK    6  A    between atoms: C_5  and  C_6 
REMARK    7  A    between atoms: C_5  and  C_8 
ROOT
HETATM    1  O   UNK N   1      36.837  13.715  14.307  0.00  0.00    -0.348 OA
ENDROOT
BRANCH   1   2
HETATM    2  C   UNK N   1      35.985  14.113  13.307  0.00  0.00     0.209 C 
BRANCH   2   3
HETATM    3  C   UNK N   1      36.466  13.655  11.944  0.00  0.00     0.159 C 
BRANCH   3   4
HETATM    4  O   UNK N   1      37.801  13.247  11.998  0.00  0.00    -0.392 OA
HETATM    5  H   UNK N   1      38.305  12.977  11.214  0.00  0.00     0.210 HD
ENDBRANCH   3   4
BRANCH   3   6
HETATM    6  C   UNK N   1      35.602  12.472  11.577  0.00  0.00     0.147 C 
BRANCH   6   7
HETATM    7  N   UNK N   1      34.500  12.318  12.510  0.00  0.00    -0.415 N 
HETATM    8  H   UNK N   1      34.035  13.059  13.033  0.00  0.00     0.153 HD
BRANCH   7   9
HETATM    9  C   UNK N   1      34.191  10.894  12.550  0.00  0.00     0.068 C 
HETATM   10  C   UNK N   1      33.811  10.496  13.958  0.00  0.00     0.031 C 
HETATM   11  C   UNK N   1      35.394  10.073  12.109  0.00  0.00     0.031 C 
ENDBRANCH   7   9
ENDBRANCH   6   7
ENDBRANCH   3   6
ENDBRANCH   2   3
ENDBRANCH   1   2
BRANCH   1  12
HETATM   12  C   UNK N   1      36.435  12.908  15.316  0.00  0.00     0.081 A 
HETATM   13  C   UNK N   1      36.912  11.602  15.395  0.00  0.00     0.025 A 
HETATM   14  C   UNK N   1      36.532  10.761  16.397  0.00  0.00     0.045 A 
HETATM   15  C   UNK N   1      37.775  10.917  14.574  0.00  0.00     0.033 A 
HETATM   16  N   UNK N   1      37.114   9.560  16.257  0.00  0.00    -0.365 N 
HETATM   17  C   UNK N   1      35.651  11.152  17.401  0.00  0.00     0.030 A 
HETATM   18  C   UNK N   1      37.879   9.645  15.140  0.00  0.00     0.089 A 
HETATM   19  H   UNK N   1      37.009   8.778  16.846  0.00  0.00     0.165 HD
HETATM   20  C   UNK N   1      35.146  12.465  17.354  0.00  0.00     0.005 A 
HETATM   21  C   UNK N   1      35.533  13.340  16.314  0.00  0.00     0.038 A 
ENDBRANCH   1  12
TORSDOF 7
ENDMDL
MODEL 6
REMARK VINA RESULT:      -5.6      2.400      3.721
REMARK  7 active torsions:
REMARK  status: ('A' for Active; 'I' for Inactive)
REMARK    1  A    between atoms: O_1  and  C_8 
REMARK    2  A    between atoms: O_1  and  C_10 
REMARK    3  A    between atoms: O_2  and  C_5 
REMARK    4  A    between atoms: N_3  and  C_6 
REMARK    5  A    between atoms: N_3  and  C_7 
REMARK    6  A    between atoms: C_5  and  C_6 
REMARK    7  A    between atoms: C_5  and  C_8 
ROOT
HETATM    1  O   UNK N   1      27.371  17.475   6.279  0.00  0.00    -0.348 OA
ENDROOT
BRANCH   1   2
HETATM    2  C   UNK N   1      26.596  16.406   5.902  0.00  0.00     0.209 C 
BRANCH   2   3
HETATM    3  C   UNK N   1      25.420  16.839   5.048  0.00  0.00     0.159 C 
BRANCH   3   4
HETATM    4  O   UNK N   1      24.260  16.955   5.818  0.00  0.00    -0.392 OA
HETATM    5  H   UNK N   1      23.382  16.697   5.496  0.00  0.00     0.210 HD
ENDBRANCH   3   4
BRANCH   3   6
HETATM    6  C   UNK N   1      25.787  18.197   4.498  0.00  0.00     0.147 C 
BRANCH   6   7
HETATM    7  N   UNK N   1      25.358  19.258   5.392  0.00  0.00    -0.415 N 
HETATM    8  H   UNK N   1      24.652  19.192   6.124  0.00  0.00     0.153 HD
BRANCH   7   9
HETATM    9  C   UNK N   1      26.139  20.436   5.036  0.00  0.00     0.068 C 
HETATM   10  C   UNK N   1      27.105  20.089   3.925  0.00  0.00     0.031 C 
HETATM   11  C   UNK N   1      26.924  20.941   6.237  0.00  0.00     0.031 C 
ENDBRANCH   7   9
ENDBRANCH   6   7
ENDBRANCH   3   6
ENDBRANCH   2   3
ENDBRANCH   1   2
BRANCH   1  12
HETATM   12  C   UNK N   1      28.688  17.346   6.555  0.00  0.00     0.081 A 
HETATM   13  C   UNK N   1      29.187  17.763   7.787  0.00  0.00     0.025 A 
HETATM   14  C   UNK N   1      30.507  17.646   8.101  0.00  0.00     0.045 A 
HETATM   15  C   UNK N   1      28.547  18.337   8.858  0.00  0.00     0.033 A 
HETATM   16  N   UNK N   1      30.747  18.121   9.333  0.00  0.00    -0.365 N 
HETATM   17  C   UNK N   1      31.436  17.103   7.218  0.00  0.00     0.030 A 
HETATM   18  C   UNK N   1      29.549  18.548   9.807  0.00  0.00     0.089 A 
HETATM   19  H   UNK N   1      31.614  18.152   9.799  0.00  0.00     0.165 HD
HETATM   20  C   UNK N   1      30.970  16.672   5.962  0.00  0.00     0.005 A 
HETATM   21  C   UNK N   1      29.603  16.795   5.628  0.00  0.00     0.038 A 
ENDBRANCH   1  12
TORSDOF 7
ENDMDL
MODEL 7
REMARK VINA RESULT:      -5.5     11.036     13.097
REMARK  7 active torsions:
REMARK  status: ('A' for Active; 'I' for Inactive)
REMARK    1  A    between atoms: O_1  and  C_8 
REMARK    2  A    between atoms: O_1  and  C_10 
REMARK    3  A    between atoms: O_2  and  C_5 
REMARK    4  A    between atoms: N_3  and  C_6 
REMARK    5  A    between atoms: N_3  and  C_7 
REMARK    6  A    between atoms: C_5  and  C_6 
REMARK    7  A    between atoms: C_5  and  C_8 
ROOT
HETATM    1  O   UNK N   1      28.526  23.890  -4.796  0.00  0.00    -0.348 OA
ENDROOT
BRANCH   1   2
HETATM    2  C   UNK N   1      27.178  24.045  -5.006  0.00  0.00     0.209 C 
BRANCH   2   3
HETATM    3  C   UNK N   1      26.458  24.466  -3.740  0.00  0.00     0.159 C 
BRANCH   3   4
HETATM    4  O   UNK N   1      27.025  23.858  -2.617  0.00  0.00    -0.392 OA
HETATM    5  H   UNK N   1      26.594  23.137  -2.130  0.00  0.00     0.210 HD
ENDBRANCH   3   4
BRANCH   3   6
HETATM    6  C   UNK N   1      26.643  25.962  -3.638  0.00  0.00     0.147 C 
BRANCH   6   7
HETATM    7  N   UNK N   1      26.985  26.536  -4.927  0.00  0.00    -0.415 N 
HETATM    8  H   UNK N   1      27.729  26.232  -5.553  0.00  0.00     0.153 HD
BRANCH   7   9
HETATM    9  C   UNK N   1      26.051  27.633  -5.148  0.00  0.00     0.068 C 
HETATM   10  C   UNK N   1      25.782  28.343  -3.841  0.00  0.00     0.031 C 
HETATM   11  C   UNK N   1      24.736  27.113  -5.710  0.00  0.00     0.031 C 
ENDBRANCH   7   9
ENDBRANCH   6   7
ENDBRANCH   3   6
ENDBRANCH   2   3
ENDBRANCH   1   2
BRANCH   1  12
HETATM   12  C   UNK N   1      29.190  22.776  -5.181  0.00  0.00     0.081 A 
HETATM   13  C   UNK N   1      30.161  22.222  -4.350  0.00  0.00     0.025 A 
HETATM   14  C   UNK N   1      30.848  21.100  -4.701  0.00  0.00     0.045 A 
HETATM   15  C   UNK N   1      30.618  22.629  -3.120  0.00  0.00     0.033 A 
HETATM   16  N   UNK N   1      31.731  20.764  -3.748  0.00  0.00    -0.365 N 
HETATM   17  C   UNK N   1      30.623  20.438  -5.905  0.00  0.00     0.030 A 
HETATM   18  C   UNK N   1      31.598  21.697  -2.773  0.00  0.00     0.089 A 
HETATM   19  H   UNK N   1      32.348  19.997  -3.755  0.00  0.00     0.165 HD
HETATM   20  C   UNK N   1      29.650  20.968  -6.772  0.00  0.00     0.005 A 
HETATM   21  C   UNK N   1      28.938  22.135  -6.415  0.00  0.00     0.038 A 
ENDBRANCH   1  12
TORSDOF 7
ENDMDL
MODEL 8
REMARK VINA RESULT:      -5.5      1.669      2.697
REMARK  7 active torsions:
REMARK  status: ('A' for Active; 'I' for Inactive)
REMARK    1  A    between atoms: O_1  and  C_8 
REMARK    2  A    between atoms: O_1  and  C_10 
REMARK    3  A    between atoms: O_2  and  C_5 
REMARK    4  A    between atoms: N_3  and  C_6 
REMARK    5  A    between atoms: N_3  and  C_7 
REMARK    6  A    between atoms: C_5  and  C_6 
REMARK    7  A    between atoms: C_5  and  C_8 
ROOT
HETATM    1  O   UNK N   1      29.556  17.400   6.467  0.00  0.00    -0.348 OA
ENDROOT
BRANCH   1   2
HETATM    2  C   UNK N   1      28.725  16.328   6.248  0.00  0.00     0.209 C 
BRANCH   2   3
HETATM    3  C   UNK N   1      27.267  16.704   6.421  0.00  0.00     0.159 C 
BRANCH   3   4
HETATM    4  O   UNK N   1      26.945  16.847   7.773  0.00  0.00    -0.392 OA
HETATM    5  H   UNK N   1      26.036  16.967   8.092  0.00  0.00     0.210 HD
ENDBRANCH   3   4
BRANCH   3   6
HETATM    6  C   UNK N   1      27.099  18.037   5.730  0.00  0.00     0.147 C 
BRANCH   6   7
HETATM    7  N   UNK N   1      26.934  19.110   6.693  0.00  0.00    -0.415 N 
HETATM    8  H   UNK N   1      26.437  19.063   7.582  0.00  0.00     0.153 HD
BRANCH   7   9
HETATM    9  C   UNK N   1      27.622  20.269   6.139  0.00  0.00     0.068 C 
HETATM   10  C   UNK N   1      26.724  21.482   6.224  0.00  0.00     0.031 C 
HETATM   11  C   UNK N   1      27.992  20.027   4.683  0.00  0.00     0.031 C 
ENDBRANCH   7   9
ENDBRANCH   6   7
ENDBRANCH   3   6
ENDBRANCH   2   3
ENDBRANCH   1   2
BRANCH   1  12
HETATM   12  C   UNK N   1      30.826  17.431   6.004  0.00  0.00     0.081 A 
HETATM   13  C   UNK N   1      31.894  17.394   6.897  0.00  0.00     0.025 A 
HETATM   14  C   UNK N   1      33.186  17.421   6.468  0.00  0.00     0.045 A 
HETATM   15  C   UNK N   1      31.906  17.338   8.269  0.00  0.00     0.033 A 
HETATM   16  N   UNK N   1      34.034  17.384   7.508  0.00  0.00    -0.365 N 
HETATM   17  C   UNK N   1      33.520  17.483   5.118  0.00  0.00     0.030 A 
HETATM   18  C   UNK N   1      33.258  17.334   8.619  0.00  0.00     0.089 A 
HETATM   19  H   UNK N   1      35.018  17.391   7.472  0.00  0.00     0.165 HD
HETATM   20  C   UNK N   1      32.468  17.523   4.185  0.00  0.00     0.005 A 
HETATM   21  C   UNK N   1      31.125  17.501   4.624  0.00  0.00     0.038 A 
ENDBRANCH   1  12
TORSDOF 7
ENDMDL
MODEL 9
REMARK VINA RESULT:      -5.4      8.832     10.501
REMARK  7 active torsions:
REMARK  status: ('A' for Active; 'I' for Inactive)
REMARK    1  A    between atoms: O_1  and  C_8 
REMARK    2  A    between atoms: O_1  and  C_10 
REMARK    3  A    between atoms: O_2  and  C_5 
REMARK    4  A    between atoms: N_3  and  C_6 
REMARK    5  A    between atoms: N_3  and  C_7 
REMARK    6  A    between atoms: C_5  and  C_6 
REMARK    7  A    between atoms: C_5  and  C_8 
ROOT
HETATM    1  O   UNK N   1      21.965  14.853   8.392  0.00  0.00    -0.348 OA
ENDROOT
BRANCH   1   2
HETATM    2  C   UNK N   1      21.522  14.646   7.108  0.00  0.00     0.209 C 
BRANCH   2   3
HETATM    3  C   UNK N   1      21.338  15.953   6.361  0.00  0.00     0.159 C 
BRANCH   3   4
HETATM    4  O   UNK N   1      20.554  15.769   5.220  0.00  0.00    -0.392 OA
HETATM    5  H   UNK N   1      19.628  16.053   5.161  0.00  0.00     0.210 HD
ENDBRANCH   3   4
BRANCH   3   6
HETATM    6  C   UNK N   1      20.615  16.875   7.314  0.00  0.00     0.147 C 
BRANCH   6   7
HETATM    7  N   UNK N   1      19.273  16.393   7.593  0.00  0.00    -0.415 N 
HETATM    8  H   UNK N   1      18.703  15.795   6.996  0.00  0.00     0.153 HD
BRANCH   7   9
HETATM    9  C   UNK N   1      18.904  16.935   8.894  0.00  0.00     0.068 C 
HETATM   10  C   UNK N   1      17.407  17.142   8.953  0.00  0.00     0.031 C 
HETATM   11  C   UNK N   1      19.598  18.267   9.136  0.00  0.00     0.031 C 
ENDBRANCH   7   9
ENDBRANCH   6   7
ENDBRANCH   3   6
ENDBRANCH   2   3
ENDBRANCH   1   2
BRANCH   1  12
HETATM   12  C   UNK N   1      21.739  13.960   9.382  0.00  0.00     0.081 A 
HETATM   13  C   UNK N   1      22.801  13.240   9.927  0.00  0.00     0.025 A 
HETATM   14  C   UNK N   1      22.613  12.335  10.927  0.00  0.00     0.045 A 
HETATM   15  C   UNK N   1      24.139  13.258   9.619  0.00  0.00     0.033 A 
HETATM   16  N   UNK N   1      23.776  11.766  11.279  0.00  0.00    -0.365 N 
HETATM   17  C   UNK N   1      21.357  12.074  11.467  0.00  0.00     0.030 A 
HETATM   18  C   UNK N   1      24.720  12.326  10.481  0.00  0.00     0.089 A 
HETATM   19  H   UNK N   1      23.916  11.083  11.974  0.00  0.00     0.165 HD
HETATM   20  C   UNK N   1      20.259  12.780  10.941  0.00  0.00     0.005 A 
HETATM   21  C   UNK N   1      20.447  13.717   9.900  0.00  0.00     0.038 A 
ENDBRANCH   1  12
TORSDOF 7
ENDMDL
