MODEL 1
REMARK VINA RESULT:      -6.3      0.000      0.000
REMARK  2 active torsions:
REMARK  status: ('A' for Active; 'I' for Inactive)
REMARK       I    between atoms: N_3  and  C_9 
REMARK    1  A    between atoms: N_3  and  C_11 
REMARK    2  A    between atoms: C_4  and  C_9 
ROOT
HETATM    1  O   UNK N   1      37.199  12.982  15.045  0.00  0.00    -0.271 OA
HETATM    2  N   UNK N   1      35.058  12.769  15.705  0.00  0.00    -0.324 N 
HETATM    3  C   UNK N   1      36.009  13.110  14.797  0.00  0.00     0.255 C 
HETATM    4  H   UNK N   1      34.137  12.875  15.377  0.00  0.00     0.169 HD
ENDROOT
BRANCH   2   5
HETATM    5  C   UNK N   1      35.140  12.282  17.053  0.00  0.00     0.046 A 
HETATM    6  C   UNK N   1      35.292  13.104  18.210  0.00  0.00    -0.035 A 
HETATM    7  C   UNK N   1      35.331  12.510  19.478  0.00  0.00     0.009 A 
HETATM    8  C   UNK N   1      35.355  14.588  18.172  0.00  0.00     0.050 C 
HETATM    9  C   UNK N   1      35.221  11.131  19.627  0.00  0.00     0.001 A 
HETATM   10  C   UNK N   1      35.057  10.324  18.507  0.00  0.00     0.009 A 
HETATM   11  C   UNK N   1      35.013  10.888  17.233  0.00  0.00    -0.035 A 
HETATM   12  C   UNK N   1      34.833   9.980  16.062  0.00  0.00     0.050 C 
ENDBRANCH   2   5
BRANCH   3  13
HETATM   13  C   UNK N   1      35.564  13.598  13.423  0.00  0.00     0.314 C 
HETATM   14  N   UNK N   1      35.917  12.629  12.358  0.00  0.00     0.098 N 
HETATM   15  C   UNK N   1      35.464  13.114  11.053  0.00  0.00     0.273 C 
HETATM   16  C   UNK N   1      35.190  11.381  12.545  0.00  0.00     0.310 C 
HETATM   17  C   UNK N   1      36.142  14.427  10.695  0.00  0.00     0.030 C 
HETATM   18  C   UNK N   1      35.761  15.463  11.736  0.00  0.00     0.004 C 
HETATM   19  C   UNK N   1      36.183  14.973  13.114  0.00  0.00     0.046 C 
ENDBRANCH   3  13
TORSDOF 2
ENDMDL
MODEL 2
REMARK VINA RESULT:      -6.3      0.420      2.081
REMARK  2 active torsions:
REMARK  status: ('A' for Active; 'I' for Inactive)
REMARK       I    between atoms: N_3  and  C_9 
REMARK    1  A    between atoms: N_3  and  C_11 
REMARK    2  A    between atoms: C_4  and  C_9 
ROOT
HETATM    1  O   UNK N   1      37.067  12.266  15.054  0.00  0.00    -0.271 OA
HETATM    2  N   UNK N   1      35.022  12.563  15.946  0.00  0.00    -0.324 N 
HETATM    3  C   UNK N   1      35.929  12.698  14.943  0.00  0.00     0.255 C 
HETATM    4  H   UNK N   1      34.129  12.911  15.725  0.00  0.00     0.169 HD
ENDROOT
BRANCH   2   5
HETATM    5  C   UNK N   1      35.118  12.009  17.266  0.00  0.00     0.046 A 
HETATM    6  C   UNK N   1      35.124  10.614  17.569  0.00  0.00    -0.035 A 
HETATM    7  C   UNK N   1      35.250  10.197  18.900  0.00  0.00     0.009 A 
HETATM    8  C   UNK N   1      35.063   9.541  16.542  0.00  0.00     0.050 C 
HETATM    9  C   UNK N   1      35.372  11.122  19.933  0.00  0.00     0.001 A 
HETATM   10  C   UNK N   1      35.382  12.483  19.646  0.00  0.00     0.009 A 
HETATM   11  C   UNK N   1      35.260  12.926  18.330  0.00  0.00    -0.035 A 
HETATM   12  C   UNK N   1      35.280  14.396  18.073  0.00  0.00     0.050 C 
ENDBRANCH   2   5
BRANCH   3  13
HETATM   13  C   UNK N   1      35.482  13.346  13.638  0.00  0.00     0.314 C 
HETATM   14  N   UNK N   1      35.616  12.414  12.492  0.00  0.00     0.098 N 
HETATM   15  C   UNK N   1      35.165  13.056  11.255  0.00  0.00     0.273 C 
HETATM   16  C   UNK N   1      34.719  11.279  12.652  0.00  0.00     0.310 C 
HETATM   17  C   UNK N   1      36.014  14.274  10.933  0.00  0.00     0.030 C 
HETATM   18  C   UNK N   1      35.862  15.278  12.061  0.00  0.00     0.004 C 
HETATM   19  C   UNK N   1      36.286  14.632  13.372  0.00  0.00     0.046 C 
ENDBRANCH   3  13
TORSDOF 2
ENDMDL
MODEL 3
REMARK VINA RESULT:      -6.2      1.931      3.466
REMARK  2 active torsions:
REMARK  status: ('A' for Active; 'I' for Inactive)
REMARK       I    between atoms: N_3  and  C_9 
REMARK    1  A    between atoms: N_3  and  C_11 
REMARK    2  A    between atoms: C_4  and  C_9 
ROOT
HETATM    1  O   UNK N   1      34.897  13.588  13.055  0.00  0.00    -0.271 OA
HETATM    2  N   UNK N   1      36.738  13.625  14.349  0.00  0.00    -0.324 N 
HETATM    3  C   UNK N   1      36.116  13.563  13.142  0.00  0.00     0.255 C 
HETATM    4  H   UNK N   1      37.721  13.641  14.290  0.00  0.00     0.169 HD
ENDROOT
BRANCH   2   5
HETATM    5  C   UNK N   1      36.237  13.671  15.692  0.00  0.00     0.046 A 
HETATM    6  C   UNK N   1      35.454  12.648  16.308  0.00  0.00    -0.035 A 
HETATM    7  C   UNK N   1      35.047  12.798  17.639  0.00  0.00     0.009 A 
HETATM    8  C   UNK N   1      35.078  11.375  15.640  0.00  0.00     0.050 C 
HETATM    9  C   UNK N   1      35.397  13.928  18.374  0.00  0.00     0.001 A 
HETATM   10  C   UNK N   1      36.172  14.922  17.788  0.00  0.00     0.009 A 
HETATM   11  C   UNK N   1      36.593  14.798  16.463  0.00  0.00    -0.035 A 
HETATM   12  C   UNK N   1      37.426  15.891  15.881  0.00  0.00     0.050 C 
ENDBRANCH   2   5
BRANCH   3  13
HETATM   13  C   UNK N   1      36.972  13.530  11.881  0.00  0.00     0.314 C 
HETATM   14  N   UNK N   1      36.344  14.291  10.774  0.00  0.00     0.098 N 
HETATM   15  C   UNK N   1      37.194  14.256   9.582  0.00  0.00     0.273 C 
HETATM   16  C   UNK N   1      36.263  15.705  11.111  0.00  0.00     0.310 C 
HETATM   17  C   UNK N   1      37.378  12.832   9.086  0.00  0.00     0.030 C 
HETATM   18  C   UNK N   1      38.068  12.030  10.175  0.00  0.00     0.004 C 
HETATM   19  C   UNK N   1      37.230  12.076  11.445  0.00  0.00     0.046 C 
ENDBRANCH   3  13
TORSDOF 2
ENDMDL
MODEL 4
REMARK VINA RESULT:      -5.9     21.726     24.483
REMARK  2 active torsions:
REMARK  status: ('A' for Active; 'I' for Inactive)
REMARK       I    between atoms: N_3  and  C_9 
REMARK    1  A    between atoms: N_3  and  C_11 
REMARK    2  A    between atoms: C_4  and  C_9 
ROOT
HETATM    1  O   UNK N   1      29.180  25.333  -5.414  0.00  0.00    -0.271 OA
HETATM    2  N   UNK N   1      28.317  23.494  -4.445  0.00  0.00    -0.324 N 
HETATM    3  C   UNK N   1      28.248  24.794  -4.834  0.00  0.00     0.255 C 
HETATM    4  H   UNK N   1      27.492  23.159  -4.027  0.00  0.00     0.169 HD
ENDROOT
BRANCH   2   5
HETATM    5  C   UNK N   1      29.364  22.516  -4.525  0.00  0.00     0.046 A 
HETATM    6  C   UNK N   1      29.708  21.782  -5.701  0.00  0.00    -0.035 A 
HETATM    7  C   UNK N   1      30.772  20.873  -5.660  0.00  0.00     0.009 A 
HETATM    8  C   UNK N   1      29.041  21.962  -7.016  0.00  0.00     0.050 C 
HETATM    9  C   UNK N   1      31.501  20.673  -4.490  0.00  0.00     0.001 A 
HETATM   10  C   UNK N   1      31.182  21.394  -3.345  0.00  0.00     0.009 A 
HETATM   11  C   UNK N   1      30.129  22.308  -3.358  0.00  0.00    -0.035 A 
HETATM   12  C   UNK N   1      29.829  23.059  -2.104  0.00  0.00     0.050 C 
ENDBRANCH   2   5
BRANCH   3  13
HETATM   13  C   UNK N   1      26.952  25.559  -4.594  0.00  0.00     0.314 C 
HETATM   14  N   UNK N   1      26.337  26.006  -5.868  0.00  0.00     0.098 N 
HETATM   15  C   UNK N   1      25.087  26.723  -5.609  0.00  0.00     0.273 C 
HETATM   16  C   UNK N   1      25.930  24.858  -6.665  0.00  0.00     0.310 C 
HETATM   17  C   UNK N   1      25.337  27.972  -4.780  0.00  0.00     0.030 C 
HETATM   18  C   UNK N   1      25.920  27.552  -3.443  0.00  0.00     0.004 C 
HETATM   19  C   UNK N   1      27.204  26.769  -3.675  0.00  0.00     0.046 C 
ENDBRANCH   3  13
TORSDOF 2
ENDMDL
MODEL 5
REMARK VINA RESULT:      -5.7     10.370     13.952
REMARK  2 active torsions:
REMARK  status: ('A' for Active; 'I' for Inactive)
REMARK       I    between atoms: N_3  and  C_9 
REMARK    1  A    between atoms: N_3  and  C_11 
REMARK    2  A    between atoms: C_4  and  C_9 
ROOT
HETATM    1  O   UNK N   1      27.675  16.815   7.208  0.00  0.00    -0.271 OA
HETATM    2  N   UNK N   1      28.542  18.254   5.710  0.00  0.00    -0.324 N 
HETATM    3  C   UNK N   1      28.655  17.383   6.747  0.00  0.00     0.255 C 
HETATM    4  H   UNK N   1      29.402  18.615   5.398  0.00  0.00     0.169 HD
ENDROOT
BRANCH   2   5
HETATM    5  C   UNK N   1      27.408  18.748   4.983  0.00  0.00     0.046 A 
HETATM    6  C   UNK N   1      26.691  18.015   3.989  0.00  0.00    -0.035 A 
HETATM    7  C   UNK N   1      25.581  18.599   3.368  0.00  0.00     0.009 A 
HETATM    8  C   UNK N   1      27.011  16.618   3.596  0.00  0.00     0.050 C 
HETATM    9  C   UNK N   1      25.161  19.883   3.706  0.00  0.00     0.001 A 
HETATM   10  C   UNK N   1      25.844  20.598   4.684  0.00  0.00     0.009 A 
HETATM   11  C   UNK N   1      26.953  20.041   5.320  0.00  0.00    -0.035 A 
HETATM   12  C   UNK N   1      27.649  20.848   6.365  0.00  0.00     0.050 C 
ENDBRANCH   2   5
BRANCH   3  13
HETATM   13  C   UNK N   1      30.045  17.071   7.289  0.00  0.00     0.314 C 
HETATM   14  N   UNK N   1      30.568  18.182   8.122  0.00  0.00     0.098 N 
HETATM   15  C   UNK N   1      31.896  17.850   8.642  0.00  0.00     0.273 C 
HETATM   16  C   UNK N   1      29.751  18.351   9.315  0.00  0.00     0.310 C 
HETATM   17  C   UNK N   1      32.888  17.644   7.510  0.00  0.00     0.030 C 
HETATM   18  C   UNK N   1      32.415  16.478   6.662  0.00  0.00     0.004 C 
HETATM   19  C   UNK N   1      31.018  16.772   6.134  0.00  0.00     0.046 C 
ENDBRANCH   3  13
TORSDOF 2
ENDMDL
MODEL 6
REMARK VINA RESULT:      -5.6     10.129     13.571
REMARK  2 active torsions:
REMARK  status: ('A' for Active; 'I' for Inactive)
REMARK       I    between atoms: N_3  and  C_9 
REMARK    1  A    between atoms: N_3  and  C_11 
REMARK    2  A    between atoms: C_4  and  C_9 
ROOT
HETATM    1  O   UNK N   1      28.295  17.123   7.312  0.00  0.00    -0.271 OA
HETATM    2  N   UNK N   1      28.882  18.288   5.477  0.00  0.00    -0.324 N 
HETATM    3  C   UNK N   1      29.176  17.546   6.577  0.00  0.00     0.255 C 
HETATM    4  H   UNK N   1      29.670  18.534   4.941  0.00  0.00     0.169 HD
ENDROOT
BRANCH   2   5
HETATM    5  C   UNK N   1      27.644  18.781   4.948  0.00  0.00     0.046 A 
HETATM    6  C   UNK N   1      27.042  20.026   5.302  0.00  0.00    -0.035 A 
HETATM    7  C   UNK N   1      25.841  20.410   4.693  0.00  0.00     0.009 A 
HETATM    8  C   UNK N   1      27.643  20.998   6.252  0.00  0.00     0.050 C 
HETATM    9  C   UNK N   1      25.226  19.598   3.745  0.00  0.00     0.001 A 
HETATM   10  C   UNK N   1      25.812  18.390   3.383  0.00  0.00     0.009 A 
HETATM   11  C   UNK N   1      27.009  17.984   3.972  0.00  0.00    -0.035 A 
HETATM   12  C   UNK N   1      27.600  16.681   3.547  0.00  0.00     0.050 C 
ENDBRANCH   2   5
BRANCH   3  13
HETATM   13  C   UNK N   1      30.633  17.188   6.848  0.00  0.00     0.314 C 
HETATM   14  N   UNK N   1      30.840  15.720   6.876  0.00  0.00     0.098 N 
HETATM   15  C   UNK N   1      32.248  15.405   7.122  0.00  0.00     0.273 C 
HETATM   16  C   UNK N   1      30.569  15.144   5.567  0.00  0.00     0.310 C 
HETATM   17  C   UNK N   1      32.698  15.938   8.472  0.00  0.00     0.030 C 
HETATM   18  C   UNK N   1      32.551  17.449   8.465  0.00  0.00     0.004 C 
HETATM   19  C   UNK N   1      31.103  17.815   8.174  0.00  0.00     0.046 C 
ENDBRANCH   3  13
TORSDOF 2
ENDMDL
MODEL 7
REMARK VINA RESULT:      -5.6      2.033      3.401
REMARK  2 active torsions:
REMARK  status: ('A' for Active; 'I' for Inactive)
REMARK       I    between atoms: N_3  and  C_9 
REMARK    1  A    between atoms: N_3  and  C_11 
REMARK    2  A    between atoms: C_4  and  C_9 
ROOT
HETATM    1  O   UNK N   1      36.917  12.636  11.785  0.00  0.00    -0.271 OA
HETATM    2  N   UNK N   1      34.912  12.800  12.796  0.00  0.00    -0.324 N 
HETATM    3  C   UNK N   1      35.760  13.030  11.759  0.00  0.00     0.255 C 
HETATM    4  H   UNK N   1      33.997  13.126  12.642  0.00  0.00     0.169 HD
ENDROOT
BRANCH   2   5
HETATM    5  C   UNK N   1      35.097  12.173  14.073  0.00  0.00     0.046 A 
HETATM    6  C   UNK N   1      35.828  12.735  15.162  0.00  0.00    -0.035 A 
HETATM    7  C   UNK N   1      35.913  12.035  16.372  0.00  0.00     0.009 A 
HETATM    8  C   UNK N   1      36.474  14.073  15.125  0.00  0.00     0.050 C 
HETATM    9  C   UNK N   1      35.293  10.799  16.530  0.00  0.00     0.001 A 
HETATM   10  C   UNK N   1      34.566  10.249  15.480  0.00  0.00     0.009 A 
HETATM   11  C   UNK N   1      34.463  10.926  14.264  0.00  0.00    -0.035 A 
HETATM   12  C   UNK N   1      33.669  10.296  13.169  0.00  0.00     0.050 C 
ENDBRANCH   2   5
BRANCH   3  13
HETATM   13  C   UNK N   1      35.221  13.737  10.520  0.00  0.00     0.314 C 
HETATM   14  N   UNK N   1      34.612  15.046  10.859  0.00  0.00     0.098 N 
HETATM   15  C   UNK N   1      34.118  15.709   9.651  0.00  0.00     0.273 C 
HETATM   16  C   UNK N   1      35.622  15.957  11.377  0.00  0.00     0.310 C 
HETATM   17  C   UNK N   1      33.035  14.881   8.979  0.00  0.00     0.030 C 
HETATM   18  C   UNK N   1      33.634  13.548   8.568  0.00  0.00     0.004 C 
HETATM   19  C   UNK N   1      34.194  12.846   9.797  0.00  0.00     0.046 C 
ENDBRANCH   3  13
TORSDOF 2
ENDMDL
MODEL 8
REMARK VINA RESULT:      -5.5     14.526     15.724
REMARK  2 active torsions:
REMARK  status: ('A' for Active; 'I' for Inactive)
REMARK       I    between atoms: N_3  and  C_9 
REMARK    1  A    between atoms: N_3  and  C_11 
REMARK    2  A    between atoms: C_4  and  C_9 
ROOT
HETATM    1  O   UNK N   1      22.215  13.746   6.267  0.00  0.00    -0.271 OA
HETATM    2  N   UNK N   1      22.278  14.778   8.266  0.00  0.00    -0.324 N 
HETATM    3  C   UNK N   1      22.195  14.786   6.910  0.00  0.00     0.255 C 
HETATM    4  H   UNK N   1      22.208  15.671   8.674  0.00  0.00     0.169 HD
ENDROOT
BRANCH   2   5
HETATM    5  C   UNK N   1      22.447  13.718   9.217  0.00  0.00     0.046 A 
HETATM    6  C   UNK N   1      23.669  13.017   9.452  0.00  0.00    -0.035 A 
HETATM    7  C   UNK N   1      23.714  12.017  10.431  0.00  0.00     0.009 A 
HETATM    8  C   UNK N   1      24.946  13.321   8.756  0.00  0.00     0.050 C 
HETATM    9  C   UNK N   1      22.587  11.696  11.181  0.00  0.00     0.001 A 
HETATM   10  C   UNK N   1      21.396  12.382  10.970  0.00  0.00     0.009 A 
HETATM   11  C   UNK N   1      21.323  13.385  10.003  0.00  0.00    -0.035 A 
HETATM   12  C   UNK N   1      20.023  14.095   9.817  0.00  0.00     0.050 C 
ENDBRANCH   2   5
BRANCH   3  13
HETATM   13  C   UNK N   1      22.009  16.121   6.198  0.00  0.00     0.314 C 
HETATM   14  N   UNK N   1      20.865  16.082   5.254  0.00  0.00     0.098 N 
HETATM   15  C   UNK N   1      20.699  17.379   4.597  0.00  0.00     0.273 C 
HETATM   16  C   UNK N   1      19.616  15.887   5.978  0.00  0.00     0.310 C 
HETATM   17  C   UNK N   1      21.929  17.738   3.781  0.00  0.00     0.030 C 
HETATM   18  C   UNK N   1      23.117  17.839   4.721  0.00  0.00     0.004 C 
HETATM   19  C   UNK N   1      23.296  16.517   5.452  0.00  0.00     0.046 C 
ENDBRANCH   3  13
TORSDOF 2
ENDMDL
MODEL 9
REMARK VINA RESULT:      -5.5      9.704     12.546
REMARK  2 active torsions:
REMARK  status: ('A' for Active; 'I' for Inactive)
REMARK       I    between atoms: N_3  and  C_9 
REMARK    1  A    between atoms: N_3  and  C_11 
REMARK    2  A    between atoms: C_4  and  C_9 
ROOT
HETATM    1  O   UNK N   1      27.521  16.599   7.421  0.00  0.00    -0.271 OA
HETATM    2  N   UNK N   1      29.379  17.383   6.421  0.00  0.00    -0.324 N 
HETATM    3  C   UNK N   1      28.036  17.371   6.625  0.00  0.00     0.255 C 
HETATM    4  H   UNK N   1      29.680  18.075   5.790  0.00  0.00     0.169 HD
ENDROOT
BRANCH   2   5
HETATM    5  C   UNK N   1      30.443  16.578   6.948  0.00  0.00     0.046 A 
HETATM    6  C   UNK N   1      30.925  15.370   6.358  0.00  0.00    -0.035 A 
HETATM    7  C   UNK N   1      31.991  14.688   6.955  0.00  0.00     0.009 A 
HETATM    8  C   UNK N   1      30.401  14.801   5.089  0.00  0.00     0.050 C 
HETATM    9  C   UNK N   1      32.592  15.169   8.115  0.00  0.00     0.001 A 
HETATM   10  C   UNK N   1      32.139  16.352   8.689  0.00  0.00     0.009 A 
HETATM   11  C   UNK N   1      31.080  17.054   8.114  0.00  0.00    -0.035 A 
HETATM   12  C   UNK N   1      30.633  18.320   8.766  0.00  0.00     0.050 C 
ENDBRANCH   2   5
BRANCH   3  13
HETATM   13  C   UNK N   1      27.177  18.392   5.887  0.00  0.00     0.314 C 
HETATM   14  N   UNK N   1      27.190  18.161   4.422  0.00  0.00     0.098 N 
HETATM   15  C   UNK N   1      26.346  19.144   3.741  0.00  0.00     0.273 C 
HETATM   16  C   UNK N   1      26.571  16.881   4.105  0.00  0.00     0.310 C 
HETATM   17  C   UNK N   1      26.863  20.555   3.967  0.00  0.00     0.030 C 
HETATM   18  C   UNK N   1      26.817  20.851   5.455  0.00  0.00     0.004 C 
HETATM   19  C   UNK N   1      27.654  19.822   6.201  0.00  0.00     0.046 C 
ENDBRANCH   3  13
TORSDOF 2
ENDMDL
