MODEL 1
REMARK VINA RESULT:      -7.1      0.000      0.000
REMARK  3 active torsions:
REMARK  status: ('A' for Active; 'I' for Inactive)
REMARK    1  A    between atoms: N_2  and  C_10 
REMARK    2  A    between atoms: N_2  and  C_13 
REMARK       I    between atoms: N_2  and  C_19 
REMARK    3  A    between atoms: C_9  and  C_11 
ROOT
HETATM    1  N   UNK N   1      35.893  13.384  14.274  0.00  0.00    -0.238 N 
HETATM    2  N   UNK N   1      36.754  14.363  14.528  0.00  0.00    -0.302 N 
ATOM      3  HN  UNK N   1      37.322  14.851  13.836  1.00  0.00     0.186 HD
HETATM    4  N   UNK N   1      34.403  12.020  15.472  0.00  0.00    -0.349 N 
ATOM      5  HN  UNK N   1      33.986  11.742  16.361  1.00  0.00     0.166 HD
HETATM    6  N   UNK N   1      35.216  13.589  18.997  0.00  0.00    -0.191 NA
HETATM    7  C   UNK N   1      35.604  12.790  13.058  0.00  0.00     0.070 A 
HETATM    8  C   UNK N   1      35.324  13.002  15.421  0.00  0.00     0.149 A 
HETATM    9  C   UNK N   1      34.633  11.770  13.072  0.00  0.00     0.049 A 
HETATM   10  C   UNK N   1      35.832  13.739  16.460  0.00  0.00     0.107 A 
HETATM   11  C   UNK N   1      34.039  11.404  14.310  0.00  0.00     0.092 A 
HETATM   12  C   UNK N   1      36.751  14.608  15.866  0.00  0.00     0.134 A 
HETATM   13  C   UNK N   1      35.474  13.636  17.866  0.00  0.00     0.105 C 
ENDROOT
BRANCH   7  14
HETATM   14  C   UNK N   1      36.359  13.194  11.805  0.00  0.00    -0.005 A 
HETATM   15  C   UNK N   1      35.668  14.023  10.961  0.00  0.00     0.043 A 
HETATM   16  C   UNK N   1      36.121  14.513   9.756  0.00  0.00     0.038 A 
HETATM   17  C   UNK N   1      37.410  14.139   9.336  0.00  0.00     0.030 A 
HETATM   18  C   UNK N   1      38.198  13.326  10.187  0.00  0.00     0.003 A 
HETATM   19  C   UNK N   1      37.683  12.857  11.432  0.00  0.00     0.014 A 
BRANCH  16  20
HETATM   20  N   UNK N   1      35.259  15.439   9.069  0.00  0.00    -0.319 N 
HETATM   21  C   UNK N   1      35.011  16.723   9.480  0.00  0.00     0.220 C 
HETATM   22  O   UNK N   1      35.588  17.191  10.448  0.00  0.00    -0.273 OA
HETATM   23  C   UNK N   1      34.052  17.606   8.713  0.00  0.00     0.117 C 
BRANCH  20  24
HETATM   24  C   UNK N   1      34.620  14.953   7.855  0.00  0.00     0.128 C 
HETATM   25  C   UNK N   1      33.495  13.994   8.194  0.00  0.00     0.027 C 
ENDBRANCH  20  24
ENDBRANCH  16  20
ENDBRANCH   7  14
TORSDOF 3
ENDMDL
MODEL 2
REMARK VINA RESULT:      -7.0      5.026      9.228
REMARK  3 active torsions:
REMARK  status: ('A' for Active; 'I' for Inactive)
REMARK    1  A    between atoms: N_2  and  C_10 
REMARK    2  A    between atoms: N_2  and  C_13 
REMARK       I    between atoms: N_2  and  C_19 
REMARK    3  A    between atoms: C_9  and  C_11 
ROOT
HETATM    1  N   UNK N   1      29.267  16.673   6.870  0.00  0.00    -0.238 N 
HETATM    2  N   UNK N   1      29.457  15.752   5.931  0.00  0.00    -0.302 N 
ATOM      3  HN  UNK N   1      30.361  15.399   5.619  1.00  0.00     0.186 HD
HETATM    4  N   UNK N   1      27.458  17.751   7.909  0.00  0.00    -0.349 N 
ATOM      5  HN  UNK N   1      26.451  17.887   8.002  1.00  0.00     0.166 HD
HETATM    6  N   UNK N   1      24.671  15.869   5.851  0.00  0.00    -0.191 NA
HETATM    7  C   UNK N   1      30.219  17.373   7.589  0.00  0.00     0.070 A 
HETATM    8  C   UNK N   1      27.953  16.868   7.020  0.00  0.00     0.149 A 
HETATM    9  C   UNK N   1      29.734  18.294   8.540  0.00  0.00     0.049 A 
HETATM   10  C   UNK N   1      27.261  16.066   6.150  0.00  0.00     0.107 A 
HETATM   11  C   UNK N   1      28.331  18.461   8.681  0.00  0.00     0.092 A 
HETATM   12  C   UNK N   1      28.245  15.357   5.458  0.00  0.00     0.134 A 
HETATM   13  C   UNK N   1      25.817  15.975   6.001  0.00  0.00     0.105 C 
ENDROOT
BRANCH   7  14
HETATM   14  C   UNK N   1      31.695  17.184   7.301  0.00  0.00    -0.005 A 
HETATM   15  C   UNK N   1      32.428  16.698   8.352  0.00  0.00     0.043 A 
HETATM   16  C   UNK N   1      33.785  16.459   8.352  0.00  0.00     0.038 A 
HETATM   17  C   UNK N   1      34.502  16.733   7.174  0.00  0.00     0.030 A 
HETATM   18  C   UNK N   1      33.796  17.187   6.032  0.00  0.00     0.003 A 
HETATM   19  C   UNK N   1      32.387  17.405   6.085  0.00  0.00     0.014 A 
BRANCH  16  20
HETATM   20  N   UNK N   1      34.337  15.867   9.542  0.00  0.00    -0.319 N 
HETATM   21  C   UNK N   1      35.221  16.491  10.384  0.00  0.00     0.220 C 
HETATM   22  O   UNK N   1      35.544  17.652  10.199  0.00  0.00    -0.273 OA
HETATM   23  C   UNK N   1      35.780  15.767  11.589  0.00  0.00     0.117 C 
BRANCH  20  24
HETATM   24  C   UNK N   1      33.906  14.512   9.853  0.00  0.00     0.128 C 
HETATM   25  C   UNK N   1      34.502  13.526   8.866  0.00  0.00     0.027 C 
ENDBRANCH  20  24
ENDBRANCH  16  20
ENDBRANCH   7  14
TORSDOF 3
ENDMDL
MODEL 3
REMARK VINA RESULT:      -7.0      7.635     11.812
REMARK  3 active torsions:
REMARK  status: ('A' for Active; 'I' for Inactive)
REMARK    1  A    between atoms: N_2  and  C_10 
REMARK    2  A    between atoms: N_2  and  C_13 
REMARK       I    between atoms: N_2  and  C_19 
REMARK    3  A    between atoms: C_9  and  C_11 
ROOT
HETATM    1  N   UNK N   1      27.225  18.774   5.539  0.00  0.00    -0.238 N 
HETATM    2  N   UNK N   1      27.762  19.985   5.438  0.00  0.00    -0.302 N 
ATOM      3  HN  UNK N   1      28.634  20.287   5.872  1.00  0.00     0.186 HD
HETATM    4  N   UNK N   1      25.330  17.638   4.742  0.00  0.00    -0.349 N 
ATOM      5  HN  UNK N   1      24.468  17.640   4.197  1.00  0.00     0.166 HD
HETATM    6  N   UNK N   1      23.887  20.697   2.717  0.00  0.00    -0.191 NA
HETATM    7  C   UNK N   1      27.687  17.689   6.262  0.00  0.00     0.070 A 
HETATM    8  C   UNK N   1      26.094  18.744   4.827  0.00  0.00     0.149 A 
HETATM    9  C   UNK N   1      26.920  16.509   6.183  0.00  0.00     0.049 A 
HETATM   10  C   UNK N   1      25.873  19.970   4.254  0.00  0.00     0.107 A 
HETATM   11  C   UNK N   1      25.733  16.513   5.403  0.00  0.00     0.092 A 
HETATM   12  C   UNK N   1      26.955  20.755   4.660  0.00  0.00     0.134 A 
HETATM   13  C   UNK N   1      24.758  20.351   3.402  0.00  0.00     0.105 C 
ENDROOT
BRANCH   7  14
HETATM   14  C   UNK N   1      28.920  17.814   7.136  0.00  0.00    -0.005 A 
HETATM   15  C   UNK N   1      30.035  17.180   6.651  0.00  0.00     0.043 A 
HETATM   16  C   UNK N   1      31.268  17.128   7.262  0.00  0.00     0.038 A 
HETATM   17  C   UNK N   1      31.417  17.778   8.500  0.00  0.00     0.030 A 
HETATM   18  C   UNK N   1      30.319  18.498   9.032  0.00  0.00     0.003 A 
HETATM   19  C   UNK N   1      29.067  18.529   8.349  0.00  0.00     0.014 A 
BRANCH  16  20
HETATM   20  N   UNK N   1      32.324  16.476   6.532  0.00  0.00    -0.319 N 
HETATM   21  C   UNK N   1      32.526  15.120   6.501  0.00  0.00     0.220 C 
HETATM   22  O   UNK N   1      31.748  14.361   7.053  0.00  0.00    -0.273 OA
HETATM   23  C   UNK N   1      33.693  14.533   5.739  0.00  0.00     0.117 C 
BRANCH  20  24
HETATM   24  C   UNK N   1      33.223  17.340   5.781  0.00  0.00     0.128 C 
HETATM   25  C   UNK N   1      32.654  17.629   4.406  0.00  0.00     0.027 C 
ENDBRANCH  20  24
ENDBRANCH  16  20
ENDBRANCH   7  14
TORSDOF 3
ENDMDL
MODEL 4
REMARK VINA RESULT:      -6.7     18.537     21.823
REMARK  3 active torsions:
REMARK  status: ('A' for Active; 'I' for Inactive)
REMARK    1  A    between atoms: N_2  and  C_10 
REMARK    2  A    between atoms: N_2  and  C_13 
REMARK       I    between atoms: N_2  and  C_19 
REMARK    3  A    between atoms: C_9  and  C_11 
ROOT
HETATM    1  N   UNK N   1      29.671  22.615  -4.833  0.00  0.00    -0.238 N 
HETATM    2  N   UNK N   1      29.595  22.352  -6.133  0.00  0.00    -0.302 N 
ATOM      3  HN  UNK N   1      28.945  22.783  -6.790  1.00  0.00     0.186 HD
HETATM    4  N   UNK N   1      30.956  21.930  -2.990  0.00  0.00    -0.349 N 
ATOM      5  HN  UNK N   1      31.702  21.350  -2.605  1.00  0.00     0.166 HD
HETATM    6  N   UNK N   1      33.185  19.386  -5.016  0.00  0.00    -0.191 NA
HETATM    7  C   UNK N   1      28.889  23.478  -4.086  0.00  0.00     0.070 A 
HETATM    8  C   UNK N   1      30.647  21.873  -4.300  0.00  0.00     0.149 A 
HETATM    9  C   UNK N   1      29.196  23.574  -2.714  0.00  0.00     0.049 A 
HETATM   10  C   UNK N   1      31.218  21.091  -5.270  0.00  0.00     0.107 A 
HETATM   11  C   UNK N   1      30.251  22.781  -2.189  0.00  0.00     0.092 A 
HETATM   12  C   UNK N   1      30.528  21.412  -6.441  0.00  0.00     0.134 A 
HETATM   13  C   UNK N   1      32.312  20.147  -5.104  0.00  0.00     0.105 C 
ENDROOT
BRANCH   7  14
HETATM   14  C   UNK N   1      27.728  24.215  -4.725  0.00  0.00    -0.005 A 
HETATM   15  C   UNK N   1      27.708  25.566  -4.494  0.00  0.00     0.043 A 
HETATM   16  C   UNK N   1      26.754  26.451  -4.945  0.00  0.00     0.038 A 
HETATM   17  C   UNK N   1      25.694  25.941  -5.715  0.00  0.00     0.030 A 
HETATM   18  C   UNK N   1      25.684  24.561  -6.036  0.00  0.00     0.003 A 
HETATM   19  C   UNK N   1      26.705  23.691  -5.553  0.00  0.00     0.014 A 
BRANCH  16  20
HETATM   20  N   UNK N   1      26.976  27.843  -4.653  0.00  0.00    -0.319 N 
HETATM   21  C   UNK N   1      26.238  28.578  -3.761  0.00  0.00     0.220 C 
HETATM   22  O   UNK N   1      25.368  28.052  -3.088  0.00  0.00    -0.273 OA
HETATM   23  C   UNK N   1      26.521  30.050  -3.556  0.00  0.00     0.117 C 
BRANCH  20  24
HETATM   24  C   UNK N   1      28.067  28.490  -5.366  0.00  0.00     0.128 C 
HETATM   25  C   UNK N   1      27.757  28.575  -6.848  0.00  0.00     0.027 C 
ENDBRANCH  20  24
ENDBRANCH  16  20
ENDBRANCH   7  14
TORSDOF 3
ENDMDL
MODEL 5
REMARK VINA RESULT:      -6.6     11.791     15.369
REMARK  3 active torsions:
REMARK  status: ('A' for Active; 'I' for Inactive)
REMARK    1  A    between atoms: N_2  and  C_10 
REMARK    2  A    between atoms: N_2  and  C_13 
REMARK       I    between atoms: N_2  and  C_19 
REMARK    3  A    between atoms: C_9  and  C_11 
ROOT
HETATM    1  N   UNK N   1      26.417  18.156   3.665  0.00  0.00    -0.238 N 
HETATM    2  N   UNK N   1      25.951  17.046   3.104  0.00  0.00    -0.302 N 
ATOM      3  HN  UNK N   1      24.986  16.885   2.815  1.00  0.00     0.186 HD
HETATM    4  N   UNK N   1      28.471  18.978   4.454  0.00  0.00    -0.349 N 
ATOM      5  HN  UNK N   1      29.468  18.839   4.621  1.00  0.00     0.166 HD
HETATM    6  N   UNK N   1      30.531  15.732   3.579  0.00  0.00    -0.191 NA
HETATM    7  C   UNK N   1      25.720  19.299   4.013  0.00  0.00     0.070 A 
HETATM    8  C   UNK N   1      27.726  18.007   3.891  0.00  0.00     0.149 A 
HETATM    9  C   UNK N   1      26.472  20.341   4.590  0.00  0.00     0.049 A 
HETATM   10  C   UNK N   1      28.129  16.763   3.480  0.00  0.00     0.107 A 
HETATM   11  C   UNK N   1      27.864  20.150   4.798  0.00  0.00     0.092 A 
HETATM   12  C   UNK N   1      26.974  16.159   2.979  0.00  0.00     0.134 A 
HETATM   13  C   UNK N   1      29.473  16.210   3.547  0.00  0.00     0.105 C 
ENDROOT
BRANCH   7  14
HETATM   14  C   UNK N   1      24.216  19.370   3.829  0.00  0.00    -0.005 A 
HETATM   15  C   UNK N   1      23.503  18.473   4.580  0.00  0.00     0.043 A 
HETATM   16  C   UNK N   1      22.133  18.323   4.579  0.00  0.00     0.038 A 
HETATM   17  C   UNK N   1      21.380  19.159   3.736  0.00  0.00     0.030 A 
HETATM   18  C   UNK N   1      22.052  20.145   2.971  0.00  0.00     0.003 A 
HETATM   19  C   UNK N   1      23.472  20.265   3.021  0.00  0.00     0.014 A 
BRANCH  16  20
HETATM   20  N   UNK N   1      21.587  17.373   5.512  0.00  0.00    -0.319 N 
HETATM   21  C   UNK N   1      21.071  17.696   6.741  0.00  0.00     0.220 C 
HETATM   22  O   UNK N   1      20.979  18.860   7.092  0.00  0.00    -0.273 OA
HETATM   23  C   UNK N   1      20.560  16.618   7.670  0.00  0.00     0.117 C 
BRANCH  20  24
HETATM   24  C   UNK N   1      21.591  15.978   5.095  0.00  0.00     0.128 C 
HETATM   25  C   UNK N   1      20.479  15.719   4.097  0.00  0.00     0.027 C 
ENDBRANCH  20  24
ENDBRANCH  16  20
ENDBRANCH   7  14
TORSDOF 3
ENDMDL
MODEL 6
REMARK VINA RESULT:      -6.3      6.929     11.235
REMARK  3 active torsions:
REMARK  status: ('A' for Active; 'I' for Inactive)
REMARK    1  A    between atoms: N_2  and  C_10 
REMARK    2  A    between atoms: N_2  and  C_13 
REMARK       I    between atoms: N_2  and  C_19 
REMARK    3  A    between atoms: C_9  and  C_11 
ROOT
HETATM    1  N   UNK N   1      26.928  17.001   6.112  0.00  0.00    -0.238 N 
HETATM    2  N   UNK N   1      26.715  16.112   7.076  0.00  0.00    -0.302 N 
ATOM      3  HN  UNK N   1      27.288  15.990   7.911  1.00  0.00     0.186 HD
HETATM    4  N   UNK N   1      25.923  17.654   4.092  0.00  0.00    -0.349 N 
ATOM      5  HN  UNK N   1      25.181  17.537   3.401  1.00  0.00     0.166 HD
HETATM    6  N   UNK N   1      22.979  15.038   4.279  0.00  0.00    -0.191 NA
HETATM    7  C   UNK N   1      27.963  17.912   6.000  0.00  0.00     0.070 A 
HETATM    8  C   UNK N   1      25.966  16.877   5.192  0.00  0.00     0.149 A 
HETATM    9  C   UNK N   1      27.940  18.751   4.868  0.00  0.00     0.049 A 
HETATM   10  C   UNK N   1      25.106  15.872   5.552  0.00  0.00     0.107 A 
HETATM   11  C   UNK N   1      26.892  18.599   3.922  0.00  0.00     0.092 A 
HETATM   12  C   UNK N   1      25.604  15.391   6.765  0.00  0.00     0.134 A 
HETATM   13  C   UNK N   1      23.928  15.425   4.825  0.00  0.00     0.105 C 
ENDROOT
BRANCH   7  14
HETATM   14  C   UNK N   1      29.083  17.934   7.022  0.00  0.00    -0.005 A 
HETATM   15  C   UNK N   1      30.176  17.175   6.694  0.00  0.00     0.043 A 
HETATM   16  C   UNK N   1      31.310  17.014   7.459  0.00  0.00     0.038 A 
HETATM   17  C   UNK N   1      31.371  17.682   8.695  0.00  0.00     0.030 A 
HETATM   18  C   UNK N   1      30.297  18.526   9.070  0.00  0.00     0.003 A 
HETATM   19  C   UNK N   1      29.152  18.667   8.232  0.00  0.00     0.014 A 
BRANCH  16  20
HETATM   20  N   UNK N   1      32.374  16.235   6.881  0.00  0.00    -0.319 N 
HETATM   21  C   UNK N   1      33.495  16.762   6.295  0.00  0.00     0.220 C 
HETATM   22  O   UNK N   1      33.692  17.966   6.298  0.00  0.00    -0.273 OA
HETATM   23  C   UNK N   1      34.538  15.860   5.675  0.00  0.00     0.117 C 
BRANCH  20  24
HETATM   24  C   UNK N   1      32.224  14.788   6.939  0.00  0.00     0.128 C 
HETATM   25  C   UNK N   1      32.588  14.272   8.318  0.00  0.00     0.027 C 
ENDBRANCH  20  24
ENDBRANCH  16  20
ENDBRANCH   7  14
TORSDOF 3
ENDMDL
MODEL 7
REMARK VINA RESULT:      -6.2      2.074      6.507
REMARK  3 active torsions:
REMARK  status: ('A' for Active; 'I' for Inactive)
REMARK    1  A    between atoms: N_2  and  C_10 
REMARK    2  A    between atoms: N_2  and  C_13 
REMARK       I    between atoms: N_2  and  C_19 
REMARK    3  A    between atoms: C_9  and  C_11 
ROOT
HETATM    1  N   UNK N   1      34.934  14.565  10.096  0.00  0.00    -0.238 N 
HETATM    2  N   UNK N   1      35.676  15.478  10.712  0.00  0.00    -0.302 N 
ATOM      3  HN  UNK N   1      36.406  15.288  11.399  1.00  0.00     0.186 HD
HETATM    4  N   UNK N   1      33.220  14.509   8.490  0.00  0.00    -0.349 N 
ATOM      5  HN  UNK N   1      32.589  15.005   7.860  1.00  0.00     0.166 HD
HETATM    6  N   UNK N   1      33.046  18.417   7.996  0.00  0.00    -0.191 NA
HETATM    7  C   UNK N   1      34.948  13.192  10.265  0.00  0.00     0.070 A 
HETATM    8  C   UNK N   1      34.099  15.185   9.256  0.00  0.00     0.149 A 
HETATM    9  C   UNK N   1      34.052  12.453   9.468  0.00  0.00     0.049 A 
HETATM   10  C   UNK N   1      34.286  16.541   9.331  0.00  0.00     0.107 A 
HETATM   11  C   UNK N   1      33.192  13.147   8.576  0.00  0.00     0.092 A 
HETATM   12  C   UNK N   1      35.304  16.710  10.273  0.00  0.00     0.134 A 
HETATM   13  C   UNK N   1      33.582  17.566   8.578  0.00  0.00     0.105 C 
ENDROOT
BRANCH   7  14
HETATM   14  C   UNK N   1      35.844  12.554  11.309  0.00  0.00    -0.005 A 
HETATM   15  C   UNK N   1      35.410  12.693  12.601  0.00  0.00     0.043 A 
HETATM   16  C   UNK N   1      36.051  12.224  13.726  0.00  0.00     0.038 A 
HETATM   17  C   UNK N   1      37.266  11.536  13.554  0.00  0.00     0.030 A 
HETATM   18  C   UNK N   1      37.744  11.311  12.239  0.00  0.00     0.003 A 
HETATM   19  C   UNK N   1      37.031  11.808  11.108  0.00  0.00     0.014 A 
BRANCH  16  20
HETATM   20  N   UNK N   1      35.372  12.410  14.982  0.00  0.00    -0.319 N 
HETATM   21  C   UNK N   1      35.759  13.298  15.952  0.00  0.00     0.220 C 
HETATM   22  O   UNK N   1      36.693  14.059  15.764  0.00  0.00    -0.273 OA
HETATM   23  C   UNK N   1      35.004  13.389  17.259  0.00  0.00     0.117 C 
BRANCH  20  24
HETATM   24  C   UNK N   1      34.193  11.587  15.211  0.00  0.00     0.128 C 
HETATM   25  C   UNK N   1      34.591  10.140  15.429  0.00  0.00     0.027 C 
ENDBRANCH  20  24
ENDBRANCH  16  20
ENDBRANCH   7  14
TORSDOF 3
ENDMDL
MODEL 8
REMARK VINA RESULT:      -6.1      9.848     13.465
REMARK  3 active torsions:
REMARK  status: ('A' for Active; 'I' for Inactive)
REMARK    1  A    between atoms: N_2  and  C_10 
REMARK    2  A    between atoms: N_2  and  C_13 
REMARK       I    between atoms: N_2  and  C_19 
REMARK    3  A    between atoms: C_9  and  C_11 
ROOT
HETATM    1  N   UNK N   1      23.603  16.902   5.479  0.00  0.00    -0.238 N 
HETATM    2  N   UNK N   1      23.134  18.133   5.648  0.00  0.00    -0.302 N 
ATOM      3  HN  UNK N   1      23.659  18.996   5.503  1.00  0.00     0.186 HD
HETATM    4  N   UNK N   1      22.812  14.698   5.657  0.00  0.00    -0.349 N 
ATOM      5  HN  UNK N   1      22.053  14.051   5.871  1.00  0.00     0.166 HD
HETATM    6  N   UNK N   1      19.166  15.700   6.774  0.00  0.00    -0.191 NA
HETATM    7  C   UNK N   1      24.881  16.514   5.117  0.00  0.00     0.070 A 
HETATM    8  C   UNK N   1      22.626  16.029   5.746  0.00  0.00     0.149 A 
HETATM    9  C   UNK N   1      25.105  15.128   5.000  0.00  0.00     0.049 A 
HETATM   10  C   UNK N   1      21.490  16.702   6.113  0.00  0.00     0.107 A 
HETATM   11  C   UNK N   1      24.037  14.233   5.276  0.00  0.00     0.092 A 
HETATM   12  C   UNK N   1      21.836  18.053   6.045  0.00  0.00     0.134 A 
HETATM   13  C   UNK N   1      20.207  16.121   6.478  0.00  0.00     0.105 C 
ENDROOT
BRANCH   7  14
HETATM   14  C   UNK N   1      25.975  17.546   4.929  0.00  0.00    -0.005 A 
HETATM   15  C   UNK N   1      26.989  17.483   5.849  0.00  0.00     0.043 A 
HETATM   16  C   UNK N   1      28.083  18.317   5.907  0.00  0.00     0.038 A 
HETATM   17  C   UNK N   1      28.189  19.335   4.943  0.00  0.00     0.030 A 
HETATM   18  C   UNK N   1      27.201  19.422   3.930  0.00  0.00     0.003 A 
HETATM   19  C   UNK N   1      26.095  18.523   3.909  0.00  0.00     0.014 A 
BRANCH  16  20
HETATM   20  N   UNK N   1      29.072  18.017   6.910  0.00  0.00    -0.319 N 
HETATM   21  C   UNK N   1      30.119  17.150   6.736  0.00  0.00     0.220 C 
HETATM   22  O   UNK N   1      30.318  16.622   5.655  0.00  0.00    -0.273 OA
HETATM   23  C   UNK N   1      31.082  16.866   7.867  0.00  0.00     0.117 C 
BRANCH  20  24
HETATM   24  C   UNK N   1      28.927  18.697   8.189  0.00  0.00     0.128 C 
HETATM   25  C   UNK N   1      28.068  17.877   9.132  0.00  0.00     0.027 C 
ENDBRANCH  20  24
ENDBRANCH  16  20
ENDBRANCH   7  14
TORSDOF 3
ENDMDL
MODEL 9
REMARK VINA RESULT:      -6.1     11.259     13.300
REMARK  3 active torsions:
REMARK  status: ('A' for Active; 'I' for Inactive)
REMARK    1  A    between atoms: N_2  and  C_10 
REMARK    2  A    between atoms: N_2  and  C_13 
REMARK       I    between atoms: N_2  and  C_19 
REMARK    3  A    between atoms: C_9  and  C_11 
ROOT
HETATM    1  N   UNK N   1      23.214  14.969   6.795  0.00  0.00    -0.238 N 
HETATM    2  N   UNK N   1      22.340  15.844   6.308  0.00  0.00    -0.302 N 
ATOM      3  HN  UNK N   1      22.496  16.459   5.510  1.00  0.00     0.186 HD
HETATM    4  N   UNK N   1      23.310  13.383   8.525  0.00  0.00    -0.349 N 
ATOM      5  HN  UNK N   1      22.864  12.915   9.315  1.00  0.00     0.166 HD
HETATM    6  N   UNK N   1      19.663  14.066   9.858  0.00  0.00    -0.191 NA
HETATM    7  C   UNK N   1      24.508  14.725   6.372  0.00  0.00     0.070 A 
HETATM    8  C   UNK N   1      22.655  14.334   7.830  0.00  0.00     0.149 A 
HETATM    9  C   UNK N   1      25.217  13.725   7.068  0.00  0.00     0.049 A 
HETATM   10  C   UNK N   1      21.387  14.811   8.038  0.00  0.00     0.107 A 
HETATM   11  C   UNK N   1      24.582  13.061   8.151  0.00  0.00     0.092 A 
HETATM   12  C   UNK N   1      21.203  15.782   7.051  0.00  0.00     0.134 A 
HETATM   13  C   UNK N   1      20.445  14.380   9.060  0.00  0.00     0.105 C 
ENDROOT
BRANCH   7  14
HETATM   14  C   UNK N   1      25.125  15.551   5.260  0.00  0.00    -0.005 A 
HETATM   15  C   UNK N   1      25.769  16.686   5.677  0.00  0.00     0.043 A 
HETATM   16  C   UNK N   1      26.390  17.610   4.866  0.00  0.00     0.038 A 
HETATM   17  C   UNK N   1      26.371  17.386   3.478  0.00  0.00     0.030 A 
HETATM   18  C   UNK N   1      25.767  16.204   2.984  0.00  0.00     0.003 A 
HETATM   19  C   UNK N   1      25.150  15.273   3.871  0.00  0.00     0.014 A 
BRANCH  16  20
HETATM   20  N   UNK N   1      27.080  18.688   5.525  0.00  0.00    -0.319 N 
HETATM   21  C   UNK N   1      26.691  20.002   5.483  0.00  0.00     0.220 C 
HETATM   22  O   UNK N   1      25.659  20.329   4.921  0.00  0.00    -0.273 OA
HETATM   23  C   UNK N   1      27.509  21.071   6.173  0.00  0.00     0.117 C 
BRANCH  20  24
HETATM   24  C   UNK N   1      28.268  18.330   6.286  0.00  0.00     0.128 C 
HETATM   25  C   UNK N   1      29.343  17.786   5.366  0.00  0.00     0.027 C 
ENDBRANCH  20  24
ENDBRANCH  16  20
ENDBRANCH   7  14
TORSDOF 3
ENDMDL
