REMARK  6 active torsions:
REMARK  status: ('A' for Active; 'I' for Inactive)
REMARK    1  A    between atoms: O_3  and  C_17 
REMARK    2  A    between atoms: N_5  and  C_8 
REMARK    3  A    between atoms: C_6  and  C_9 
REMARK    4  A    between atoms: C_7  and  C_11 
REMARK    5  A    between atoms: C_9  and  C_17 
REMARK    6  A    between atoms: C_11  and  C_13 
ROOT
HETATM    1  C   UNK N   1       7.783   0.057   0.325  0.00  0.00    -0.021 A 
HETATM    2  C   UNK N   1       5.350   0.043   0.000  0.00  0.00     0.042 A 
HETATM    3  C   UNK N   1       6.559   0.759   0.238  0.00  0.00     0.047 A 
HETATM    4  C   UNK N   1       7.805  -1.330   0.157  0.00  0.00     0.010 A 
HETATM    5  C   UNK N   1       5.426  -1.346  -0.177  0.00  0.00     0.018 A 
HETATM    6  C   UNK N   1       6.636  -2.026  -0.111  0.00  0.00     0.002 A 
ENDROOT
BRANCH   2   7
HETATM    7  C   UNK N   1       4.003   0.725  -0.033  0.00  0.00     0.194 C 
HETATM    8  O   UNK N   1       3.954   1.945  -0.067  0.00  0.00    -0.287 OA
BRANCH   7   9
HETATM    9  C   UNK N   1       2.707  -0.031   0.030  0.00  0.00     0.015 A 
HETATM   10  C   UNK N   1       2.673  -1.426   0.182  0.00  0.00     0.017 A 
HETATM   11  C   UNK N   1       1.464  -2.111   0.295  0.00  0.00     0.020 A 
HETATM   12  C   UNK N   1       0.262  -1.408   0.264  0.00  0.00     0.011 A 
HETATM   13 Br   UNK N   1      -1.383  -2.351   0.436  0.00  0.00    -0.051 Br
HETATM   14  C   UNK N   1       0.271  -0.018   0.114  0.00  0.00     0.020 A 
HETATM   15  C   UNK N   1       1.487   0.668   0.001  0.00  0.00     0.017 A 
ENDBRANCH   7   9
ENDBRANCH   2   7
BRANCH   3  16
HETATM   16  N   UNK N   1       6.545   2.157   0.441  0.00  0.00    -0.398 N 
HETATM   17  H   UNK N   1       7.385   2.652   0.582  0.00  0.00     0.156 HD
HETATM   18  H   UNK N   1       5.688   2.641   0.441  0.00  0.00     0.156 HD
ENDBRANCH   3  16
BRANCH   1  19
HETATM   19  C   UNK N   1       9.061   0.775   0.662  0.00  0.00     0.150 C 
BRANCH  19  20
HETATM   20  C   UNK N   1      10.174   0.477  -0.298  0.00  0.00     0.143 C 
HETATM   21  O   UNK N   1      10.617  -0.657  -0.393  0.00  0.00    -0.650 OA
BRANCH  20  22
HETATM   22  O   UNK N   1      10.723   1.471  -1.018  0.00  0.00    -0.776 OA
HETATM   23  H   UNK N   1      11.514   1.487  -1.519  0.00  0.00     0.167 HD
ENDBRANCH  20  22
ENDBRANCH  19  20
ENDBRANCH   1  19
TORSDOF 6
