MODEL 1
REMARK VINA RESULT:      -6.8      0.000      0.000
REMARK  6 active torsions:
REMARK  status: ('A' for Active; 'I' for Inactive)
REMARK    1  A    between atoms: O_3  and  C_17 
REMARK    2  A    between atoms: N_5  and  C_8 
REMARK    3  A    between atoms: C_6  and  C_9 
REMARK    4  A    between atoms: C_7  and  C_11 
REMARK    5  A    between atoms: C_9  and  C_17 
REMARK    6  A    between atoms: C_11  and  C_13 
ROOT
HETATM    1  C   UNK N   1      33.517  16.179   9.034  0.00  0.00    -0.021 A 
HETATM    2  C   UNK N   1      34.891  14.542  10.241  0.00  0.00     0.042 A 
HETATM    3  C   UNK N   1      34.527  15.895   9.981  0.00  0.00     0.047 A 
HETATM    4  C   UNK N   1      32.867  15.134   8.373  0.00  0.00     0.010 A 
HETATM    5  C   UNK N   1      34.199  13.528   9.563  0.00  0.00     0.018 A 
HETATM    6  C   UNK N   1      33.193  13.814   8.649  0.00  0.00     0.002 A 
ENDROOT
BRANCH   2   7
HETATM    7  C   UNK N   1      36.010  14.176  11.187  0.00  0.00     0.194 C 
HETATM    8  O   UNK N   1      37.160  14.174  10.776  0.00  0.00    -0.287 OA
BRANCH   7   9
HETATM    9  C   UNK N   1      35.768  13.758  12.609  0.00  0.00     0.015 A 
HETATM   10  C   UNK N   1      34.968  12.650  12.926  0.00  0.00     0.017 A 
HETATM   11  C   UNK N   1      34.795  12.238  14.246  0.00  0.00     0.020 A 
HETATM   12  C   UNK N   1      35.429  12.927  15.278  0.00  0.00     0.011 A 
HETATM   13 Br   UNK N   1      35.201  12.346  17.076  0.00  0.00    -0.051 Br
HETATM   14  C   UNK N   1      36.232  14.034  14.986  0.00  0.00     0.020 A 
HETATM   15  C   UNK N   1      36.404  14.446  13.658  0.00  0.00     0.017 A 
ENDBRANCH   7   9
ENDBRANCH   2   7
BRANCH   3  16
HETATM   16  N   UNK N   1      35.199  16.962  10.619  0.00  0.00    -0.398 N 
HETATM   17  H   UNK N   1      36.032  17.328  10.241  0.00  0.00     0.156 HD
HETATM   18  H   UNK N   1      34.831  17.343  11.449  0.00  0.00     0.156 HD
ENDBRANCH   3  16
BRANCH   1  19
HETATM   19  C   UNK N   1      33.173  17.599   8.676  0.00  0.00     0.150 C 
BRANCH  19  20
HETATM   20  C   UNK N   1      34.228  18.269   7.846  0.00  0.00     0.143 C 
HETATM   21  O   UNK N   1      34.353  17.986   6.665  0.00  0.00    -0.650 OA
BRANCH  20  22
HETATM   22  O   UNK N   1      35.074  19.144   8.417  0.00  0.00    -0.776 OA
HETATM   23  H   UNK N   1      35.231  20.046   8.221  0.00  0.00     0.167 HD
ENDBRANCH  20  22
ENDBRANCH  19  20
ENDBRANCH   1  19
TORSDOF 6
ENDMDL
MODEL 2
REMARK VINA RESULT:      -6.7      6.349      9.441
REMARK  6 active torsions:
REMARK  status: ('A' for Active; 'I' for Inactive)
REMARK    1  A    between atoms: O_3  and  C_17 
REMARK    2  A    between atoms: N_5  and  C_8 
REMARK    3  A    between atoms: C_6  and  C_9 
REMARK    4  A    between atoms: C_7  and  C_11 
REMARK    5  A    between atoms: C_9  and  C_17 
REMARK    6  A    between atoms: C_11  and  C_13 
ROOT
HETATM    1  C   UNK N   1      32.280  16.953   7.902  0.00  0.00    -0.021 A 
HETATM    2  C   UNK N   1      29.888  17.058   7.363  0.00  0.00     0.042 A 
HETATM    3  C   UNK N   1      31.012  17.548   8.089  0.00  0.00     0.047 A 
HETATM    4  C   UNK N   1      32.430  15.903   6.992  0.00  0.00     0.010 A 
HETATM    5  C   UNK N   1      30.092  16.013   6.450  0.00  0.00     0.018 A 
HETATM    6  C   UNK N   1      31.347  15.448   6.256  0.00  0.00     0.002 A 
ENDROOT
BRANCH   2   7
HETATM    7  C   UNK N   1      28.495  17.603   7.570  0.00  0.00     0.194 C 
HETATM    8  O   UNK N   1      27.946  17.441   8.649  0.00  0.00    -0.287 OA
BRANCH   7   9
HETATM    9  C   UNK N   1      27.722  18.295   6.484  0.00  0.00     0.015 A 
HETATM   10  C   UNK N   1      27.770  19.687   6.316  0.00  0.00     0.017 A 
HETATM   11  C   UNK N   1      27.092  20.312   5.270  0.00  0.00     0.020 A 
HETATM   12  C   UNK N   1      26.357  19.550   4.365  0.00  0.00     0.011 A 
HETATM   13 Br   UNK N   1      25.449  20.412   2.930  0.00  0.00    -0.051 Br
HETATM   14  C   UNK N   1      26.295  18.161   4.512  0.00  0.00     0.020 A 
HETATM   15  C   UNK N   1      26.977  17.536   5.563  0.00  0.00     0.017 A 
ENDBRANCH   7   9
ENDBRANCH   2   7
BRANCH   3  16
HETATM   16  N   UNK N   1      30.866  18.587   9.035  0.00  0.00    -0.398 N 
HETATM   17  H   UNK N   1      30.036  19.117   9.075  0.00  0.00     0.156 HD
HETATM   18  H   UNK N   1      31.600  18.784   9.660  0.00  0.00     0.156 HD
ENDBRANCH   3  16
BRANCH   1  19
HETATM   19  C   UNK N   1      33.465  17.390   8.719  0.00  0.00     0.150 C 
BRANCH  19  20
HETATM   20  C   UNK N   1      34.429  18.241   7.947  0.00  0.00     0.143 C 
HETATM   21  O   UNK N   1      34.533  18.111   6.737  0.00  0.00    -0.650 OA
BRANCH  20  22
HETATM   22  O   UNK N   1      35.222  19.113   8.595  0.00  0.00    -0.776 OA
HETATM   23  H   UNK N   1      35.669  19.872   8.278  0.00  0.00     0.167 HD
ENDBRANCH  20  22
ENDBRANCH  19  20
ENDBRANCH   1  19
TORSDOF 6
ENDMDL
MODEL 3
REMARK VINA RESULT:      -6.7      7.598      9.981
REMARK  6 active torsions:
REMARK  status: ('A' for Active; 'I' for Inactive)
REMARK    1  A    between atoms: O_3  and  C_17 
REMARK    2  A    between atoms: N_5  and  C_8 
REMARK    3  A    between atoms: C_6  and  C_9 
REMARK    4  A    between atoms: C_7  and  C_11 
REMARK    5  A    between atoms: C_9  and  C_17 
REMARK    6  A    between atoms: C_11  and  C_13 
ROOT
HETATM    1  C   UNK N   1      26.379  20.058   4.362  0.00  0.00    -0.021 A 
HETATM    2  C   UNK N   1      27.701  18.787   5.993  0.00  0.00     0.042 A 
HETATM    3  C   UNK N   1      27.052  18.870   4.727  0.00  0.00     0.047 A 
HETATM    4  C   UNK N   1      26.370  21.151   5.233  0.00  0.00     0.010 A 
HETATM    5  C   UNK N   1      27.677  19.916   6.826  0.00  0.00     0.018 A 
HETATM    6  C   UNK N   1      27.031  21.087   6.450  0.00  0.00     0.002 A 
ENDROOT
BRANCH   2   7
HETATM    7  C   UNK N   1      28.376  17.524   6.471  0.00  0.00     0.194 C 
HETATM    8  O   UNK N   1      27.719  16.499   6.572  0.00  0.00    -0.287 OA
BRANCH   7   9
HETATM    9  C   UNK N   1      29.819  17.479   6.885  0.00  0.00     0.015 A 
HETATM   10  C   UNK N   1      30.838  17.156   5.975  0.00  0.00     0.017 A 
HETATM   11  C   UNK N   1      32.179  17.172   6.357  0.00  0.00     0.020 A 
HETATM   12  C   UNK N   1      32.526  17.520   7.660  0.00  0.00     0.011 A 
HETATM   13 Br   UNK N   1      34.361  17.555   8.167  0.00  0.00    -0.051 Br
HETATM   14  C   UNK N   1      31.528  17.846   8.584  0.00  0.00     0.020 A 
HETATM   15  C   UNK N   1      30.182  17.830   8.198  0.00  0.00     0.017 A 
ENDBRANCH   7   9
ENDBRANCH   2   7
BRANCH   3  16
HETATM   16  N   UNK N   1      27.028  17.762   3.852  0.00  0.00    -0.398 N 
HETATM   17  H   UNK N   1      27.440  17.818   2.959  0.00  0.00     0.156 HD
HETATM   18  H   UNK N   1      26.595  16.925   4.137  0.00  0.00     0.156 HD
ENDBRANCH   3  16
BRANCH   1  19
HETATM   19  C   UNK N   1      25.612  20.144   3.071  0.00  0.00     0.150 C 
BRANCH  19  20
HETATM   20  C   UNK N   1      24.126  20.167   3.270  0.00  0.00     0.143 C 
HETATM   21  O   UNK N   1      23.546  19.179   3.693  0.00  0.00    -0.650 OA
BRANCH  20  22
HETATM   22  O   UNK N   1      23.421  21.261   2.931  0.00  0.00    -0.776 OA
HETATM   23  H   UNK N   1      22.637  21.341   2.424  0.00  0.00     0.167 HD
ENDBRANCH  20  22
ENDBRANCH  19  20
ENDBRANCH   1  19
TORSDOF 6
ENDMDL
MODEL 4
REMARK VINA RESULT:      -6.5      3.714      6.957
REMARK  6 active torsions:
REMARK  status: ('A' for Active; 'I' for Inactive)
REMARK    1  A    between atoms: O_3  and  C_17 
REMARK    2  A    between atoms: N_5  and  C_8 
REMARK    3  A    between atoms: C_6  and  C_9 
REMARK    4  A    between atoms: C_7  and  C_11 
REMARK    5  A    between atoms: C_9  and  C_17 
REMARK    6  A    between atoms: C_11  and  C_13 
ROOT
HETATM    1  C   UNK N   1      35.888  14.971  10.043  0.00  0.00    -0.021 A 
HETATM    2  C   UNK N   1      34.777  16.353   8.347  0.00  0.00     0.042 A 
HETATM    3  C   UNK N   1      35.239  16.174   9.683  0.00  0.00     0.047 A 
HETATM    4  C   UNK N   1      36.091  13.973   9.086  0.00  0.00     0.010 A 
HETATM    5  C   UNK N   1      35.018  15.329   7.419  0.00  0.00     0.018 A 
HETATM    6  C   UNK N   1      35.675  14.159   7.776  0.00  0.00     0.002 A 
ENDROOT
BRANCH   2   7
HETATM    7  C   UNK N   1      34.014  17.583   7.916  0.00  0.00     0.194 C 
HETATM    8  O   UNK N   1      34.591  18.659   7.882  0.00  0.00    -0.287 OA
BRANCH   7   9
HETATM    9  C   UNK N   1      32.551  17.557   7.578  0.00  0.00     0.015 A 
HETATM   10  C   UNK N   1      32.095  17.175   6.306  0.00  0.00     0.017 A 
HETATM   11  C   UNK N   1      30.733  17.100   6.020  0.00  0.00     0.020 A 
HETATM   12  C   UNK N   1      29.798  17.402   7.008  0.00  0.00     0.011 A 
HETATM   13 Br   UNK N   1      27.940  17.281   6.612  0.00  0.00    -0.051 Br
HETATM   14  C   UNK N   1      30.229  17.784   8.282  0.00  0.00     0.020 A 
HETATM   15  C   UNK N   1      31.598  17.858   8.567  0.00  0.00     0.017 A 
ENDBRANCH   7   9
ENDBRANCH   2   7
BRANCH   3  16
HETATM   16  N   UNK N   1      35.012  17.162  10.667  0.00  0.00    -0.398 N 
HETATM   17  H   UNK N   1      35.389  17.065  11.571  0.00  0.00     0.156 HD
HETATM   18  H   UNK N   1      34.472  17.954  10.446  0.00  0.00     0.156 HD
ENDBRANCH   3  16
BRANCH   1  19
HETATM   19  C   UNK N   1      36.309  14.719  11.465  0.00  0.00     0.150 C 
BRANCH  19  20
HETATM   20  C   UNK N   1      35.223  14.108  12.301  0.00  0.00     0.143 C 
HETATM   21  O   UNK N   1      35.350  14.029  13.512  0.00  0.00    -0.650 OA
BRANCH  20  22
HETATM   22  O   UNK N   1      34.128  13.598  11.709  0.00  0.00    -0.776 OA
HETATM   23  H   UNK N   1      33.970  12.739  11.372  0.00  0.00     0.167 HD
ENDBRANCH  20  22
ENDBRANCH  19  20
ENDBRANCH   1  19
TORSDOF 6
ENDMDL
MODEL 5
REMARK VINA RESULT:      -6.4      3.282      5.063
REMARK  6 active torsions:
REMARK  status: ('A' for Active; 'I' for Inactive)
REMARK    1  A    between atoms: O_3  and  C_17 
REMARK    2  A    between atoms: N_5  and  C_8 
REMARK    3  A    between atoms: C_6  and  C_9 
REMARK    4  A    between atoms: C_7  and  C_11 
REMARK    5  A    between atoms: C_9  and  C_17 
REMARK    6  A    between atoms: C_11  and  C_13 
ROOT
HETATM    1  C   UNK N   1      30.939  17.134   6.661  0.00  0.00    -0.021 A 
HETATM    2  C   UNK N   1      33.286  17.546   7.250  0.00  0.00     0.042 A 
HETATM    3  C   UNK N   1      31.938  17.307   7.646  0.00  0.00     0.047 A 
HETATM    4  C   UNK N   1      31.279  17.178   5.307  0.00  0.00     0.010 A 
HETATM    5  C   UNK N   1      33.580  17.567   5.879  0.00  0.00     0.018 A 
HETATM    6  C   UNK N   1      32.595  17.375   4.917  0.00  0.00     0.002 A 
ENDROOT
BRANCH   2   7
HETATM    7  C   UNK N   1      34.385  17.809   8.251  0.00  0.00     0.194 C 
HETATM    8  O   UNK N   1      34.868  18.929   8.325  0.00  0.00    -0.287 OA
BRANCH   7   9
HETATM    9  C   UNK N   1      34.957  16.736   9.132  0.00  0.00     0.015 A 
HETATM   10  C   UNK N   1      35.265  16.974  10.480  0.00  0.00     0.017 A 
HETATM   11  C   UNK N   1      35.744  15.955  11.303  0.00  0.00     0.020 A 
HETATM   12  C   UNK N   1      35.916  14.671  10.789  0.00  0.00     0.011 A 
HETATM   13 Br   UNK N   1      36.554  13.283  11.925  0.00  0.00    -0.051 Br
HETATM   14  C   UNK N   1      35.615  14.410   9.449  0.00  0.00     0.020 A 
HETATM   15  C   UNK N   1      35.134  15.436   8.625  0.00  0.00     0.017 A 
ENDBRANCH   7   9
ENDBRANCH   2   7
BRANCH   3  16
HETATM   16  N   UNK N   1      31.576  17.292   9.012  0.00  0.00    -0.398 N 
HETATM   17  H   UNK N   1      31.637  16.461   9.538  0.00  0.00     0.156 HD
HETATM   18  H   UNK N   1      31.261  18.119   9.442  0.00  0.00     0.156 HD
ENDBRANCH   3  16
BRANCH   1  19
HETATM   19  C   UNK N   1      29.495  16.967   7.049  0.00  0.00     0.150 C 
BRANCH  19  20
HETATM   20  C   UNK N   1      28.770  18.272   7.195  0.00  0.00     0.143 C 
HETATM   21  O   UNK N   1      28.914  18.945   8.204  0.00  0.00    -0.650 OA
BRANCH  20  22
HETATM   22  O   UNK N   1      27.918  18.677   6.237  0.00  0.00    -0.776 OA
HETATM   23  H   UNK N   1      27.890  19.480   5.755  0.00  0.00     0.167 HD
ENDBRANCH  20  22
ENDBRANCH  19  20
ENDBRANCH   1  19
TORSDOF 6
ENDMDL
MODEL 6
REMARK VINA RESULT:      -6.4      6.557      9.828
REMARK  6 active torsions:
REMARK  status: ('A' for Active; 'I' for Inactive)
REMARK    1  A    between atoms: O_3  and  C_17 
REMARK    2  A    between atoms: N_5  and  C_8 
REMARK    3  A    between atoms: C_6  and  C_9 
REMARK    4  A    between atoms: C_7  and  C_11 
REMARK    5  A    between atoms: C_9  and  C_17 
REMARK    6  A    between atoms: C_11  and  C_13 
ROOT
HETATM    1  C   UNK N   1      32.707  17.330   7.236  0.00  0.00    -0.021 A 
HETATM    2  C   UNK N   1      30.620  17.225   5.948  0.00  0.00     0.042 A 
HETATM    3  C   UNK N   1      32.044  17.177   5.997  0.00  0.00     0.047 A 
HETATM    4  C   UNK N   1      31.966  17.505   8.407  0.00  0.00     0.010 A 
HETATM    5  C   UNK N   1      29.921  17.388   7.152  0.00  0.00     0.018 A 
HETATM    6  C   UNK N   1      30.580  17.516   8.369  0.00  0.00     0.002 A 
ENDROOT
BRANCH   2   7
HETATM    7  C   UNK N   1      29.856  17.140   4.648  0.00  0.00     0.194 C 
HETATM    8  O   UNK N   1      30.307  16.466   3.735  0.00  0.00    -0.287 OA
BRANCH   7   9
HETATM    9  C   UNK N   1      28.581  17.895   4.404  0.00  0.00     0.015 A 
HETATM   10  C   UNK N   1      28.503  19.286   4.577  0.00  0.00     0.017 A 
HETATM   11  C   UNK N   1      27.329  19.984   4.293  0.00  0.00     0.020 A 
HETATM   12  C   UNK N   1      26.211  19.300   3.824  0.00  0.00     0.011 A 
HETATM   13 Br   UNK N   1      24.619  20.265   3.424  0.00  0.00    -0.051 Br
HETATM   14  C   UNK N   1      26.265  17.915   3.643  0.00  0.00     0.020 A 
HETATM   15  C   UNK N   1      27.445  17.216   3.928  0.00  0.00     0.017 A 
ENDBRANCH   7   9
ENDBRANCH   2   7
BRANCH   3  16
HETATM   16  N   UNK N   1      32.805  17.032   4.815  0.00  0.00    -0.398 N 
HETATM   17  H   UNK N   1      33.283  17.801   4.429  0.00  0.00     0.156 HD
HETATM   18  H   UNK N   1      32.858  16.153   4.375  0.00  0.00     0.156 HD
ENDBRANCH   3  16
BRANCH   1  19
HETATM   19  C   UNK N   1      34.209  17.371   7.306  0.00  0.00     0.150 C 
BRANCH  19  20
HETATM   20  C   UNK N   1      34.722  18.201   8.444  0.00  0.00     0.143 C 
HETATM   21  O   UNK N   1      34.808  19.414   8.331  0.00  0.00    -0.650 OA
BRANCH  20  22
HETATM   22  O   UNK N   1      35.140  17.605   9.574  0.00  0.00    -0.776 OA
HETATM   23  H   UNK N   1      35.567  16.781   9.699  0.00  0.00     0.167 HD
ENDBRANCH  20  22
ENDBRANCH  19  20
ENDBRANCH   1  19
TORSDOF 6
ENDMDL
MODEL 7
REMARK VINA RESULT:      -6.4      6.806      9.942
REMARK  6 active torsions:
REMARK  status: ('A' for Active; 'I' for Inactive)
REMARK    1  A    between atoms: O_3  and  C_17 
REMARK    2  A    between atoms: N_5  and  C_8 
REMARK    3  A    between atoms: C_6  and  C_9 
REMARK    4  A    between atoms: C_7  and  C_11 
REMARK    5  A    between atoms: C_9  and  C_17 
REMARK    6  A    between atoms: C_11  and  C_13 
ROOT
HETATM    1  C   UNK N   1      31.686  17.129   7.869  0.00  0.00    -0.021 A 
HETATM    2  C   UNK N   1      29.409  17.025   6.958  0.00  0.00     0.042 A 
HETATM    3  C   UNK N   1      30.766  16.588   6.942  0.00  0.00     0.047 A 
HETATM    4  C   UNK N   1      31.259  18.073   8.806  0.00  0.00     0.010 A 
HETATM    5  C   UNK N   1      29.026  17.962   7.928  0.00  0.00     0.018 A 
HETATM    6  C   UNK N   1      29.932  18.474   8.848  0.00  0.00     0.002 A 
ENDROOT
BRANCH   2   7
HETATM    7  C   UNK N   1      28.395  16.539   5.950  0.00  0.00     0.194 C 
HETATM    8  O   UNK N   1      28.280  15.339   5.753  0.00  0.00    -0.287 OA
BRANCH   7   9
HETATM    9  C   UNK N   1      27.550  17.472   5.131  0.00  0.00     0.015 A 
HETATM   10  C   UNK N   1      26.186  17.230   4.909  0.00  0.00     0.017 A 
HETATM   11  C   UNK N   1      25.399  18.132   4.194  0.00  0.00     0.020 A 
HETATM   12  C   UNK N   1      25.966  19.300   3.691  0.00  0.00     0.011 A 
HETATM   13 Br   UNK N   1      24.879  20.534   2.730  0.00  0.00    -0.051 Br
HETATM   14  C   UNK N   1      27.323  19.563   3.900  0.00  0.00     0.020 A 
HETATM   15  C   UNK N   1      28.111  18.656   4.619  0.00  0.00     0.017 A 
ENDBRANCH   7   9
ENDBRANCH   2   7
BRANCH   3  16
HETATM   16  N   UNK N   1      31.216  15.658   5.979  0.00  0.00    -0.398 N 
HETATM   17  H   UNK N   1      31.188  14.691   6.163  0.00  0.00     0.156 HD
HETATM   18  H   UNK N   1      31.562  15.980   5.115  0.00  0.00     0.156 HD
ENDBRANCH   3  16
BRANCH   1  19
HETATM   19  C   UNK N   1      33.141  16.752   7.819  0.00  0.00     0.150 C 
BRANCH  19  20
HETATM   20  C   UNK N   1      34.002  17.809   7.193  0.00  0.00     0.143 C 
HETATM   21  O   UNK N   1      34.085  17.894   5.977  0.00  0.00    -0.650 OA
BRANCH  20  22
HETATM   22  O   UNK N   1      34.726  18.632   7.971  0.00  0.00    -0.776 OA
HETATM   23  H   UNK N   1      34.659  19.558   8.096  0.00  0.00     0.167 HD
ENDBRANCH  20  22
ENDBRANCH  19  20
ENDBRANCH   1  19
TORSDOF 6
ENDMDL
MODEL 8
REMARK VINA RESULT:      -6.3     16.748     19.745
REMARK  6 active torsions:
REMARK  status: ('A' for Active; 'I' for Inactive)
REMARK    1  A    between atoms: O_3  and  C_17 
REMARK    2  A    between atoms: N_5  and  C_8 
REMARK    3  A    between atoms: C_6  and  C_9 
REMARK    4  A    between atoms: C_7  and  C_11 
REMARK    5  A    between atoms: C_9  and  C_17 
REMARK    6  A    between atoms: C_11  and  C_13 
ROOT
HETATM    1  C   UNK N   1      30.027  21.914  -4.354  0.00  0.00    -0.021 A 
HETATM    2  C   UNK N   1      28.301  23.659  -4.301  0.00  0.00     0.042 A 
HETATM    3  C   UNK N   1      29.230  22.820  -3.618  0.00  0.00     0.047 A 
HETATM    4  C   UNK N   1      29.918  21.859  -5.746  0.00  0.00     0.010 A 
HETATM    5  C   UNK N   1      28.239  23.577  -5.700  0.00  0.00     0.018 A 
HETATM    6  C   UNK N   1      29.042  22.699  -6.417  0.00  0.00     0.002 A 
ENDROOT
BRANCH   2   7
HETATM    7  C   UNK N   1      27.371  24.596  -3.568  0.00  0.00     0.194 C 
HETATM    8  O   UNK N   1      26.526  24.130  -2.818  0.00  0.00    -0.287 OA
BRANCH   7   9
HETATM    9  C   UNK N   1      27.399  26.085  -3.761  0.00  0.00     0.015 A 
HETATM   10  C   UNK N   1      28.580  26.763  -4.097  0.00  0.00     0.017 A 
HETATM   11  C   UNK N   1      28.583  28.138  -4.328  0.00  0.00     0.020 A 
HETATM   12  C   UNK N   1      27.396  28.861  -4.232  0.00  0.00     0.011 A 
HETATM   13 Br   UNK N   1      27.407  30.735  -4.566  0.00  0.00    -0.051 Br
HETATM   14  C   UNK N   1      26.206  28.206  -3.899  0.00  0.00     0.020 A 
HETATM   15  C   UNK N   1      26.206  26.825  -3.668  0.00  0.00     0.017 A 
ENDBRANCH   7   9
ENDBRANCH   2   7
BRANCH   3  16
HETATM   16  N   UNK N   1      29.327  22.845  -2.209  0.00  0.00    -0.398 N 
HETATM   17  H   UNK N   1      29.246  23.693  -1.715  0.00  0.00     0.156 HD
HETATM   18  H   UNK N   1      29.476  22.006  -1.716  0.00  0.00     0.156 HD
ENDBRANCH   3  16
BRANCH   1  19
HETATM   19  C   UNK N   1      30.952  20.957  -3.653  0.00  0.00     0.150 C 
BRANCH  19  20
HETATM   20  C   UNK N   1      32.235  21.595  -3.211  0.00  0.00     0.143 C 
HETATM   21  O   UNK N   1      32.813  22.385  -3.941  0.00  0.00    -0.650 OA
BRANCH  20  22
HETATM   22  O   UNK N   1      32.780  21.257  -2.029  0.00  0.00    -0.776 OA
HETATM   23  H   UNK N   1      32.369  21.031  -1.218  0.00  0.00     0.167 HD
ENDBRANCH  20  22
ENDBRANCH  19  20
ENDBRANCH   1  19
TORSDOF 6
ENDMDL
MODEL 9
REMARK VINA RESULT:      -6.3      5.134      8.361
REMARK  6 active torsions:
REMARK  status: ('A' for Active; 'I' for Inactive)
REMARK    1  A    between atoms: O_3  and  C_17 
REMARK    2  A    between atoms: N_5  and  C_8 
REMARK    3  A    between atoms: C_6  and  C_9 
REMARK    4  A    between atoms: C_7  and  C_11 
REMARK    5  A    between atoms: C_9  and  C_17 
REMARK    6  A    between atoms: C_11  and  C_13 
ROOT
HETATM    1  C   UNK N   1      33.963  16.079   9.138  0.00  0.00    -0.021 A 
HETATM    2  C   UNK N   1      31.840  17.228   8.693  0.00  0.00     0.042 A 
HETATM    3  C   UNK N   1      32.557  16.141   9.272  0.00  0.00     0.047 A 
HETATM    4  C   UNK N   1      34.644  17.092   8.457  0.00  0.00     0.010 A 
HETATM    5  C   UNK N   1      32.570  18.227   8.033  0.00  0.00     0.018 A 
HETATM    6  C   UNK N   1      33.954  18.169   7.924  0.00  0.00     0.002 A 
ENDROOT
BRANCH   2   7
HETATM    7  C   UNK N   1      30.333  17.315   8.741  0.00  0.00     0.194 C 
HETATM    8  O   UNK N   1      29.743  16.895   9.725  0.00  0.00    -0.287 OA
BRANCH   7   9
HETATM    9  C   UNK N   1      29.513  17.847   7.601  0.00  0.00     0.015 A 
HETATM   10  C   UNK N   1      28.555  18.855   7.789  0.00  0.00     0.017 A 
HETATM   11  C   UNK N   1      27.839  19.381   6.715  0.00  0.00     0.020 A 
HETATM   12  C   UNK N   1      28.075  18.909   5.426  0.00  0.00     0.011 A 
HETATM   13 Br   UNK N   1      27.103  19.645   3.963  0.00  0.00    -0.051 Br
HETATM   14  C   UNK N   1      29.025  17.905   5.214  0.00  0.00     0.020 A 
HETATM   15  C   UNK N   1      29.743  17.379   6.295  0.00  0.00     0.017 A 
ENDBRANCH   7   9
ENDBRANCH   2   7
BRANCH   3  16
HETATM   16  N   UNK N   1      31.877  15.095   9.935  0.00  0.00    -0.398 N 
HETATM   17  H   UNK N   1      32.223  14.173   9.906  0.00  0.00     0.156 HD
HETATM   18  H   UNK N   1      31.050  15.290  10.432  0.00  0.00     0.156 HD
ENDBRANCH   3  16
BRANCH   1  19
HETATM   19  C   UNK N   1      34.737  14.900   9.662  0.00  0.00     0.150 C 
BRANCH  19  20
HETATM   20  C   UNK N   1      34.943  14.946  11.147  0.00  0.00     0.143 C 
HETATM   21  O   UNK N   1      35.800  15.673  11.627  0.00  0.00    -0.650 OA
BRANCH  20  22
HETATM   22  O   UNK N   1      34.221  14.145  11.950  0.00  0.00    -0.776 OA
HETATM   23  H   UNK N   1      33.381  13.753  11.814  0.00  0.00     0.167 HD
ENDBRANCH  20  22
ENDBRANCH  19  20
ENDBRANCH   1  19
TORSDOF 6
ENDMDL
