MODEL 1
REMARK VINA RESULT:      -5.7      0.000      0.000
REMARK  2 active torsions:
REMARK  status: ('A' for Active; 'I' for Inactive)
REMARK       I    between atoms: N_4  and  C_10 
REMARK    1  A    between atoms: N_4  and  C_11 
REMARK    2  A    between atoms: N_7  and  C_14 
ROOT
HETATM    1 Cl   UNK N   1      37.494  15.927  15.818  0.00  0.00    -0.082 Cl
HETATM    2 Cl   UNK N   1      35.234  10.780  15.561  0.00  0.00    -0.082 Cl
HETATM    3  C   UNK N   1      36.385  13.394  15.686  0.00  0.00     0.092 A 
HETATM    4  C   UNK N   1      36.589  14.562  16.460  0.00  0.00     0.065 A 
HETATM    5  C   UNK N   1      35.634  12.322  16.282  0.00  0.00     0.065 A 
HETATM    6  C   UNK N   1      35.360  13.625  18.312  0.00  0.00     0.029 A 
HETATM    7  C   UNK N   1      36.081  14.670  17.755  0.00  0.00     0.055 A 
HETATM    8  C   UNK N   1      35.142  12.468  17.581  0.00  0.00     0.055 A 
ENDROOT
BRANCH   3   9
HETATM    9  N   UNK N   1      36.959  13.407  14.366  0.00  0.00    -0.189 N 
HETATM   10  C   UNK N   1      36.489  13.702  13.051  0.00  0.00     0.674 A 
HETATM   11  N   UNK N   1      37.319  13.620  11.939  0.00  0.00    -0.225 N 
HETATM   12  N   UNK N   1      35.312  14.058  12.765  0.00  0.00    -0.225 N 
HETATM   13  C   UNK N   1      36.560  13.975  10.769  0.00  0.00     0.158 A 
HETATM   14  H   UNK N   1      38.269  13.362  11.949  0.00  0.00     0.177 HD
HETATM   15  C   UNK N   1      35.157  14.281  11.348  0.00  0.00     0.158 A 
ATOM     16  HN  UNK N   1      34.565  14.172  13.450  1.00  0.00     0.177 HD
HETATM   17  H   UNK N   1      37.909  13.150  14.372  0.00  0.00     0.184 HD
ENDBRANCH   3   9
BRANCH   6  18
HETATM   18  N   UNK N   1      34.848  13.736  19.619  0.00  0.00    -0.399 N 
HETATM   19  H   UNK N   1      35.210  13.171  20.339  0.00  0.00     0.156 HD
HETATM   20  H   UNK N   1      34.128  14.380  19.813  0.00  0.00     0.156 HD
ENDBRANCH   6  18
TORSDOF 2
ENDMDL
MODEL 2
REMARK VINA RESULT:      -5.7      0.555      2.465
REMARK  2 active torsions:
REMARK  status: ('A' for Active; 'I' for Inactive)
REMARK       I    between atoms: N_4  and  C_10 
REMARK    1  A    between atoms: N_4  and  C_11 
REMARK    2  A    between atoms: N_7  and  C_14 
ROOT
HETATM    1 Cl   UNK N   1      35.232  11.067  15.188  0.00  0.00    -0.082 Cl
HETATM    2 Cl   UNK N   1      37.614  16.111  15.936  0.00  0.00    -0.082 Cl
HETATM    3  C   UNK N   1      36.406  13.548  15.550  0.00  0.00     0.092 A 
HETATM    4  C   UNK N   1      35.616  12.515  16.109  0.00  0.00     0.065 A 
HETATM    5  C   UNK N   1      36.676  14.700  16.368  0.00  0.00     0.065 A 
HETATM    6  C   UNK N   1      35.387  13.728  18.183  0.00  0.00     0.029 A 
HETATM    7  C   UNK N   1      35.117  12.610  17.409  0.00  0.00     0.055 A 
HETATM    8  C   UNK N   1      36.157  14.757  17.664  0.00  0.00     0.055 A 
ENDROOT
BRANCH   3   9
HETATM    9  N   UNK N   1      36.861  13.330  14.202  0.00  0.00    -0.189 N 
HETATM   10  C   UNK N   1      36.688  13.988  12.947  0.00  0.00     0.674 A 
HETATM   11  N   UNK N   1      37.278  13.515  11.781  0.00  0.00    -0.225 N 
HETATM   12  N   UNK N   1      36.004  15.034  12.766  0.00  0.00    -0.225 N 
HETATM   13  C   UNK N   1      36.920  14.386  10.694  0.00  0.00     0.158 A 
HETATM   14  H   UNK N   1      37.848  12.715  11.711  0.00  0.00     0.177 HD
HETATM   15  C   UNK N   1      36.029  15.448  11.384  0.00  0.00     0.158 A 
ATOM     16  HN  UNK N   1      35.499  15.525  13.503  1.00  0.00     0.177 HD
HETATM   17  H   UNK N   1      37.431  12.531  14.127  0.00  0.00     0.184 HD
ENDBRANCH   3   9
BRANCH   6  18
HETATM   18  N   UNK N   1      34.882  13.821  19.493  0.00  0.00    -0.399 N 
HETATM   19  H   UNK N   1      34.474  14.661  19.806  0.00  0.00     0.156 HD
HETATM   20  H   UNK N   1      34.936  13.046  20.098  0.00  0.00     0.156 HD
ENDBRANCH   6  18
TORSDOF 2
ENDMDL
MODEL 3
REMARK VINA RESULT:      -5.5      8.224     10.981
REMARK  2 active torsions:
REMARK  status: ('A' for Active; 'I' for Inactive)
REMARK       I    between atoms: N_4  and  C_10 
REMARK    1  A    between atoms: N_4  and  C_11 
REMARK    2  A    between atoms: N_7  and  C_14 
ROOT
HETATM    1 Cl   UNK N   1      29.652  18.776  10.042  0.00  0.00    -0.082 Cl
HETATM    2 Cl   UNK N   1      30.554  16.006   5.227  0.00  0.00    -0.082 Cl
HETATM    3  C   UNK N   1      30.101  17.410   7.675  0.00  0.00     0.092 A 
HETATM    4  C   UNK N   1      29.282  18.323   8.383  0.00  0.00     0.065 A 
HETATM    5  C   UNK N   1      29.731  17.092   6.322  0.00  0.00     0.065 A 
HETATM    6  C   UNK N   1      27.815  18.575   6.484  0.00  0.00     0.029 A 
HETATM    7  C   UNK N   1      28.155  18.895   7.789  0.00  0.00     0.055 A 
HETATM    8  C   UNK N   1      28.596  17.685   5.764  0.00  0.00     0.055 A 
ENDROOT
BRANCH   3   9
HETATM    9  N   UNK N   1      31.232  16.892   8.399  0.00  0.00    -0.189 N 
HETATM   10  C   UNK N   1      32.611  17.238   8.520  0.00  0.00     0.674 A 
HETATM   11  N   UNK N   1      33.482  16.515   9.328  0.00  0.00    -0.225 N 
HETATM   12  N   UNK N   1      33.171  18.202   7.929  0.00  0.00    -0.225 N 
HETATM   13  C   UNK N   1      34.791  17.105   9.241  0.00  0.00     0.158 A 
HETATM   14  H   UNK N   1      33.242  15.730   9.871  0.00  0.00     0.177 HD
HETATM   15  C   UNK N   1      34.573  18.284   8.262  0.00  0.00     0.158 A 
ATOM     16  HN  UNK N   1      32.693  18.843   7.295  1.00  0.00     0.177 HD
HETATM   17  H   UNK N   1      30.997  16.106   8.943  0.00  0.00     0.184 HD
ENDBRANCH   3   9
BRANCH   6  18
HETATM   18  N   UNK N   1      26.678  19.153   5.887  0.00  0.00    -0.399 N 
HETATM   19  H   UNK N   1      26.280  18.743   5.086  0.00  0.00     0.156 HD
HETATM   20  H   UNK N   1      26.281  19.968   6.271  0.00  0.00     0.156 HD
ENDBRANCH   6  18
TORSDOF 2
ENDMDL
MODEL 4
REMARK VINA RESULT:      -5.5     24.616     25.847
REMARK  2 active torsions:
REMARK  status: ('A' for Active; 'I' for Inactive)
REMARK       I    between atoms: N_4  and  C_10 
REMARK    1  A    between atoms: N_4  and  C_11 
REMARK    2  A    between atoms: N_7  and  C_14 
ROOT
HETATM    1 Cl   UNK N   1      25.914  26.316  -7.969  0.00  0.00    -0.082 Cl
HETATM    2 Cl   UNK N   1      27.309  23.916  -3.073  0.00  0.00    -0.082 Cl
HETATM    3  C   UNK N   1      26.602  25.130  -5.563  0.00  0.00     0.092 A 
HETATM    4  C   UNK N   1      26.119  26.287  -6.222  0.00  0.00     0.065 A 
HETATM    5  C   UNK N   1      26.741  25.186  -4.133  0.00  0.00     0.065 A 
HETATM    6  C   UNK N   1      25.931  27.475  -4.130  0.00  0.00     0.029 A 
HETATM    7  C   UNK N   1      25.789  27.441  -5.509  0.00  0.00     0.055 A 
HETATM    8  C   UNK N   1      26.401  26.360  -3.456  0.00  0.00     0.055 A 
ENDROOT
BRANCH   3   9
HETATM    9  N   UNK N   1      26.905  24.007  -6.410  0.00  0.00    -0.189 N 
HETATM   10  C   UNK N   1      26.193  22.865  -6.885  0.00  0.00     0.674 A 
HETATM   11  N   UNK N   1      26.785  21.925  -7.721  0.00  0.00    -0.225 N 
HETATM   12  N   UNK N   1      24.992  22.593  -6.608  0.00  0.00    -0.225 N 
HETATM   13  C   UNK N   1      25.820  20.901  -8.023  0.00  0.00     0.158 A 
HETATM   14  H   UNK N   1      27.712  21.955  -8.052  0.00  0.00     0.177 HD
HETATM   15  C   UNK N   1      24.567  21.370  -7.244  0.00  0.00     0.158 A 
ATOM     16  HN  UNK N   1      24.397  23.166  -6.009  1.00  0.00     0.177 HD
HETATM   17  H   UNK N   1      27.831  24.032  -6.743  0.00  0.00     0.184 HD
ENDBRANCH   3   9
BRANCH   6  18
HETATM   18  N   UNK N   1      25.598  28.641  -3.414  0.00  0.00    -0.399 N 
HETATM   19  H   UNK N   1      26.292  29.125  -2.912  0.00  0.00     0.156 HD
HETATM   20  H   UNK N   1      24.670  28.970  -3.414  0.00  0.00     0.156 HD
ENDBRANCH   6  18
TORSDOF 2
ENDMDL
MODEL 5
REMARK VINA RESULT:      -5.3      6.971     10.170
REMARK  2 active torsions:
REMARK  status: ('A' for Active; 'I' for Inactive)
REMARK       I    between atoms: N_4  and  C_10 
REMARK    1  A    between atoms: N_4  and  C_11 
REMARK    2  A    between atoms: N_7  and  C_14 
ROOT
HETATM    1 Cl   UNK N   1      33.861  17.108   5.682  0.00  0.00    -0.082 Cl
HETATM    2 Cl   UNK N   1      29.907  17.911   9.605  0.00  0.00    -0.082 Cl
HETATM    3  C   UNK N   1      31.921  17.504   7.617  0.00  0.00     0.092 A 
HETATM    4  C   UNK N   1      32.203  17.235   6.255  0.00  0.00     0.065 A 
HETATM    5  C   UNK N   1      30.539  17.592   8.006  0.00  0.00     0.065 A 
HETATM    6  C   UNK N   1      29.852  17.149   5.719  0.00  0.00     0.029 A 
HETATM    7  C   UNK N   1      31.178  17.061   5.324  0.00  0.00     0.055 A 
HETATM    8  C   UNK N   1      29.542  17.412   7.044  0.00  0.00     0.055 A 
ENDROOT
BRANCH   3   9
HETATM    9  N   UNK N   1      33.065  17.663   8.475  0.00  0.00    -0.189 N 
HETATM   10  C   UNK N   1      33.750  16.846   9.424  0.00  0.00     0.674 A 
HETATM   11  N   UNK N   1      34.865  17.303  10.117  0.00  0.00    -0.225 N 
HETATM   12  N   UNK N   1      33.430  15.663   9.726  0.00  0.00    -0.225 N 
HETATM   13  C   UNK N   1      35.326  16.257  10.992  0.00  0.00     0.158 A 
HETATM   14  H   UNK N   1      35.272  18.194  10.025  0.00  0.00     0.177 HD
HETATM   15  C   UNK N   1      34.322  15.111  10.718  0.00  0.00     0.158 A 
ATOM     16  HN  UNK N   1      32.640  15.160   9.321  1.00  0.00     0.177 HD
HETATM   17  H   UNK N   1      33.475  18.553   8.386  0.00  0.00     0.184 HD
ENDBRANCH   3   9
BRANCH   6  18
HETATM   18  N   UNK N   1      28.820  16.973   4.778  0.00  0.00    -0.399 N 
HETATM   19  H   UNK N   1      28.975  17.189   3.831  0.00  0.00     0.156 HD
HETATM   20  H   UNK N   1      27.942  16.634   5.068  0.00  0.00     0.156 HD
ENDBRANCH   6  18
TORSDOF 2
ENDMDL
MODEL 6
REMARK VINA RESULT:      -5.2     24.581     25.943
REMARK  2 active torsions:
REMARK  status: ('A' for Active; 'I' for Inactive)
REMARK       I    between atoms: N_4  and  C_10 
REMARK    1  A    between atoms: N_4  and  C_11 
REMARK    2  A    between atoms: N_7  and  C_14 
ROOT
HETATM    1 Cl   UNK N   1      27.416  23.930  -3.214  0.00  0.00    -0.082 Cl
HETATM    2 Cl   UNK N   1      25.812  26.503  -7.955  0.00  0.00    -0.082 Cl
HETATM    3  C   UNK N   1      26.628  25.191  -5.550  0.00  0.00     0.092 A 
HETATM    4  C   UNK N   1      26.784  25.282  -4.146  0.00  0.00     0.065 A 
HETATM    5  C   UNK N   1      26.105  26.340  -6.240  0.00  0.00     0.065 A 
HETATM    6  C   UNK N   1      25.940  27.542  -4.136  0.00  0.00     0.029 A 
HETATM    7  C   UNK N   1      26.443  26.445  -3.454  0.00  0.00     0.055 A 
HETATM    8  C   UNK N   1      25.775  27.485  -5.511  0.00  0.00     0.055 A 
ENDROOT
BRANCH   3   9
HETATM    9  N   UNK N   1      27.016  23.938  -6.145  0.00  0.00    -0.189 N 
HETATM   10  C   UNK N   1      26.371  22.943  -6.938  0.00  0.00     0.674 A 
HETATM   11  N   UNK N   1      27.040  21.804  -7.373  0.00  0.00    -0.225 N 
HETATM   12  N   UNK N   1      25.168  22.985  -7.318  0.00  0.00    -0.225 N 
HETATM   13  C   UNK N   1      26.130  20.999  -8.145  0.00  0.00     0.158 A 
HETATM   14  H   UNK N   1      27.981  21.583  -7.184  0.00  0.00     0.177 HD
HETATM   15  C   UNK N   1      24.822  21.827  -8.106  0.00  0.00     0.158 A 
ATOM     16  HN  UNK N   1      24.523  23.743  -7.097  1.00  0.00     0.177 HD
HETATM   17  H   UNK N   1      27.956  23.714  -5.958  0.00  0.00     0.184 HD
ENDBRANCH   3   9
BRANCH   6  18
HETATM   18  N   UNK N   1      25.597  28.714  -3.436  0.00  0.00    -0.399 N 
HETATM   19  H   UNK N   1      26.164  29.515  -3.508  0.00  0.00     0.156 HD
HETATM   20  H   UNK N   1      24.789  28.732  -2.873  0.00  0.00     0.156 HD
ENDBRANCH   6  18
TORSDOF 2
ENDMDL
MODEL 7
REMARK VINA RESULT:      -5.2      1.978      5.520
REMARK  2 active torsions:
REMARK  status: ('A' for Active; 'I' for Inactive)
REMARK       I    between atoms: N_4  and  C_10 
REMARK    1  A    between atoms: N_4  and  C_11 
REMARK    2  A    between atoms: N_7  and  C_14 
ROOT
HETATM    1 Cl   UNK N   1      37.125  15.028  15.340  0.00  0.00    -0.082 Cl
HETATM    2 Cl   UNK N   1      33.456  10.812  14.682  0.00  0.00    -0.082 Cl
HETATM    3  C   UNK N   1      35.319  12.953  15.022  0.00  0.00     0.092 A 
HETATM    4  C   UNK N   1      36.234  13.837  14.401  0.00  0.00     0.065 A 
HETATM    5  C   UNK N   1      34.629  12.008  14.185  0.00  0.00     0.065 A 
HETATM    6  C   UNK N   1      35.786  12.875  12.233  0.00  0.00     0.029 A 
HETATM    7  C   UNK N   1      36.460  13.793  13.024  0.00  0.00     0.055 A 
HETATM    8  C   UNK N   1      34.883  11.996  12.811  0.00  0.00     0.055 A 
ENDROOT
BRANCH   3   9
HETATM    9  N   UNK N   1      35.175  13.099  16.447  0.00  0.00    -0.189 N 
HETATM   10  C   UNK N   1      35.392  12.266  17.585  0.00  0.00     0.674 A 
HETATM   11  N   UNK N   1      35.152  12.714  18.879  0.00  0.00    -0.225 N 
HETATM   12  N   UNK N   1      35.810  11.076  17.543  0.00  0.00    -0.225 N 
HETATM   13  C   UNK N   1      35.462  11.652  19.801  0.00  0.00     0.158 A 
HETATM   14  H   UNK N   1      34.823  13.609  19.126  0.00  0.00     0.177 HD
HETATM   15  C   UNK N   1      35.922  10.508  18.865  0.00  0.00     0.158 A 
ATOM     16  HN  UNK N   1      36.039  10.578  16.683  1.00  0.00     0.177 HD
HETATM   17  H   UNK N   1      34.847  13.993  16.697  0.00  0.00     0.184 HD
ENDBRANCH   3   9
BRANCH   6  18
HETATM   18  N   UNK N   1      36.016  12.833  10.845  0.00  0.00    -0.399 N 
HETATM   19  H   UNK N   1      35.698  12.066  10.316  0.00  0.00     0.156 HD
HETATM   20  H   UNK N   1      36.496  13.571  10.403  0.00  0.00     0.156 HD
ENDBRANCH   6  18
TORSDOF 2
ENDMDL
MODEL 8
REMARK VINA RESULT:      -5.1     15.476     17.920
REMARK  2 active torsions:
REMARK  status: ('A' for Active; 'I' for Inactive)
REMARK       I    between atoms: N_4  and  C_10 
REMARK    1  A    between atoms: N_4  and  C_11 
REMARK    2  A    between atoms: N_7  and  C_14 
ROOT
HETATM    1 Cl   UNK N   1      45.452  21.672   4.171  0.00  0.00    -0.082 Cl
HETATM    2 Cl   UNK N   1      41.021  23.892   1.506  0.00  0.00    -0.082 Cl
HETATM    3  C   UNK N   1      43.275  22.770   2.860  0.00  0.00     0.092 A 
HETATM    4  C   UNK N   1      43.863  21.610   3.420  0.00  0.00     0.065 A 
HETATM    5  C   UNK N   1      41.973  22.637   2.264  0.00  0.00     0.065 A 
HETATM    6  C   UNK N   1      41.948  20.272   2.816  0.00  0.00     0.029 A 
HETATM    7  C   UNK N   1      43.203  20.381   3.395  0.00  0.00     0.055 A 
HETATM    8  C   UNK N   1      41.345  21.389   2.259  0.00  0.00     0.055 A 
ENDROOT
BRANCH   3   9
HETATM    9  N   UNK N   1      44.057  23.976   2.949  0.00  0.00    -0.189 N 
HETATM   10  C   UNK N   1      45.127  24.555   2.205  0.00  0.00     0.674 A 
HETATM   11  N   UNK N   1      45.689  25.777   2.556  0.00  0.00    -0.225 N 
HETATM   12  N   UNK N   1      45.661  24.041   1.183  0.00  0.00    -0.225 N 
HETATM   13  C   UNK N   1      46.738  26.090   1.621  0.00  0.00     0.158 A 
HETATM   14  H   UNK N   1      45.416  26.336   3.319  0.00  0.00     0.177 HD
HETATM   15  C   UNK N   1      46.716  24.876   0.661  0.00  0.00     0.158 A 
ATOM     16  HN  UNK N   1      45.381  23.148   0.777  1.00  0.00     0.177 HD
HETATM   17  H   UNK N   1      43.787  24.538   3.711  0.00  0.00     0.184 HD
ENDBRANCH   3   9
BRANCH   6  18
HETATM   18  N   UNK N   1      41.285  19.031   2.792  0.00  0.00    -0.399 N 
HETATM   19  H   UNK N   1      40.319  18.985   2.976  0.00  0.00     0.156 HD
HETATM   20  H   UNK N   1      41.787  18.208   2.591  0.00  0.00     0.156 HD
ENDBRANCH   6  18
TORSDOF 2
ENDMDL
MODEL 9
REMARK VINA RESULT:      -5.1      9.318     11.678
REMARK  2 active torsions:
REMARK  status: ('A' for Active; 'I' for Inactive)
REMARK       I    between atoms: N_4  and  C_10 
REMARK    1  A    between atoms: N_4  and  C_11 
REMARK    2  A    between atoms: N_7  and  C_14 
ROOT
HETATM    1 Cl   UNK N   1      29.737  17.330   8.532  0.00  0.00    -0.082 Cl
HETATM    2 Cl   UNK N   1      33.029  16.841   3.994  0.00  0.00    -0.082 Cl
HETATM    3  C   UNK N   1      31.351  17.087   6.296  0.00  0.00     0.092 A 
HETATM    4  C   UNK N   1      31.261  17.449   7.662  0.00  0.00     0.065 A 
HETATM    5  C   UNK N   1      32.633  17.213   5.656  0.00  0.00     0.065 A 
HETATM    6  C   UNK N   1      33.603  18.026   7.729  0.00  0.00     0.029 A 
HETATM    7  C   UNK N   1      32.375  17.912   8.363  0.00  0.00     0.055 A 
HETATM    8  C   UNK N   1      33.725  17.680   6.392  0.00  0.00     0.055 A 
ENDROOT
BRANCH   3   9
HETATM    9  N   UNK N   1      30.132  16.625   5.687  0.00  0.00    -0.189 N 
HETATM   10  C   UNK N   1      29.045  17.234   4.991  0.00  0.00     0.674 A 
HETATM   11  N   UNK N   1      27.974  16.490   4.507  0.00  0.00    -0.225 N 
HETATM   12  N   UNK N   1      28.940  18.468   4.748  0.00  0.00    -0.225 N 
HETATM   13  C   UNK N   1      27.048  17.381   3.859  0.00  0.00     0.158 A 
HETATM   14  H   UNK N   1      27.866  15.516   4.594  0.00  0.00     0.177 HD
HETATM   15  C   UNK N   1      27.724  18.763   4.028  0.00  0.00     0.158 A 
ATOM     16  HN  UNK N   1      29.627  19.168   5.025  1.00  0.00     0.177 HD
HETATM   17  H   UNK N   1      30.020  15.651   5.771  0.00  0.00     0.184 HD
ENDBRANCH   3   9
BRANCH   6  18
HETATM   18  N   UNK N   1      34.725  18.493   8.439  0.00  0.00    -0.399 N 
HETATM   19  H   UNK N   1      34.656  19.303   8.993  0.00  0.00     0.156 HD
HETATM   20  H   UNK N   1      35.581  18.009   8.380  0.00  0.00     0.156 HD
ENDBRANCH   6  18
TORSDOF 2
ENDMDL
