REMARK  2 active torsions:
REMARK  status: ('A' for Active; 'I' for Inactive)
REMARK       I    between atoms: N_4  and  C_10 
REMARK    1  A    between atoms: N_4  and  C_11 
REMARK    2  A    between atoms: N_7  and  C_14 
ROOT
HETATM    1 Cl   UNK N   1       0.115   0.341   0.000  0.00  0.00    -0.082 Cl
HETATM    2 Cl   UNK N   1       5.684  -0.469  -0.000  0.00  0.00    -0.082 Cl
HETATM    3  C   UNK N   1       2.856  -0.051  -0.000  0.00  0.00     0.092 A 
HETATM    4  C   UNK N   1       1.571  -0.646   0.000  0.00  0.00     0.065 A 
HETATM    5  C   UNK N   1       3.997  -0.927  -0.000  0.00  0.00     0.065 A 
HETATM    6  C   UNK N   1       2.528  -2.861   0.000  0.00  0.00     0.029 A 
HETATM    7  C   UNK N   1       1.416  -2.033   0.000  0.00  0.00     0.055 A 
HETATM    8  C   UNK N   1       3.800  -2.310  -0.000  0.00  0.00     0.055 A 
ENDROOT
BRANCH   3   9
HETATM    9  N   UNK N   1       2.881   1.388  -0.000  0.00  0.00    -0.189 N 
HETATM   10  C   UNK N   1       3.896   2.391  -0.000  0.00  0.00     0.674 A 
HETATM   11  N   UNK N   1       3.589   3.747  -0.000  0.00  0.00    -0.225 N 
HETATM   12  N   UNK N   1       5.138   2.165   0.000  0.00  0.00    -0.225 N 
HETATM   13  C   UNK N   1       4.816   4.499  -0.000  0.00  0.00     0.158 A 
HETATM   14  H   UNK N   1       2.682   4.130  -0.000  0.00  0.00     0.177 HD
HETATM   15  C   UNK N   1       5.898   3.392   0.000  0.00  0.00     0.158 A 
ATOM     16  HN  UNK N   1       5.552   1.233   0.000  1.00  0.00     0.177 HD
HETATM   17  H   UNK N   1       1.976   1.775  -0.000  0.00  0.00     0.184 HD
ENDBRANCH   3   9
BRANCH   6  18
HETATM   18  N   UNK N   1       2.369  -4.260   0.000  0.00  0.00    -0.399 N 
HETATM   19  H   UNK N   1       1.467  -4.653   0.000  0.00  0.00     0.156 HD
HETATM   20  H   UNK N   1       3.161  -4.845   0.000  0.00  0.00     0.156 HD
ENDBRANCH   6  18
TORSDOF 2
