MODEL 1
REMARK VINA RESULT:      -9.0      0.000      0.000
REMARK  8 active torsions:
REMARK  status: ('A' for Active; 'I' for Inactive)
REMARK    1  A    between atoms: O_1  and  C_41 
REMARK    2  A    between atoms: N_3  and  C_12 
REMARK    3  A    between atoms: C_10  and  C_13 
REMARK    4  A    between atoms: C_12  and  C_19 
REMARK    5  A    between atoms: C_13  and  C_20 
REMARK    6  A    between atoms: C_14  and  C_18 
REMARK    7  A    between atoms: C_28  and  C_33 
REMARK    8  A    between atoms: C_36  and  C_41 
ROOT
HETATM    1  N   UNK N   1      26.137  15.411   4.011  0.00  0.00    -0.330 N 
HETATM    2  N   UNK N   1      25.125  17.367   3.539  0.00  0.00    -0.344 N 
ATOM      3  HN  UNK N   1      24.426  18.054   3.254  1.00  0.00     0.167 HD
HETATM    4  C   UNK N   1      26.999  16.398   4.199  0.00  0.00     0.064 A 
HETATM    5  C   UNK N   1      24.995  16.010   3.601  0.00  0.00     0.084 A 
HETATM    6  C   UNK N   1      26.396  17.585   3.942  0.00  0.00     0.066 A 
HETATM    7  C   UNK N   1      28.992  17.457   4.923  0.00  0.00     0.011 A 
HETATM    8  C   UNK N   1      28.285  16.290   4.651  0.00  0.00     0.047 A 
HETATM    9  C   UNK N   1      27.071  18.793   4.156  0.00  0.00    -0.032 A 
HETATM   10  C   UNK N   1      28.381  18.726   4.703  0.00  0.00     0.024 A 
HETATM   11  C   UNK N   1      26.414  20.104   3.902  0.00  0.00     0.050 C 
ENDROOT
BRANCH   1  12
HETATM   12  C   UNK N   1      26.408  14.000   4.260  0.00  0.00     0.169 C 
BRANCH  12  13
HETATM   13  C   UNK N   1      25.814  13.616   5.550  0.00  0.00    -0.040 A 
HETATM   14  C   UNK N   1      25.082  12.426   5.679  0.00  0.00     0.010 A 
HETATM   15  C   UNK N   1      24.444  12.137   6.886  0.00  0.00     0.013 A 
HETATM   16  C   UNK N   1      24.524  13.054   7.945  0.00  0.00    -0.025 A 
HETATM   17  C   UNK N   1      25.256  14.233   7.803  0.00  0.00     0.013 A 
HETATM   18  C   UNK N   1      25.909  14.507   6.612  0.00  0.00     0.010 A 
BRANCH  16  19
HETATM   19  C   UNK N   1      23.827  12.821   9.203  0.00  0.00    -0.009 A 
HETATM   20  C   UNK N   1      22.440  13.070   9.365  0.00  0.00     0.048 A 
HETATM   21  C   UNK N   1      21.838  12.739  10.590  0.00  0.00     0.019 A 
HETATM   22  C   UNK N   1      22.586  12.181  11.629  0.00  0.00     0.001 A 
HETATM   23  C   UNK N   1      23.947  11.933  11.459  0.00  0.00     0.001 A 
HETATM   24  C   UNK N   1      24.560  12.241  10.247  0.00  0.00     0.013 A 
BRANCH  20  25
HETATM   25  C   UNK N   1      21.571  13.618   8.284  0.00  0.00     0.177 C 
HETATM   26  O   UNK N   1      20.791  12.905   7.674  0.00  0.00    -0.646 OA
BRANCH  25  27
HETATM   27  O   UNK N   1      21.626  14.930   7.983  0.00  0.00    -0.773 OA
HETATM   28  H   UNK N   1      21.949  15.205   7.147  0.00  0.00     0.167 HD
ENDBRANCH  25  27
ENDBRANCH  20  25
ENDBRANCH  16  19
ENDBRANCH  12  13
ENDBRANCH   1  12
BRANCH   5  29
HETATM   29  C   UNK N   1      23.730  15.266   3.321  0.00  0.00     0.076 C 
BRANCH  29  30
HETATM   30  C   UNK N   1      22.772  15.363   4.491  0.00  0.00     0.003 C 
HETATM   31  C   UNK N   1      21.954  14.097   4.592  0.00  0.00     0.005 C 
ENDBRANCH  29  30
ENDBRANCH   5  29
BRANCH   7  32
HETATM   32  C   UNK N   1      30.237  17.235   5.654  0.00  0.00     0.118 A 
HETATM   33  N   UNK N   1      31.475  17.209   5.099  0.00  0.00    -0.335 N 
HETATM   34  C   UNK N   1      32.319  17.295   6.139  0.00  0.00     0.062 A 
HETATM   35  C   UNK N   1      31.824  17.262   3.686  0.00  0.00     0.158 C 
HETATM   36  C   UNK N   1      31.595  17.335   7.293  0.00  0.00     0.060 A 
HETATM   37  C   UNK N   1      33.706  17.418   6.139  0.00  0.00     0.032 A 
HETATM   38  N   UNK N   1      30.288  17.312   7.011  0.00  0.00    -0.340 N 
HETATM   39  C   UNK N   1      32.185  17.477   8.542  0.00  0.00     0.032 A 
ATOM     40  HN  UNK N   1      29.506  17.344   7.666  1.00  0.00     0.167 HD
HETATM   41  C   UNK N   1      33.586  17.591   8.585  0.00  0.00     0.002 A 
HETATM   42  C   UNK N   1      34.343  17.571   7.387  0.00  0.00     0.002 A 
ENDBRANCH   7  32
TORSDOF 8
ENDMDL
MODEL 2
REMARK VINA RESULT:      -8.2      7.136     11.665
REMARK  8 active torsions:
REMARK  status: ('A' for Active; 'I' for Inactive)
REMARK    1  A    between atoms: O_1  and  C_41 
REMARK    2  A    between atoms: N_3  and  C_12 
REMARK    3  A    between atoms: C_10  and  C_13 
REMARK    4  A    between atoms: C_12  and  C_19 
REMARK    5  A    between atoms: C_13  and  C_20 
REMARK    6  A    between atoms: C_14  and  C_18 
REMARK    7  A    between atoms: C_28  and  C_33 
REMARK    8  A    between atoms: C_36  and  C_41 
ROOT
HETATM    1  N   UNK N   1      36.014  13.943  10.552  0.00  0.00    -0.330 N 
HETATM    2  N   UNK N   1      36.795  12.113   9.496  0.00  0.00    -0.344 N 
ATOM      3  HN  UNK N   1      37.195  11.500   8.785  1.00  0.00     0.167 HD
HETATM    4  C   UNK N   1      35.869  12.893  11.345  0.00  0.00     0.064 A 
HETATM    5  C   UNK N   1      36.575  13.458   9.420  0.00  0.00     0.084 A 
HETATM    6  C   UNK N   1      36.357  11.787  10.732  0.00  0.00     0.066 A 
HETATM    7  C   UNK N   1      35.434  11.707  13.351  0.00  0.00     0.011 A 
HETATM    8  C   UNK N   1      35.374  12.890  12.620  0.00  0.00     0.047 A 
HETATM    9  C   UNK N   1      36.404  10.558  11.401  0.00  0.00    -0.032 A 
HETATM   10  C   UNK N   1      35.976  10.530  12.755  0.00  0.00     0.024 A 
HETATM   11  C   UNK N   1      36.961   9.340  10.749  0.00  0.00     0.050 C 
ENDROOT
BRANCH   1  12
HETATM   12  C   UNK N   1      35.669  15.315  10.903  0.00  0.00     0.169 C 
BRANCH  12  13
HETATM   13  C   UNK N   1      34.463  15.714  10.160  0.00  0.00    -0.040 A 
HETATM   14  C   UNK N   1      33.363  14.850  10.059  0.00  0.00     0.010 A 
HETATM   15  C   UNK N   1      32.274  15.213   9.264  0.00  0.00     0.013 A 
HETATM   16  C   UNK N   1      32.308  16.424   8.558  0.00  0.00    -0.025 A 
HETATM   17  C   UNK N   1      33.410  17.273   8.669  0.00  0.00     0.013 A 
HETATM   18  C   UNK N   1      34.479  16.924   9.477  0.00  0.00     0.010 A 
BRANCH  16  19
HETATM   19  C   UNK N   1      31.221  16.816   7.671  0.00  0.00    -0.009 A 
HETATM   20  C   UNK N   1      30.060  17.486   8.137  0.00  0.00     0.048 A 
HETATM   21  C   UNK N   1      29.102  17.898   7.198  0.00  0.00     0.019 A 
HETATM   22  C   UNK N   1      29.280  17.651   5.834  0.00  0.00     0.001 A 
HETATM   23  C   UNK N   1      30.426  16.998   5.386  0.00  0.00     0.001 A 
HETATM   24  C   UNK N   1      31.396  16.594   6.299  0.00  0.00     0.013 A 
BRANCH  20  25
HETATM   25  C   UNK N   1      29.826  17.826   9.570  0.00  0.00     0.177 C 
HETATM   26  O   UNK N   1      29.927  18.973   9.976  0.00  0.00    -0.646 OA
BRANCH  25  27
HETATM   27  O   UNK N   1      29.474  16.857  10.438  0.00  0.00    -0.773 OA
HETATM   28  H   UNK N   1      29.752  15.974  10.292  0.00  0.00     0.167 HD
ENDBRANCH  25  27
ENDBRANCH  20  25
ENDBRANCH  16  19
ENDBRANCH  12  13
ENDBRANCH   1  12
BRANCH   5  29
HETATM   29  C   UNK N   1      36.965  14.317   8.262  0.00  0.00     0.076 C 
BRANCH  29  30
HETATM   30  C   UNK N   1      36.382  13.782   6.969  0.00  0.00     0.003 C 
HETATM   31  C   UNK N   1      34.928  14.179   6.858  0.00  0.00     0.005 C 
ENDBRANCH  29  30
ENDBRANCH   5  29
BRANCH   7  32
HETATM   32  C   UNK N   1      35.142  11.877  14.772  0.00  0.00     0.118 A 
HETATM   33  N   UNK N   1      35.118  10.878  15.689  0.00  0.00    -0.335 N 
HETATM   34  C   UNK N   1      35.126  11.502  16.877  0.00  0.00     0.062 A 
HETATM   35  C   UNK N   1      35.241   9.445  15.457  0.00  0.00     0.158 C 
HETATM   36  C   UNK N   1      35.120  12.850  16.668  0.00  0.00     0.060 A 
HETATM   37  C   UNK N   1      35.217  10.961  18.156  0.00  0.00     0.032 A 
HETATM   38  N   UNK N   1      35.143  13.106  15.355  0.00  0.00    -0.340 N 
HETATM   39  C   UNK N   1      35.179  13.769  17.707  0.00  0.00     0.032 A 
ATOM     40  HN  UNK N   1      35.157  14.016  14.896  1.00  0.00     0.167 HD
HETATM   41  C   UNK N   1      35.258  13.260  19.015  0.00  0.00     0.002 A 
HETATM   42  C   UNK N   1      35.286  11.861  19.239  0.00  0.00     0.002 A 
ENDBRANCH   7  32
TORSDOF 8
ENDMDL
MODEL 3
REMARK VINA RESULT:      -8.2      2.914      8.792
REMARK  8 active torsions:
REMARK  status: ('A' for Active; 'I' for Inactive)
REMARK    1  A    between atoms: O_1  and  C_41 
REMARK    2  A    between atoms: N_3  and  C_12 
REMARK    3  A    between atoms: C_10  and  C_13 
REMARK    4  A    between atoms: C_12  and  C_19 
REMARK    5  A    between atoms: C_13  and  C_20 
REMARK    6  A    between atoms: C_14  and  C_18 
REMARK    7  A    between atoms: C_28  and  C_33 
REMARK    8  A    between atoms: C_36  and  C_41 
ROOT
HETATM    1  N   UNK N   1      25.748  15.002   4.267  0.00  0.00    -0.330 N 
HETATM    2  N   UNK N   1      26.116  13.169   3.010  0.00  0.00    -0.344 N 
ATOM      3  HN  UNK N   1      26.424  12.558   2.254  1.00  0.00     0.167 HD
HETATM    4  C   UNK N   1      25.192  13.956   4.858  0.00  0.00     0.064 A 
HETATM    5  C   UNK N   1      26.306  14.515   3.135  0.00  0.00     0.084 A 
HETATM    6  C   UNK N   1      25.426  12.840   4.125  0.00  0.00     0.066 A 
HETATM    7  C   UNK N   1      24.144  12.718   6.586  0.00  0.00     0.011 A 
HETATM    8  C   UNK N   1      24.535  13.944   6.057  0.00  0.00     0.047 A 
HETATM    9  C   UNK N   1      25.019  11.582   4.585  0.00  0.00    -0.032 A 
HETATM   10  C   UNK N   1      24.406  11.516   5.865  0.00  0.00     0.024 A 
HETATM   11  C   UNK N   1      25.292  10.344   3.803  0.00  0.00     0.050 C 
ENDROOT
BRANCH   1  12
HETATM   12  C   UNK N   1      25.763  16.359   4.801  0.00  0.00     0.169 C 
BRANCH  12  13
HETATM   13  C   UNK N   1      27.120  16.673   5.276  0.00  0.00    -0.040 A 
HETATM   14  C   UNK N   1      27.671  17.949   5.086  0.00  0.00     0.010 A 
HETATM   15  C   UNK N   1      28.995  18.189   5.456  0.00  0.00     0.013 A 
HETATM   16  C   UNK N   1      29.763  17.143   5.989  0.00  0.00    -0.025 A 
HETATM   17  C   UNK N   1      29.201  15.880   6.173  0.00  0.00     0.013 A 
HETATM   18  C   UNK N   1      27.880  15.649   5.829  0.00  0.00     0.010 A 
BRANCH  16  19
HETATM   19  C   UNK N   1      31.166  17.333   6.335  0.00  0.00    -0.009 A 
HETATM   20  C   UNK N   1      31.593  17.629   7.655  0.00  0.00     0.048 A 
HETATM   21  C   UNK N   1      32.971  17.713   7.910  0.00  0.00     0.019 A 
HETATM   22  C   UNK N   1      33.904  17.515   6.889  0.00  0.00     0.001 A 
HETATM   23  C   UNK N   1      33.475  17.219   5.597  0.00  0.00     0.001 A 
HETATM   24  C   UNK N   1      32.113  17.117   5.326  0.00  0.00     0.013 A 
BRANCH  20  25
HETATM   25  C   UNK N   1      30.657  17.803   8.803  0.00  0.00     0.177 C 
HETATM   26  O   UNK N   1      30.244  16.845   9.437  0.00  0.00    -0.646 OA
BRANCH  25  27
HETATM   27  O   UNK N   1      30.270  19.041   9.168  0.00  0.00    -0.773 OA
HETATM   28  H   UNK N   1      29.478  19.404   8.824  0.00  0.00     0.167 HD
ENDBRANCH  25  27
ENDBRANCH  20  25
ENDBRANCH  16  19
ENDBRANCH  12  13
ENDBRANCH   1  12
BRANCH   5  29
HETATM   29  C   UNK N   1      27.092  15.352   2.179  0.00  0.00     0.076 C 
BRANCH  29  30
HETATM   30  C   UNK N   1      28.529  14.878   2.098  0.00  0.00     0.003 C 
HETATM   31  C   UNK N   1      29.463  16.002   2.480  0.00  0.00     0.005 C 
ENDBRANCH  29  30
ENDBRANCH   5  29
BRANCH   7  32
HETATM   32  C   UNK N   1      23.708  12.789   7.979  0.00  0.00     0.118 A 
HETATM   33  N   UNK N   1      22.418  12.882   8.389  0.00  0.00    -0.335 N 
HETATM   34  C   UNK N   1      22.456  12.606   9.702  0.00  0.00     0.062 A 
HETATM   35  C   UNK N   1      21.228  13.060   7.569  0.00  0.00     0.158 C 
HETATM   36  C   UNK N   1      23.750  12.386  10.071  0.00  0.00     0.060 A 
HETATM   37  C   UNK N   1      21.403  12.455  10.600  0.00  0.00     0.032 A 
HETATM   38  N   UNK N   1      24.549  12.483   9.003  0.00  0.00    -0.340 N 
HETATM   39  C   UNK N   1      24.109  12.025  11.363  0.00  0.00     0.032 A 
ATOM     40  HN  UNK N   1      25.561  12.358   8.966  1.00  0.00     0.167 HD
HETATM   41  C   UNK N   1      23.074  11.876  12.303  0.00  0.00     0.002 A 
HETATM   42  C   UNK N   1      21.725  12.082  11.921  0.00  0.00     0.002 A 
ENDBRANCH   7  32
TORSDOF 8
ENDMDL
MODEL 4
REMARK VINA RESULT:      -8.1      3.996      8.791
REMARK  8 active torsions:
REMARK  status: ('A' for Active; 'I' for Inactive)
REMARK    1  A    between atoms: O_1  and  C_41 
REMARK    2  A    between atoms: N_3  and  C_12 
REMARK    3  A    between atoms: C_10  and  C_13 
REMARK    4  A    between atoms: C_12  and  C_19 
REMARK    5  A    between atoms: C_13  and  C_20 
REMARK    6  A    between atoms: C_14  and  C_18 
REMARK    7  A    between atoms: C_28  and  C_33 
REMARK    8  A    between atoms: C_36  and  C_41 
ROOT
HETATM    1  N   UNK N   1      21.183  17.253   4.797  0.00  0.00    -0.330 N 
HETATM    2  N   UNK N   1      19.817  15.995   3.522  0.00  0.00    -0.344 N 
ATOM      3  HN  UNK N   1      19.228  15.679   2.751  1.00  0.00     0.167 HD
HETATM    4  C   UNK N   1      20.889  16.139   5.450  0.00  0.00     0.064 A 
HETATM    5  C   UNK N   1      20.519  17.161   3.622  0.00  0.00     0.084 A 
HETATM    6  C   UNK N   1      20.086  15.360   4.684  0.00  0.00     0.066 A 
HETATM    7  C   UNK N   1      21.049  14.483   7.138  0.00  0.00     0.011 A 
HETATM    8  C   UNK N   1      21.358  15.760   6.677  0.00  0.00     0.047 A 
HETATM    9  C   UNK N   1      19.708  14.082   5.113  0.00  0.00    -0.032 A 
HETATM   10  C   UNK N   1      20.239  13.618   6.346  0.00  0.00     0.024 A 
HETATM   11  C   UNK N   1      18.847  13.205   4.273  0.00  0.00     0.050 C 
ENDROOT
BRANCH   1  12
HETATM   12  C   UNK N   1      22.081  18.296   5.277  0.00  0.00     0.169 C 
BRANCH  12  13
HETATM   13  C   UNK N   1      23.455  17.982   4.855  0.00  0.00    -0.040 A 
HETATM   14  C   UNK N   1      24.082  18.719   3.840  0.00  0.00     0.010 A 
HETATM   15  C   UNK N   1      25.346  18.334   3.390  0.00  0.00     0.013 A 
HETATM   16  C   UNK N   1      25.959  17.200   3.943  0.00  0.00    -0.025 A 
HETATM   17  C   UNK N   1      25.324  16.478   4.954  0.00  0.00     0.013 A 
HETATM   18  C   UNK N   1      24.080  16.874   5.416  0.00  0.00     0.010 A 
BRANCH  16  19
HETATM   19  C   UNK N   1      27.252  16.729   3.465  0.00  0.00    -0.009 A 
HETATM   20  C   UNK N   1      28.479  17.300   3.891  0.00  0.00     0.048 A 
HETATM   21  C   UNK N   1      29.678  16.726   3.440  0.00  0.00     0.019 A 
HETATM   22  C   UNK N   1      29.668  15.620   2.587  0.00  0.00     0.001 A 
HETATM   23  C   UNK N   1      28.459  15.062   2.179  0.00  0.00     0.001 A 
HETATM   24  C   UNK N   1      27.258  15.607   2.626  0.00  0.00     0.013 A 
BRANCH  20  25
HETATM   25  C   UNK N   1      28.566  18.448   4.838  0.00  0.00     0.177 C 
HETATM   26  O   UNK N   1      28.679  18.273   6.041  0.00  0.00    -0.646 OA
BRANCH  25  27
HETATM   27  O   UNK N   1      28.542  19.709   4.364  0.00  0.00    -0.773 OA
HETATM   28  H   UNK N   1      27.959  19.936   3.666  0.00  0.00     0.167 HD
ENDBRANCH  25  27
ENDBRANCH  20  25
ENDBRANCH  16  19
ENDBRANCH  12  13
ENDBRANCH   1  12
BRANCH   5  29
HETATM   29  C   UNK N   1      20.609  18.190   2.543  0.00  0.00     0.076 C 
BRANCH  29  30
HETATM   30  C   UNK N   1      19.829  19.435   2.913  0.00  0.00     0.003 C 
HETATM   31  C   UNK N   1      20.719  20.651   2.802  0.00  0.00     0.005 C 
ENDBRANCH  29  30
ENDBRANCH   5  29
BRANCH   7  32
HETATM   32  C   UNK N   1      21.817  14.080   8.314  0.00  0.00     0.118 A 
HETATM   33  N   UNK N   1      21.286  13.761   9.521  0.00  0.00    -0.335 N 
HETATM   34  C   UNK N   1      22.286  13.163  10.188  0.00  0.00     0.062 A 
HETATM   35  C   UNK N   1      19.897  13.869   9.946  0.00  0.00     0.158 C 
HETATM   36  C   UNK N   1      23.401  13.159   9.403  0.00  0.00     0.060 A 
HETATM   37  C   UNK N   1      22.265  12.541  11.433  0.00  0.00     0.032 A 
HETATM   38  N   UNK N   1      23.124  13.718   8.219  0.00  0.00    -0.340 N 
HETATM   39  C   UNK N   1      24.591  12.563   9.796  0.00  0.00     0.032 A 
ATOM     40  HN  UNK N   1      23.753  13.844   7.426  1.00  0.00     0.167 HD
HETATM   41  C   UNK N   1      24.614  11.935  11.054  0.00  0.00     0.002 A 
HETATM   42  C   UNK N   1      23.453  11.917  11.866  0.00  0.00     0.002 A 
ENDBRANCH   7  32
TORSDOF 8
ENDMDL
MODEL 5
REMARK VINA RESULT:      -8.0      1.749      2.573
REMARK  8 active torsions:
REMARK  status: ('A' for Active; 'I' for Inactive)
REMARK    1  A    between atoms: O_1  and  C_41 
REMARK    2  A    between atoms: N_3  and  C_12 
REMARK    3  A    between atoms: C_10  and  C_13 
REMARK    4  A    between atoms: C_12  and  C_19 
REMARK    5  A    between atoms: C_13  and  C_20 
REMARK    6  A    between atoms: C_14  and  C_18 
REMARK    7  A    between atoms: C_28  and  C_33 
REMARK    8  A    between atoms: C_36  and  C_41 
ROOT
HETATM    1  N   UNK N   1      24.917  17.306   4.164  0.00  0.00    -0.330 N 
HETATM    2  N   UNK N   1      24.531  19.433   4.797  0.00  0.00    -0.344 N 
ATOM      3  HN  UNK N   1      24.053  20.299   5.048  1.00  0.00     0.167 HD
HETATM    4  C   UNK N   1      26.076  17.924   4.328  0.00  0.00     0.064 A 
HETATM    5  C   UNK N   1      23.976  18.237   4.446  0.00  0.00     0.084 A 
HETATM    6  C   UNK N   1      25.861  19.200   4.733  0.00  0.00     0.066 A 
HETATM    7  C   UNK N   1      28.426  18.150   4.547  0.00  0.00     0.011 A 
HETATM    8  C   UNK N   1      27.323  17.379   4.191  0.00  0.00     0.047 A 
HETATM    9  C   UNK N   1      26.932  20.037   5.065  0.00  0.00    -0.032 A 
HETATM   10  C   UNK N   1      28.240  19.484   5.015  0.00  0.00     0.024 A 
HETATM   11  C   UNK N   1      26.710  21.433   5.535  0.00  0.00     0.050 C 
ENDROOT
BRANCH   1  12
HETATM   12  C   UNK N   1      24.756  15.903   3.803  0.00  0.00     0.169 C 
BRANCH  12  13
HETATM   13  C   UNK N   1      24.364  15.140   4.999  0.00  0.00    -0.040 A 
HETATM   14  C   UNK N   1      23.226  14.320   4.987  0.00  0.00     0.010 A 
HETATM   15  C   UNK N   1      22.821  13.689   6.165  0.00  0.00     0.013 A 
HETATM   16  C   UNK N   1      23.544  13.904   7.347  0.00  0.00    -0.025 A 
HETATM   17  C   UNK N   1      24.674  14.722   7.343  0.00  0.00     0.013 A 
HETATM   18  C   UNK N   1      25.090  15.329   6.169  0.00  0.00     0.010 A 
BRANCH  16  19
HETATM   19  C   UNK N   1      23.124  13.312   8.610  0.00  0.00    -0.009 A 
HETATM   20  C   UNK N   1      21.902  13.654   9.246  0.00  0.00     0.048 A 
HETATM   21  C   UNK N   1      21.544  12.971  10.419  0.00  0.00     0.019 A 
HETATM   22  C   UNK N   1      22.370  11.981  10.955  0.00  0.00     0.001 A 
HETATM   23  C   UNK N   1      23.566  11.648  10.321  0.00  0.00     0.001 A 
HETATM   24  C   UNK N   1      23.933  12.302   9.148  0.00  0.00     0.013 A 
BRANCH  20  25
HETATM   25  C   UNK N   1      20.949  14.664   8.705  0.00  0.00     0.177 C 
HETATM   26  O   UNK N   1      21.074  15.853   8.954  0.00  0.00    -0.646 OA
BRANCH  25  27
HETATM   27  O   UNK N   1      19.939  14.270   7.906  0.00  0.00    -0.773 OA
HETATM   28  H   UNK N   1      19.573  14.868   7.284  0.00  0.00     0.167 HD
ENDBRANCH  25  27
ENDBRANCH  20  25
ENDBRANCH  16  19
ENDBRANCH  12  13
ENDBRANCH   1  12
BRANCH   5  29
HETATM   29  C   UNK N   1      22.509  17.953   4.437  0.00  0.00     0.076 C 
BRANCH  29  30
HETATM   30  C   UNK N   1      21.968  17.849   5.849  0.00  0.00     0.003 C 
HETATM   31  C   UNK N   1      20.719  16.999   5.859  0.00  0.00     0.005 C 
ENDBRANCH  29  30
ENDBRANCH   5  29
BRANCH   7  32
HETATM   32  C   UNK N   1      29.672  17.393   4.628  0.00  0.00     0.118 A 
HETATM   33  N   UNK N   1      30.140  16.775   5.742  0.00  0.00    -0.335 N 
HETATM   34  C   UNK N   1      31.113  15.962   5.300  0.00  0.00     0.062 A 
HETATM   35  C   UNK N   1      29.598  16.832   7.092  0.00  0.00     0.158 C 
HETATM   36  C   UNK N   1      31.243  16.121   3.952  0.00  0.00     0.060 A 
HETATM   37  C   UNK N   1      31.856  15.017   6.001  0.00  0.00     0.032 A 
HETATM   38  N   UNK N   1      30.341  17.003   3.509  0.00  0.00    -0.340 N 
HETATM   39  C   UNK N   1      32.136  15.376   3.194  0.00  0.00     0.032 A 
ATOM     40  HN  UNK N   1      30.190  17.315   2.550  1.00  0.00     0.167 HD
HETATM   41  C   UNK N   1      32.915  14.420   3.869  0.00  0.00     0.002 A 
HETATM   42  C   UNK N   1      32.769  14.235   5.266  0.00  0.00     0.002 A 
ENDBRANCH   7  32
TORSDOF 8
ENDMDL
MODEL 6
REMARK VINA RESULT:      -7.9      8.129     12.129
REMARK  8 active torsions:
REMARK  status: ('A' for Active; 'I' for Inactive)
REMARK    1  A    between atoms: O_1  and  C_41 
REMARK    2  A    between atoms: N_3  and  C_12 
REMARK    3  A    between atoms: C_10  and  C_13 
REMARK    4  A    between atoms: C_12  and  C_19 
REMARK    5  A    between atoms: C_13  and  C_20 
REMARK    6  A    between atoms: C_14  and  C_18 
REMARK    7  A    between atoms: C_28  and  C_33 
REMARK    8  A    between atoms: C_36  and  C_41 
ROOT
HETATM    1  N   UNK N   1      35.924  13.681  11.181  0.00  0.00    -0.330 N 
HETATM    2  N   UNK N   1      35.888  11.710  10.091  0.00  0.00    -0.344 N 
ATOM      3  HN  UNK N   1      36.111  10.757   9.802  1.00  0.00     0.167 HD
HETATM    4  C   UNK N   1      35.004  13.731  10.230  0.00  0.00     0.064 A 
HETATM    5  C   UNK N   1      36.465  12.445  11.086  0.00  0.00     0.084 A 
HETATM    6  C   UNK N   1      34.953  12.542   9.581  0.00  0.00     0.066 A 
HETATM    7  C   UNK N   1      33.160  14.585   9.009  0.00  0.00     0.011 A 
HETATM    8  C   UNK N   1      34.162  14.773   9.956  0.00  0.00     0.047 A 
HETATM    9  C   UNK N   1      33.994  12.307   8.588  0.00  0.00    -0.032 A 
HETATM   10  C   UNK N   1      33.048  13.336   8.331  0.00  0.00     0.024 A 
HETATM   11  C   UNK N   1      33.911  10.998   7.884  0.00  0.00     0.050 C 
ENDROOT
BRANCH   1  12
HETATM   12  C   UNK N   1      36.210  14.750  12.130  0.00  0.00     0.169 C 
BRANCH  12  13
HETATM   13  C   UNK N   1      35.993  14.251  13.497  0.00  0.00    -0.040 A 
HETATM   14  C   UNK N   1      36.891  14.565  14.527  0.00  0.00     0.010 A 
HETATM   15  C   UNK N   1      36.716  13.995  15.790  0.00  0.00     0.013 A 
HETATM   16  C   UNK N   1      35.659  13.098  16.001  0.00  0.00    -0.025 A 
HETATM   17  C   UNK N   1      34.773  12.796  14.967  0.00  0.00     0.013 A 
HETATM   18  C   UNK N   1      34.933  13.381  13.721  0.00  0.00     0.010 A 
BRANCH  16  19
HETATM   19  C   UNK N   1      35.472  12.435  17.285  0.00  0.00    -0.009 A 
HETATM   20  C   UNK N   1      35.686  11.044  17.466  0.00  0.00     0.048 A 
HETATM   21  C   UNK N   1      35.560  10.509  18.757  0.00  0.00     0.019 A 
HETATM   22  C   UNK N   1      35.228  11.323  19.843  0.00  0.00     0.001 A 
HETATM   23  C   UNK N   1      35.027  12.689  19.657  0.00  0.00     0.001 A 
HETATM   24  C   UNK N   1      35.160  13.243  18.387  0.00  0.00     0.013 A 
BRANCH  20  25
HETATM   25  C   UNK N   1      36.090  10.125  16.363  0.00  0.00     0.177 C 
HETATM   26  O   UNK N   1      37.262   9.980  16.055  0.00  0.00    -0.646 OA
BRANCH  25  27
HETATM   27  O   UNK N   1      35.151   9.420  15.703  0.00  0.00    -0.773 OA
HETATM   28  H   UNK N   1      34.938   9.640  14.817  0.00  0.00     0.167 HD
ENDBRANCH  25  27
ENDBRANCH  20  25
ENDBRANCH  16  19
ENDBRANCH  12  13
ENDBRANCH   1  12
BRANCH   5  29
HETATM   29  C   UNK N   1      37.520  11.935  12.013  0.00  0.00     0.076 C 
BRANCH  29  30
HETATM   30  C   UNK N   1      37.048  10.694  12.743  0.00  0.00     0.003 C 
HETATM   31  C   UNK N   1      37.938   9.523  12.394  0.00  0.00     0.005 C 
ENDBRANCH  29  30
ENDBRANCH   5  29
BRANCH   7  32
HETATM   32  C   UNK N   1      32.157  15.647   8.993  0.00  0.00     0.118 A 
HETATM   33  N   UNK N   1      31.876  16.440   7.928  0.00  0.00    -0.335 N 
HETATM   34  C   UNK N   1      30.715  17.035   8.242  0.00  0.00     0.062 A 
HETATM   35  C   UNK N   1      32.570  16.502   6.649  0.00  0.00     0.158 C 
HETATM   36  C   UNK N   1      30.331  16.630   9.486  0.00  0.00     0.060 A 
HETATM   37  C   UNK N   1      29.914  17.868   7.464  0.00  0.00     0.032 A 
HETATM   38  N   UNK N   1      31.215  15.750   9.969  0.00  0.00    -0.340 N 
HETATM   39  C   UNK N   1      29.139  17.035  10.071  0.00  0.00     0.032 A 
ATOM     40  HN  UNK N   1      31.189  15.266  10.867  1.00  0.00     0.167 HD
HETATM   41  C   UNK N   1      28.309  17.888   9.321  0.00  0.00     0.002 A 
HETATM   42  C   UNK N   1      28.691  18.295   8.020  0.00  0.00     0.002 A 
ENDBRANCH   7  32
TORSDOF 8
ENDMDL
MODEL 7
REMARK VINA RESULT:      -7.9      4.124      5.831
REMARK  8 active torsions:
REMARK  status: ('A' for Active; 'I' for Inactive)
REMARK    1  A    between atoms: O_1  and  C_41 
REMARK    2  A    between atoms: N_3  and  C_12 
REMARK    3  A    between atoms: C_10  and  C_13 
REMARK    4  A    between atoms: C_12  and  C_19 
REMARK    5  A    between atoms: C_13  and  C_20 
REMARK    6  A    between atoms: C_14  and  C_18 
REMARK    7  A    between atoms: C_28  and  C_33 
REMARK    8  A    between atoms: C_36  and  C_41 
ROOT
HETATM    1  N   UNK N   1      23.356  18.165   4.638  0.00  0.00    -0.330 N 
HETATM    2  N   UNK N   1      23.656  19.982   3.341  0.00  0.00    -0.344 N 
ATOM      3  HN  UNK N   1      23.472  20.796   2.754  1.00  0.00     0.167 HD
HETATM    4  C   UNK N   1      24.654  18.363   4.469  0.00  0.00     0.064 A 
HETATM    5  C   UNK N   1      22.752  19.154   3.941  0.00  0.00     0.084 A 
HETATM    6  C   UNK N   1      24.851  19.469   3.709  0.00  0.00     0.066 A 
HETATM    7  C   UNK N   1      26.979  18.085   4.838  0.00  0.00     0.011 A 
HETATM    8  C   UNK N   1      25.674  17.634   5.015  0.00  0.00     0.047 A 
HETATM    9  C   UNK N   1      26.143  19.947   3.461  0.00  0.00    -0.032 A 
HETATM   10  C   UNK N   1      27.226  19.265   4.078  0.00  0.00     0.024 A 
HETATM   11  C   UNK N   1      26.374  21.174   2.650  0.00  0.00     0.050 C 
ENDROOT
BRANCH   1  12
HETATM   12  C   UNK N   1      22.767  17.113   5.458  0.00  0.00     0.169 C 
BRANCH  12  13
HETATM   13  C   UNK N   1      21.987  16.211   4.596  0.00  0.00    -0.040 A 
HETATM   14  C   UNK N   1      22.576  15.588   3.486  0.00  0.00     0.010 A 
HETATM   15  C   UNK N   1      21.788  14.820   2.628  0.00  0.00     0.013 A 
HETATM   16  C   UNK N   1      20.412  14.702   2.876  0.00  0.00    -0.025 A 
HETATM   17  C   UNK N   1      19.840  15.326   3.984  0.00  0.00     0.013 A 
HETATM   18  C   UNK N   1      20.628  16.069   4.848  0.00  0.00     0.010 A 
BRANCH  16  19
HETATM   19  C   UNK N   1      19.541  13.957   1.976  0.00  0.00    -0.009 A 
HETATM   20  C   UNK N   1      19.022  14.516   0.779  0.00  0.00     0.048 A 
HETATM   21  C   UNK N   1      18.258  13.696  -0.066  0.00  0.00     0.019 A 
HETATM   22  C   UNK N   1      18.007  12.362   0.262  0.00  0.00     0.001 A 
HETATM   23  C   UNK N   1      18.525  11.820   1.437  0.00  0.00     0.001 A 
HETATM   24  C   UNK N   1      19.298  12.611   2.282  0.00  0.00     0.013 A 
BRANCH  20  25
HETATM   25  C   UNK N   1      19.290  15.915   0.342  0.00  0.00     0.177 C 
HETATM   26  O   UNK N   1      20.430  16.338   0.228  0.00  0.00    -0.646 OA
BRANCH  25  27
HETATM   27  O   UNK N   1      18.260  16.731   0.043  0.00  0.00    -0.773 OA
HETATM   28  H   UNK N   1      17.724  16.553  -0.704  0.00  0.00     0.167 HD
ENDBRANCH  25  27
ENDBRANCH  20  25
ENDBRANCH  16  19
ENDBRANCH  12  13
ENDBRANCH   1  12
BRANCH   5  29
HETATM   29  C   UNK N   1      21.270  19.346   3.899  0.00  0.00     0.076 C 
BRANCH  29  30
HETATM   30  C   UNK N   1      20.721  19.030   2.522  0.00  0.00     0.003 C 
HETATM   31  C   UNK N   1      19.230  18.797   2.605  0.00  0.00     0.005 C 
ENDBRANCH  29  30
ENDBRANCH   5  29
BRANCH   7  32
HETATM   32  C   UNK N   1      27.957  17.402   5.682  0.00  0.00     0.118 A 
HETATM   33  N   UNK N   1      28.869  16.499   5.246  0.00  0.00    -0.335 N 
HETATM   34  C   UNK N   1      29.740  16.374   6.259  0.00  0.00     0.062 A 
HETATM   35  C   UNK N   1      28.994  15.923   3.913  0.00  0.00     0.158 C 
HETATM   36  C   UNK N   1      29.332  17.164   7.292  0.00  0.00     0.060 A 
HETATM   37  C   UNK N   1      30.933  15.659   6.312  0.00  0.00     0.032 A 
HETATM   38  N   UNK N   1      28.223  17.827   6.947  0.00  0.00    -0.340 N 
HETATM   39  C   UNK N   1      30.057  17.291   8.470  0.00  0.00     0.032 A 
ATOM     40  HN  UNK N   1      27.696  18.499   7.505  1.00  0.00     0.167 HD
HETATM   41  C   UNK N   1      31.262  16.573   8.566  0.00  0.00     0.002 A 
HETATM   42  C   UNK N   1      31.703  15.767   7.488  0.00  0.00     0.002 A 
ENDBRANCH   7  32
TORSDOF 8
ENDMDL
MODEL 8
REMARK VINA RESULT:      -7.8      9.222     13.143
REMARK  8 active torsions:
REMARK  status: ('A' for Active; 'I' for Inactive)
REMARK    1  A    between atoms: O_1  and  C_41 
REMARK    2  A    between atoms: N_3  and  C_12 
REMARK    3  A    between atoms: C_10  and  C_13 
REMARK    4  A    between atoms: C_12  and  C_19 
REMARK    5  A    between atoms: C_13  and  C_20 
REMARK    6  A    between atoms: C_14  and  C_18 
REMARK    7  A    between atoms: C_28  and  C_33 
REMARK    8  A    between atoms: C_36  and  C_41 
ROOT
HETATM    1  N   UNK N   1      36.746  10.160  11.047  0.00  0.00    -0.330 N 
HETATM    2  N   UNK N   1      38.838   9.884  10.257  0.00  0.00    -0.344 N 
ATOM      3  HN  UNK N   1      39.752   9.479  10.053  1.00  0.00     0.167 HD
HETATM    4  C   UNK N   1      37.110  11.255  10.398  0.00  0.00     0.064 A 
HETATM    5  C   UNK N   1      37.810   9.328  10.963  0.00  0.00     0.084 A 
HETATM    6  C   UNK N   1      38.359  11.095   9.895  0.00  0.00     0.066 A 
HETATM    7  C   UNK N   1      36.856  13.366   9.350  0.00  0.00     0.011 A 
HETATM    8  C   UNK N   1      36.350  12.371  10.182  0.00  0.00     0.047 A 
HETATM    9  C   UNK N   1      38.938  12.080   9.086  0.00  0.00    -0.032 A 
HETATM   10  C   UNK N   1      38.150  13.218   8.770  0.00  0.00     0.024 A 
HETATM   11  C   UNK N   1      40.299  11.906   8.507  0.00  0.00     0.050 C 
ENDROOT
BRANCH   1  12
HETATM   12  C   UNK N   1      35.441   9.941  11.659  0.00  0.00     0.169 C 
BRANCH  12  13
HETATM   13  C   UNK N   1      35.425  10.558  12.994  0.00  0.00    -0.040 A 
HETATM   14  C   UNK N   1      36.621  10.854  13.664  0.00  0.00     0.010 A 
HETATM   15  C   UNK N   1      36.575  11.345  14.970  0.00  0.00     0.013 A 
HETATM   16  C   UNK N   1      35.334  11.512  15.601  0.00  0.00    -0.025 A 
HETATM   17  C   UNK N   1      34.152  11.214  14.922  0.00  0.00     0.013 A 
HETATM   18  C   UNK N   1      34.198  10.750  13.617  0.00  0.00     0.010 A 
BRANCH  16  19
HETATM   19  C   UNK N   1      35.240  11.967  16.982  0.00  0.00    -0.009 A 
HETATM   20  C   UNK N   1      35.333  11.081  18.086  0.00  0.00     0.048 A 
HETATM   21  C   UNK N   1      35.314  11.620  19.382  0.00  0.00     0.019 A 
HETATM   22  C   UNK N   1      35.202  12.998  19.584  0.00  0.00     0.001 A 
HETATM   23  C   UNK N   1      35.118  13.861  18.494  0.00  0.00     0.001 A 
HETATM   24  C   UNK N   1      35.149  13.348  17.200  0.00  0.00     0.013 A 
BRANCH  20  25
HETATM   25  C   UNK N   1      35.503   9.606  17.945  0.00  0.00     0.177 C 
HETATM   26  O   UNK N   1      34.541   8.854  17.929  0.00  0.00    -0.646 OA
BRANCH  25  27
HETATM   27  O   UNK N   1      36.738   9.086  17.809  0.00  0.00    -0.773 OA
HETATM   28  H   UNK N   1      36.844   8.172  17.630  0.00  0.00     0.167 HD
ENDBRANCH  25  27
ENDBRANCH  20  25
ENDBRANCH  16  19
ENDBRANCH  12  13
ENDBRANCH   1  12
BRANCH   5  29
HETATM   29  C   UNK N   1      37.817   7.942  11.521  0.00  0.00     0.076 C 
BRANCH  29  30
HETATM   30  C   UNK N   1      39.049   7.706  12.370  0.00  0.00     0.003 C 
HETATM   31  C   UNK N   1      38.765   8.085  13.805  0.00  0.00     0.005 C 
ENDBRANCH  29  30
ENDBRANCH   5  29
BRANCH   7  32
HETATM   32  C   UNK N   1      35.868  14.372   8.966  0.00  0.00     0.118 A 
HETATM   33  N   UNK N   1      35.551  15.473   9.691  0.00  0.00    -0.335 N 
HETATM   34  C   UNK N   1      34.861  16.254   8.846  0.00  0.00     0.062 A 
HETATM   35  C   UNK N   1      36.006  15.826  11.029  0.00  0.00     0.158 C 
HETATM   36  C   UNK N   1      34.740  15.611   7.649  0.00  0.00     0.060 A 
HETATM   37  C   UNK N   1      34.386  17.549   9.032  0.00  0.00     0.032 A 
HETATM   38  N   UNK N   1      35.375  14.435   7.699  0.00  0.00    -0.340 N 
HETATM   39  C   UNK N   1      34.118  16.187   6.549  0.00  0.00     0.032 A 
ATOM     40  HN  UNK N   1      35.469  13.743   6.956  1.00  0.00     0.167 HD
HETATM   41  C   UNK N   1      33.613  17.491   6.703  0.00  0.00     0.002 A 
HETATM   42  C   UNK N   1      33.754  18.172   7.937  0.00  0.00     0.002 A 
ENDBRANCH   7  32
TORSDOF 8
ENDMDL
MODEL 9
REMARK VINA RESULT:      -7.6      5.444      8.879
REMARK  8 active torsions:
REMARK  status: ('A' for Active; 'I' for Inactive)
REMARK    1  A    between atoms: O_1  and  C_41 
REMARK    2  A    between atoms: N_3  and  C_12 
REMARK    3  A    between atoms: C_10  and  C_13 
REMARK    4  A    between atoms: C_12  and  C_19 
REMARK    5  A    between atoms: C_13  and  C_20 
REMARK    6  A    between atoms: C_14  and  C_18 
REMARK    7  A    between atoms: C_28  and  C_33 
REMARK    8  A    between atoms: C_36  and  C_41 
ROOT
HETATM    1  N   UNK N   1      32.401  14.960   3.340  0.00  0.00    -0.330 N 
HETATM    2  N   UNK N   1      31.501  13.162   2.326  0.00  0.00    -0.344 N 
ATOM      3  HN  UNK N   1      31.400  12.254   1.870  1.00  0.00     0.167 HD
HETATM    4  C   UNK N   1      31.101  15.159   3.184  0.00  0.00     0.064 A 
HETATM    5  C   UNK N   1      32.640  13.740   2.807  0.00  0.00     0.084 A 
HETATM    6  C   UNK N   1      30.541  14.073   2.596  0.00  0.00     0.066 A 
HETATM    7  C   UNK N   1      28.996  16.208   3.475  0.00  0.00     0.011 A 
HETATM    8  C   UNK N   1      30.381  16.244   3.600  0.00  0.00     0.047 A 
HETATM    9  C   UNK N   1      29.156  13.997   2.405  0.00  0.00    -0.032 A 
HETATM   10  C   UNK N   1      28.364  15.068   2.897  0.00  0.00     0.024 A 
HETATM   11  C   UNK N   1      28.524  12.800   1.783  0.00  0.00     0.050 C 
ENDROOT
BRANCH   1  12
HETATM   12  C   UNK N   1      33.318  15.881   4.000  0.00  0.00     0.169 C 
BRANCH  12  13
HETATM   13  C   UNK N   1      33.623  15.374   5.347  0.00  0.00    -0.040 A 
HETATM   14  C   UNK N   1      32.595  15.045   6.242  0.00  0.00     0.010 A 
HETATM   15  C   UNK N   1      32.913  14.663   7.546  0.00  0.00     0.013 A 
HETATM   16  C   UNK N   1      34.256  14.638   7.950  0.00  0.00    -0.025 A 
HETATM   17  C   UNK N   1      35.269  14.967   7.048  0.00  0.00     0.013 A 
HETATM   18  C   UNK N   1      34.953  15.322   5.747  0.00  0.00     0.010 A 
BRANCH  16  19
HETATM   19  C   UNK N   1      34.631  14.301   9.317  0.00  0.00    -0.009 A 
HETATM   20  C   UNK N   1      34.874  15.288  10.307  0.00  0.00     0.048 A 
HETATM   21  C   UNK N   1      35.150  14.868  11.618  0.00  0.00     0.019 A 
HETATM   22  C   UNK N   1      35.191  13.510  11.943  0.00  0.00     0.001 A 
HETATM   23  C   UNK N   1      34.945  12.548  10.965  0.00  0.00     0.001 A 
HETATM   24  C   UNK N   1      34.655  12.943   9.662  0.00  0.00     0.013 A 
BRANCH  20  25
HETATM   25  C   UNK N   1      34.798  16.753  10.043  0.00  0.00     0.177 C 
HETATM   26  O   UNK N   1      35.765  17.480  10.214  0.00  0.00    -0.646 OA
BRANCH  25  27
HETATM   27  O   UNK N   1      33.651  17.292   9.587  0.00  0.00    -0.773 OA
HETATM   28  H   UNK N   1      33.675  18.069   9.064  0.00  0.00     0.167 HD
ENDBRANCH  25  27
ENDBRANCH  20  25
ENDBRANCH  16  19
ENDBRANCH  12  13
ENDBRANCH   1  12
BRANCH   5  29
HETATM   29  C   UNK N   1      33.983  13.087   2.815  0.00  0.00     0.076 C 
BRANCH  29  30
HETATM   30  C   UNK N   1      34.110  12.120   3.974  0.00  0.00     0.003 C 
HETATM   31  C   UNK N   1      35.569  11.844   4.256  0.00  0.00     0.005 C 
ENDBRANCH  29  30
ENDBRANCH   5  29
BRANCH   7  32
HETATM   32  C   UNK N   1      28.311  17.280   4.193  0.00  0.00     0.118 A 
HETATM   33  N   UNK N   1      28.314  17.445   5.539  0.00  0.00    -0.335 N 
HETATM   34  C   UNK N   1      27.848  18.688   5.734  0.00  0.00     0.062 A 
HETATM   35  C   UNK N   1      28.868  16.554   6.549  0.00  0.00     0.158 C 
HETATM   36  C   UNK N   1      27.540  19.239   4.525  0.00  0.00     0.060 A 
HETATM   37  C   UNK N   1      27.744  19.414   6.917  0.00  0.00     0.032 A 
HETATM   38  N   UNK N   1      27.835  18.378   3.545  0.00  0.00    -0.340 N 
HETATM   39  C   UNK N   1      27.081  20.543   4.391  0.00  0.00     0.032 A 
ATOM     40  HN  UNK N   1      27.726  18.513   2.540  1.00  0.00     0.167 HD
HETATM   41  C   UNK N   1      26.950  21.304   5.566  0.00  0.00     0.002 A 
HETATM   42  C   UNK N   1      27.288  20.745   6.823  0.00  0.00     0.002 A 
ENDBRANCH   7  32
TORSDOF 8
ENDMDL
