MODEL 1
REMARK VINA RESULT:      -7.3      0.000      0.000
REMARK  0 active torsions:
REMARK  status: ('A' for Active; 'I' for Inactive)
ROOT
HETATM    1 Cl   UNK N   1      24.780  26.826  -5.646  0.00  0.00    -0.084 Cl
HETATM    2  N   UNK N   1      29.829  20.818  -9.424  0.00  0.00    -0.421 N 
HETATM    3  N   UNK N   1      31.215  21.382  -5.304  0.00  0.00    -0.365 N 
ATOM      4  HN  UNK N   1      31.227  21.020  -6.258  1.00  0.00     0.165 HD
HETATM    5  C   UNK N   1      28.853  21.387  -6.947  0.00  0.00    -0.064 C 
HETATM    6  C   UNK N   1      28.971  22.316  -5.908  0.00  0.00     0.004 C 
HETATM    7  C   UNK N   1      27.822  21.459  -8.047  0.00  0.00     0.054 C 
HETATM    8  C   UNK N   1      29.753  20.171  -7.069  0.00  0.00     0.054 C 
HETATM    9  C   UNK N   1      28.486  21.417  -9.435  0.00  0.00     0.118 C 
HETATM   10  C   UNK N   1      29.858  19.677  -8.511  0.00  0.00     0.118 C 
HETATM   11  C   UNK N   1      27.959  23.498  -5.797  0.00  0.00    -0.017 A 
HETATM   12  C   UNK N   1      30.124  22.105  -4.902  0.00  0.00     0.049 A 
HETATM   13  C   UNK N   1      29.071  24.670  -3.808  0.00  0.00     0.044 C 
HETATM   14  C   UNK N   1      28.022  24.557  -4.832  0.00  0.00    -0.045 A 
HETATM   15  C   UNK N   1      29.059  23.413  -3.007  0.00  0.00     0.045 C 
HETATM   16  C   UNK N   1      30.142  22.602  -3.573  0.00  0.00    -0.030 A 
HETATM   17  C   UNK N   1      26.878  23.567  -6.702  0.00  0.00     0.014 A 
HETATM   18  C   UNK N   1      27.047  25.563  -4.805  0.00  0.00     0.031 A 
HETATM   19  C   UNK N   1      31.233  22.332  -2.741  0.00  0.00     0.011 A 
HETATM   20  C   UNK N   1      25.918  24.574  -6.671  0.00  0.00     0.024 A 
HETATM   21  C   UNK N   1      25.999  25.572  -5.715  0.00  0.00     0.034 A 
HETATM   22  C   UNK N   1      32.308  21.587  -3.206  0.00  0.00     0.018 A 
HETATM   23  C   UNK N   1      32.283  21.117  -4.509  0.00  0.00     0.088 A 
HETATM   24  H   UNK N   1      30.623  21.150  -9.972  0.00  0.00     0.153 HD
ENDROOT
TORSDOF 0
ENDMDL
MODEL 2
REMARK VINA RESULT:      -7.2      2.337      5.308
REMARK  0 active torsions:
REMARK  status: ('A' for Active; 'I' for Inactive)
ROOT
HETATM    1 Cl   UNK N   1      26.601  30.537  -3.309  0.00  0.00    -0.084 Cl
HETATM    2  N   UNK N   1      29.687  22.393  -3.198  0.00  0.00    -0.421 N 
HETATM    3  N   UNK N   1      27.012  22.800  -6.647  0.00  0.00    -0.365 N 
ATOM      4  HN  UNK N   1      27.621  22.324  -5.981  1.00  0.00     0.165 HD
HETATM    5  C   UNK N   1      28.907  24.246  -5.033  0.00  0.00    -0.064 C 
HETATM    6  C   UNK N   1      27.769  24.902  -5.514  0.00  0.00     0.004 C 
HETATM    7  C   UNK N   1      29.819  24.788  -3.960  0.00  0.00     0.054 C 
HETATM    8  C   UNK N   1      29.366  22.902  -5.566  0.00  0.00     0.054 C 
HETATM    9  C   UNK N   1      29.983  23.780  -2.809  0.00  0.00     0.118 C 
HETATM   10  C   UNK N   1      30.200  22.132  -4.541  0.00  0.00     0.118 C 
HETATM   11  C   UNK N   1      27.399  26.321  -4.980  0.00  0.00    -0.017 A 
HETATM   12  C   UNK N   1      26.927  24.165  -6.580  0.00  0.00     0.049 A 
HETATM   13  C   UNK N   1      25.188  26.562  -6.250  0.00  0.00     0.044 C 
HETATM   14  C   UNK N   1      26.221  27.059  -5.330  0.00  0.00    -0.045 A 
HETATM   15  C   UNK N   1      25.850  26.248  -7.548  0.00  0.00     0.045 C 
HETATM   16  C   UNK N   1      26.065  24.797  -7.512  0.00  0.00    -0.030 A 
HETATM   17  C   UNK N   1      28.272  26.964  -4.076  0.00  0.00     0.014 A 
HETATM   18  C   UNK N   1      25.994  28.340  -4.807  0.00  0.00     0.031 A 
HETATM   19  C   UNK N   1      25.365  24.030  -8.448  0.00  0.00     0.011 A 
HETATM   20  C   UNK N   1      28.034  28.235  -3.557  0.00  0.00     0.024 A 
HETATM   21  C   UNK N   1      26.895  28.927  -3.930  0.00  0.00     0.034 A 
HETATM   22  C   UNK N   1      25.498  22.648  -8.470  0.00  0.00     0.018 A 
HETATM   23  C   UNK N   1      26.335  22.043  -7.546  0.00  0.00     0.088 A 
HETATM   24  H   UNK N   1      29.196  21.713  -2.616  0.00  0.00     0.153 HD
ENDROOT
TORSDOF 0
ENDMDL
MODEL 3
REMARK VINA RESULT:      -7.1     11.843     14.481
REMARK  0 active torsions:
REMARK  status: ('A' for Active; 'I' for Inactive)
ROOT
HETATM    1 Cl   UNK N   1      36.631  14.572   5.656  0.00  0.00    -0.084 Cl
HETATM    2  N   UNK N   1      28.289  15.493   3.322  0.00  0.00    -0.421 N 
HETATM    3  N   UNK N   1      28.853  17.453   7.202  0.00  0.00    -0.365 N 
ATOM      4  HN  UNK N   1      28.341  17.099   6.394  1.00  0.00     0.165 HD
HETATM    5  C   UNK N   1      30.176  16.879   4.712  0.00  0.00    -0.064 C 
HETATM    6  C   UNK N   1      30.907  16.843   5.904  0.00  0.00     0.004 C 
HETATM    7  C   UNK N   1      30.662  16.329   3.393  0.00  0.00     0.054 C 
HETATM    8  C   UNK N   1      28.798  17.505   4.611  0.00  0.00     0.054 C 
HETATM    9  C   UNK N   1      29.656  15.325   2.804  0.00  0.00     0.118 C 
HETATM   10  C   UNK N   1      27.981  16.914   3.462  0.00  0.00     0.118 C 
HETATM   11  C   UNK N   1      32.353  16.257   5.919  0.00  0.00    -0.017 A 
HETATM   12  C   UNK N   1      30.221  17.408   7.168  0.00  0.00     0.049 A 
HETATM   13  C   UNK N   1      32.739  16.450   8.444  0.00  0.00     0.044 C 
HETATM   14  C   UNK N   1      33.169  16.090   7.085  0.00  0.00    -0.045 A 
HETATM   15  C   UNK N   1      32.366  17.894   8.433  0.00  0.00     0.045 C 
HETATM   16  C   UNK N   1      30.905  17.898   8.311  0.00  0.00    -0.030 A 
HETATM   17  C   UNK N   1      32.942  15.847   4.703  0.00  0.00     0.014 A 
HETATM   18  C   UNK N   1      34.468  15.572   6.985  0.00  0.00     0.031 A 
HETATM   19  C   UNK N   1      30.180  18.407   9.393  0.00  0.00     0.011 A 
HETATM   20  C   UNK N   1      34.230  15.327   4.614  0.00  0.00     0.024 A 
HETATM   21  C   UNK N   1      34.998  15.195   5.759  0.00  0.00     0.034 A 
HETATM   22  C   UNK N   1      28.793  18.431   9.365  0.00  0.00     0.018 A 
HETATM   23  C   UNK N   1      28.138  17.939   8.248  0.00  0.00     0.088 A 
HETATM   24  H   UNK N   1      27.652  14.729   3.550  0.00  0.00     0.153 HD
ENDROOT
TORSDOF 0
ENDMDL
MODEL 4
REMARK VINA RESULT:      -7.1      2.942      6.123
REMARK  0 active torsions:
REMARK  status: ('A' for Active; 'I' for Inactive)
ROOT
HETATM    1 Cl   UNK N   1      33.216  21.089  -2.560  0.00  0.00    -0.084 Cl
HETATM    2  N   UNK N   1      26.765  26.362  -5.099  0.00  0.00    -0.421 N 
HETATM    3  N   UNK N   1      27.168  23.159  -8.065  0.00  0.00    -0.365 N 
ATOM      4  HN  UNK N   1      26.813  24.026  -7.661  1.00  0.00     0.165 HD
HETATM    5  C   UNK N   1      27.412  23.722  -5.254  0.00  0.00    -0.064 C 
HETATM    6  C   UNK N   1      28.320  22.848  -5.863  0.00  0.00     0.004 C 
HETATM    7  C   UNK N   1      27.591  24.321  -3.880  0.00  0.00     0.054 C 
HETATM    8  C   UNK N   1      26.116  24.151  -5.914  0.00  0.00     0.054 C 
HETATM    9  C   UNK N   1      27.492  25.856  -3.925  0.00  0.00     0.118 C 
HETATM   10  C   UNK N   1      25.622  25.498  -5.387  0.00  0.00     0.118 C 
HETATM   11  C   UNK N   1      29.595  22.383  -5.093  0.00  0.00    -0.017 A 
HETATM   12  C   UNK N   1      27.992  22.380  -7.298  0.00  0.00     0.049 A 
HETATM   13  C   UNK N   1      30.641  21.045  -7.011  0.00  0.00     0.044 C 
HETATM   14  C   UNK N   1      30.637  21.560  -5.634  0.00  0.00    -0.045 A 
HETATM   15  C   UNK N   1      29.386  20.263  -7.206  0.00  0.00     0.045 C 
HETATM   16  C   UNK N   1      28.477  21.187  -7.892  0.00  0.00    -0.030 A 
HETATM   17  C   UNK N   1      29.773  22.783  -3.751  0.00  0.00     0.014 A 
HETATM   18  C   UNK N   1      31.733  21.180  -4.848  0.00  0.00     0.031 A 
HETATM   19  C   UNK N   1      28.098  20.851  -9.195  0.00  0.00     0.011 A 
HETATM   20  C   UNK N   1      30.870  22.405  -2.981  0.00  0.00     0.024 A 
HETATM   21  C   UNK N   1      31.849  21.596  -3.529  0.00  0.00     0.034 A 
HETATM   22  C   UNK N   1      27.254  21.680  -9.921  0.00  0.00     0.018 A 
HETATM   23  C   UNK N   1      26.796  22.848  -9.333  0.00  0.00     0.088 A 
HETATM   24  H   UNK N   1      27.021  27.192  -5.634  0.00  0.00     0.153 HD
ENDROOT
TORSDOF 0
ENDMDL
MODEL 5
REMARK VINA RESULT:      -7.0     23.009     26.148
REMARK  0 active torsions:
REMARK  status: ('A' for Active; 'I' for Inactive)
ROOT
HETATM    1 Cl   UNK N   1      36.234   5.342  14.200  0.00  0.00    -0.084 Cl
HETATM    2  N   UNK N   1      35.441  13.927  12.960  0.00  0.00    -0.421 N 
HETATM    3  N   UNK N   1      35.324  13.146  17.272  0.00  0.00    -0.365 N 
ATOM      4  HN  UNK N   1      35.266  13.697  16.415  1.00  0.00     0.165 HD
HETATM    5  C   UNK N   1      36.495  12.229  14.809  0.00  0.00    -0.064 C 
HETATM    6  C   UNK N   1      36.121  11.297  15.783  0.00  0.00     0.004 C 
HETATM    7  C   UNK N   1      36.847  11.883  13.383  0.00  0.00     0.054 C 
HETATM    8  C   UNK N   1      36.611  13.714  15.095  0.00  0.00     0.054 C 
HETATM    9  C   UNK N   1      35.996  12.691  12.388  0.00  0.00     0.118 C 
HETATM   10  C   UNK N   1      36.428  14.558  13.833  0.00  0.00     0.118 C 
HETATM   11  C   UNK N   1      36.102   9.774  15.442  0.00  0.00    -0.017 A 
HETATM   12  C   UNK N   1      35.744  11.847  17.176  0.00  0.00     0.049 A 
HETATM   13  C   UNK N   1      35.153   8.969  17.681  0.00  0.00     0.044 C 
HETATM   14  C   UNK N   1      35.660   8.732  16.322  0.00  0.00    -0.045 A 
HETATM   15  C   UNK N   1      36.212   9.697  18.439  0.00  0.00     0.045 C 
HETATM   16  C   UNK N   1      35.805  11.105  18.384  0.00  0.00    -0.030 A 
HETATM   17  C   UNK N   1      36.550   9.347  14.173  0.00  0.00     0.014 A 
HETATM   18  C   UNK N   1      35.705   7.389  15.924  0.00  0.00     0.031 A 
HETATM   19  C   UNK N   1      35.459  11.712  19.595  0.00  0.00     0.011 A 
HETATM   20  C   UNK N   1      36.584   8.010  13.785  0.00  0.00     0.024 A 
HETATM   21  C   UNK N   1      36.166   7.028  14.666  0.00  0.00     0.034 A 
HETATM   22  C   UNK N   1      35.046  13.037  19.628  0.00  0.00     0.018 A 
HETATM   23  C   UNK N   1      34.980  13.746  18.440  0.00  0.00     0.088 A 
HETATM   24  H   UNK N   1      34.505  14.289  12.776  0.00  0.00     0.153 HD
ENDROOT
TORSDOF 0
ENDMDL
MODEL 6
REMARK VINA RESULT:      -7.0      3.267      6.617
REMARK  0 active torsions:
REMARK  status: ('A' for Active; 'I' for Inactive)
ROOT
HETATM    1 Cl   UNK N   1      31.529  21.447  -2.932  0.00  0.00    -0.084 Cl
HETATM    2  N   UNK N   1      26.239  28.124  -4.748  0.00  0.00    -0.421 N 
HETATM    3  N   UNK N   1      25.970  25.228  -8.028  0.00  0.00    -0.365 N 
ATOM      4  HN  UNK N   1      25.798  26.101  -7.529  1.00  0.00     0.165 HD
HETATM    5  C   UNK N   1      26.345  25.438  -5.183  0.00  0.00    -0.064 C 
HETATM    6  C   UNK N   1      27.055  24.470  -5.902  0.00  0.00     0.004 C 
HETATM    7  C   UNK N   1      26.651  25.845  -3.762  0.00  0.00     0.054 C 
HETATM    8  C   UNK N   1      25.155  26.181  -5.760  0.00  0.00     0.054 C 
HETATM    9  C   UNK N   1      26.860  27.366  -3.652  0.00  0.00     0.118 C 
HETATM   10  C   UNK N   1      24.944  27.538  -5.087  0.00  0.00     0.118 C 
HETATM   11  C   UNK N   1      28.218  23.685  -5.219  0.00  0.00    -0.017 A 
HETATM   12  C   UNK N   1      26.628  24.226  -7.366  0.00  0.00     0.049 A 
HETATM   13  C   UNK N   1      28.960  22.372  -7.290  0.00  0.00     0.044 C 
HETATM   14  C   UNK N   1      29.070  22.733  -5.869  0.00  0.00    -0.045 A 
HETATM   15  C   UNK N   1      27.573  21.877  -7.525  0.00  0.00     0.045 C 
HETATM   16  C   UNK N   1      26.861  23.029  -8.090  0.00  0.00    -0.030 A 
HETATM   17  C   UNK N   1      28.484  23.901  -3.850  0.00  0.00     0.014 A 
HETATM   18  C   UNK N   1      30.076  22.065  -5.156  0.00  0.00     0.031 A 
HETATM   19  C   UNK N   1      26.411  22.910  -9.408  0.00  0.00     0.011 A 
HETATM   20  C   UNK N   1      29.489  23.237  -3.152  0.00  0.00     0.024 A 
HETATM   21  C   UNK N   1      30.283  22.311  -3.806  0.00  0.00     0.034 A 
HETATM   22  C   UNK N   1      25.743  23.960 -10.023  0.00  0.00     0.018 A 
HETATM   23  C   UNK N   1      25.532  25.129  -9.309  0.00  0.00     0.088 A 
HETATM   24  H   UNK N   1      26.651  28.938  -5.205  0.00  0.00     0.153 HD
ENDROOT
TORSDOF 0
ENDMDL
MODEL 7
REMARK VINA RESULT:      -7.0     22.508     25.458
REMARK  0 active torsions:
REMARK  status: ('A' for Active; 'I' for Inactive)
ROOT
HETATM    1 Cl   UNK N   1      36.031  14.868  11.120  0.00  0.00    -0.084 Cl
HETATM    2  N   UNK N   1      37.330   7.195  15.032  0.00  0.00    -0.421 N 
HETATM    3  N   UNK N   1      36.143  10.109  18.085  0.00  0.00    -0.365 N 
ATOM      4  HN  UNK N   1      36.465   9.214  17.714  1.00  0.00     0.165 HD
HETATM    5  C   UNK N   1      35.739   9.385  15.329  0.00  0.00    -0.064 C 
HETATM    6  C   UNK N   1      35.789  10.737  15.686  0.00  0.00     0.004 C 
HETATM    7  C   UNK N   1      35.821   8.870  13.912  0.00  0.00     0.054 C 
HETATM    8  C   UNK N   1      35.574   8.272  16.346  0.00  0.00     0.054 C 
HETATM    9  C   UNK N   1      36.946   7.831  13.762  0.00  0.00     0.118 C 
HETATM   10  C   UNK N   1      36.141   6.945  15.843  0.00  0.00     0.118 C 
HETATM   11  C   UNK N   1      35.877  11.835  14.581  0.00  0.00    -0.017 A 
HETATM   12  C   UNK N   1      35.745  11.069  17.194  0.00  0.00     0.049 A 
HETATM   13  C   UNK N   1      36.101  13.841  16.158  0.00  0.00     0.044 C 
HETATM   14  C   UNK N   1      36.016  13.242  14.819  0.00  0.00    -0.045 A 
HETATM   15  C   UNK N   1      34.879  13.437  16.913  0.00  0.00     0.045 C 
HETATM   16  C   UNK N   1      35.313  12.306  17.739  0.00  0.00    -0.030 A 
HETATM   17  C   UNK N   1      35.818  11.452  13.224  0.00  0.00     0.014 A 
HETATM   18  C   UNK N   1      36.065  14.149  13.751  0.00  0.00     0.031 A 
HETATM   19  C   UNK N   1      35.295  12.490  19.125  0.00  0.00     0.011 A 
HETATM   20  C   UNK N   1      35.874  12.361  12.170  0.00  0.00     0.024 A 
HETATM   21  C   UNK N   1      35.991  13.714  12.436  0.00  0.00     0.034 A 
HETATM   22  C   UNK N   1      35.706  11.474  19.977  0.00  0.00     0.018 A 
HETATM   23  C   UNK N   1      36.136  10.276  19.431  0.00  0.00     0.088 A 
HETATM   24  H   UNK N   1      38.286   6.965  15.306  0.00  0.00     0.153 HD
ENDROOT
TORSDOF 0
ENDMDL
MODEL 8
REMARK VINA RESULT:      -6.9     22.074     25.135
REMARK  0 active torsions:
REMARK  status: ('A' for Active; 'I' for Inactive)
ROOT
HETATM    1 Cl   UNK N   1      34.778  13.125  20.176  0.00  0.00    -0.084 Cl
HETATM    2  N   UNK N   1      37.190  13.755  11.830  0.00  0.00    -0.421 N 
HETATM    3  N   UNK N   1      37.111   9.509  12.920  0.00  0.00    -0.365 N 
ATOM      4  HN  UNK N   1      37.281  10.325  12.332  1.00  0.00     0.165 HD
HETATM    5  C   UNK N   1      35.814  12.028  13.424  0.00  0.00    -0.064 C 
HETATM    6  C   UNK N   1      35.996  11.124  14.476  0.00  0.00     0.004 C 
HETATM    7  C   UNK N   1      35.418  13.475  13.596  0.00  0.00     0.054 C 
HETATM    8  C   UNK N   1      35.978  11.637  11.967  0.00  0.00     0.054 C 
HETATM    9  C   UNK N   1      36.418  14.412  12.896  0.00  0.00     0.118 C 
HETATM   10  C   UNK N   1      36.330  12.836  11.087  0.00  0.00     0.118 C 
HETATM   11  C   UNK N   1      35.731  11.572  15.947  0.00  0.00    -0.017 A 
HETATM   12  C   UNK N   1      36.455   9.696  14.107  0.00  0.00     0.049 A 
HETATM   13  C   UNK N   1      36.487   9.398  17.072  0.00  0.00     0.044 C 
HETATM   14  C   UNK N   1      35.959  10.770  17.113  0.00  0.00    -0.045 A 
HETATM   15  C   UNK N   1      35.577   8.588  16.213  0.00  0.00     0.045 C 
HETATM   16  C   UNK N   1      36.242   8.544  14.907  0.00  0.00    -0.030 A 
HETATM   17  C   UNK N   1      35.224  12.867  16.192  0.00  0.00     0.014 A 
HETATM   18  C   UNK N   1      35.666  11.262  18.393  0.00  0.00     0.031 A 
HETATM   19  C   UNK N   1      36.684   7.294  14.463  0.00  0.00     0.011 A 
HETATM   20  C   UNK N   1      34.942  13.349  17.467  0.00  0.00     0.024 A 
HETATM   21  C   UNK N   1      35.158  12.541  18.570  0.00  0.00     0.034 A 
HETATM   22  C   UNK N   1      37.339   7.168  13.245  0.00  0.00     0.018 A 
HETATM   23  C   UNK N   1      37.550   8.303  12.479  0.00  0.00     0.088 A 
HETATM   24  H   UNK N   1      38.179  13.916  11.639  0.00  0.00     0.153 HD
ENDROOT
TORSDOF 0
ENDMDL
MODEL 9
REMARK VINA RESULT:      -6.9     11.334     13.096
REMARK  0 active torsions:
REMARK  status: ('A' for Active; 'I' for Inactive)
ROOT
HETATM    1 Cl   UNK N   1      20.640  21.070   1.573  0.00  0.00    -0.084 Cl
HETATM    2  N   UNK N   1      27.355  19.830   6.980  0.00  0.00    -0.421 N 
HETATM    3  N   UNK N   1      25.308  15.992   6.431  0.00  0.00    -0.365 N 
ATOM      4  HN  UNK N   1      25.982  16.650   6.823  1.00  0.00     0.165 HD
HETATM    5  C   UNK N   1      25.993  18.438   5.077  0.00  0.00    -0.064 C 
HETATM    6  C   UNK N   1      24.753  17.839   4.833  0.00  0.00     0.004 C 
HETATM    7  C   UNK N   1      26.362  19.843   4.667  0.00  0.00     0.054 C 
HETATM    8  C   UNK N   1      27.130  17.716   5.776  0.00  0.00     0.054 C 
HETATM    9  C   UNK N   1      26.861  20.661   5.872  0.00  0.00     0.118 C 
HETATM   10  C   UNK N   1      28.097  18.687   6.454  0.00  0.00     0.118 C 
HETATM   11  C   UNK N   1      23.655  18.611   4.036  0.00  0.00    -0.017 A 
HETATM   12  C   UNK N   1      24.541  16.409   5.376  0.00  0.00     0.049 A 
HETATM   13  C   UNK N   1      21.807  16.854   4.276  0.00  0.00     0.044 C 
HETATM   14  C   UNK N   1      22.323  18.143   3.792  0.00  0.00    -0.045 A 
HETATM   15  C   UNK N   1      22.699  15.782   3.748  0.00  0.00     0.045 C 
HETATM   16  C   UNK N   1      23.606  15.475   4.858  0.00  0.00    -0.030 A 
HETATM   17  C   UNK N   1      23.961  19.878   3.493  0.00  0.00     0.014 A 
HETATM   18  C   UNK N   1      21.418  18.908   3.043  0.00  0.00     0.031 A 
HETATM   19  C   UNK N   1      23.514  14.197   5.417  0.00  0.00     0.011 A 
HETATM   20  C   UNK N   1      23.053  20.633   2.756  0.00  0.00     0.024 A 
HETATM   21  C   UNK N   1      21.780  20.143   2.525  0.00  0.00     0.034 A 
HETATM   22  C   UNK N   1      24.325  13.832   6.483  0.00  0.00     0.018 A 
HETATM   23  C   UNK N   1      25.225  14.757   6.986  0.00  0.00     0.088 A 
HETATM   24  H   UNK N   1      27.201  20.023   7.971  0.00  0.00     0.153 HD
ENDROOT
TORSDOF 0
ENDMDL
