MODEL 1
REMARK VINA RESULT:      -7.1      0.000      0.000
REMARK  2 active torsions:
REMARK  status: ('A' for Active; 'I' for Inactive)
REMARK    1  A    between atoms: N_2  and  C_14 
REMARK    2  A    between atoms: C_14  and  C_18 
ROOT
HETATM    1  O   UNK N   1      34.175  17.894   6.082  0.00  0.00    -0.267 OA
HETATM    2  N   UNK N   1      33.344  17.631   8.169  0.00  0.00    -0.342 N 
HETATM    3  N   UNK N   1      29.697  16.974   6.280  0.00  0.00    -0.353 N 
HETATM    4  C   UNK N   1      30.784  17.296   7.015  0.00  0.00     0.029 A 
HETATM    5  C   UNK N   1      30.841  17.544   8.482  0.00  0.00     0.078 C 
HETATM    6  C   UNK N   1      31.899  17.371   6.220  0.00  0.00     0.067 A 
HETATM    7  C   UNK N   1      32.239  17.151   9.001  0.00  0.00     0.132 C 
HETATM    8  C   UNK N   1      31.482  17.084   4.934  0.00  0.00     0.008 A 
HETATM    9  C   UNK N   1      30.128  16.837   5.010  0.00  0.00     0.045 A 
HETATM   10  C   UNK N   1      33.216  17.666   6.802  0.00  0.00     0.257 C 
HETATM   11  C   UNK N   1      28.340  16.793   6.771  0.00  0.00     0.156 C 
HETATM   12  C   UNK N   1      32.179  16.983   3.735  0.00  0.00     0.015 A 
HETATM   13  C   UNK N   1      29.382  16.477   3.889  0.00  0.00     0.030 A 
HETATM   14  C   UNK N   1      31.451  16.620   2.584  0.00  0.00     0.001 A 
HETATM   15  C   UNK N   1      30.061  16.368   2.662  0.00  0.00     0.002 A 
ENDROOT
BRANCH   2  16
HETATM   16  C   UNK N   1      34.656  17.738   8.777  0.00  0.00     0.185 C 
BRANCH  16  17
HETATM   17  C   UNK N   1      35.040  16.625   9.721  0.00  0.00     0.050 A 
HETATM   18  N   UNK N   1      35.161  16.843  11.042  0.00  0.00    -0.353 N 
HETATM   19  C   UNK N   1      35.571  15.670  11.570  0.00  0.00     0.180 A 
ATOM     20  HN  UNK N   1      34.978  17.713  11.541  1.00  0.00     0.166 HD
HETATM   21  N   UNK N   1      35.719  14.717  10.624  0.00  0.00    -0.354 N 
HETATM   22  C   UNK N   1      35.391  15.310   9.467  0.00  0.00     0.030 A 
HETATM   23  H   UNK N   1      36.007  13.785  10.757  0.00  0.00     0.166 HD
HETATM   24  C   UNK N   1      35.442  14.594   8.166  0.00  0.00     0.070 C 
ENDBRANCH  16  17
ENDBRANCH   2  16
TORSDOF 2
ENDMDL
MODEL 2
REMARK VINA RESULT:      -7.0      6.571     10.974
REMARK  2 active torsions:
REMARK  status: ('A' for Active; 'I' for Inactive)
REMARK    1  A    between atoms: N_2  and  C_14 
REMARK    2  A    between atoms: C_14  and  C_18 
ROOT
HETATM    1  O   UNK N   1      35.468  13.978  14.173  0.00  0.00    -0.267 OA
HETATM    2  N   UNK N   1      35.134  12.126  12.918  0.00  0.00    -0.342 N 
HETATM    3  N   UNK N   1      35.439  10.041  16.506  0.00  0.00    -0.353 N 
HETATM    4  C   UNK N   1      35.450  10.582  15.268  0.00  0.00     0.029 A 
HETATM    5  C   UNK N   1      35.509   9.860  13.967  0.00  0.00     0.078 C 
HETATM    6  C   UNK N   1      35.395  11.951  15.339  0.00  0.00     0.067 A 
HETATM    7  C   UNK N   1      34.789  10.703  12.895  0.00  0.00     0.132 C 
HETATM    8  C   UNK N   1      35.348  12.271  16.682  0.00  0.00     0.008 A 
HETATM    9  C   UNK N   1      35.368  11.075  17.368  0.00  0.00     0.045 A 
HETATM   10  C   UNK N   1      35.353  12.764  14.115  0.00  0.00     0.257 C 
HETATM   11  C   UNK N   1      35.474   8.625  16.834  0.00  0.00     0.156 C 
HETATM   12  C   UNK N   1      35.252  13.492  17.341  0.00  0.00     0.015 A 
HETATM   13  C   UNK N   1      35.296  11.024  18.759  0.00  0.00     0.030 A 
HETATM   14  C   UNK N   1      35.177  13.471  18.749  0.00  0.00     0.001 A 
HETATM   15  C   UNK N   1      35.198  12.244  19.452  0.00  0.00     0.002 A 
ENDROOT
BRANCH   2  16
HETATM   16  C   UNK N   1      34.907  12.900  11.714  0.00  0.00     0.185 C 
BRANCH  16  17
HETATM   17  C   UNK N   1      36.140  13.449  11.039  0.00  0.00     0.050 A 
HETATM   18  N   UNK N   1      37.142  12.639  10.654  0.00  0.00    -0.353 N 
HETATM   19  C   UNK N   1      38.096  13.451  10.153  0.00  0.00     0.180 A 
ATOM     20  HN  UNK N   1      37.173  11.622  10.724  1.00  0.00     0.166 HD
HETATM   21  N   UNK N   1      37.734  14.751  10.213  0.00  0.00    -0.354 N 
HETATM   22  C   UNK N   1      36.513  14.754  10.769  0.00  0.00     0.030 A 
HETATM   23  H   UNK N   1      38.255  15.530   9.913  0.00  0.00     0.166 HD
HETATM   24  C   UNK N   1      35.763  16.011  11.029  0.00  0.00     0.070 C 
ENDBRANCH  16  17
ENDBRANCH   2  16
TORSDOF 2
ENDMDL
MODEL 3
REMARK VINA RESULT:      -6.8      9.439     13.152
REMARK  2 active torsions:
REMARK  status: ('A' for Active; 'I' for Inactive)
REMARK    1  A    between atoms: N_2  and  C_14 
REMARK    2  A    between atoms: C_14  and  C_18 
ROOT
HETATM    1  O   UNK N   1      19.412  15.302   7.788  0.00  0.00    -0.267 OA
HETATM    2  N   UNK N   1      20.665  15.574   5.925  0.00  0.00    -0.342 N 
HETATM    3  N   UNK N   1      23.695  13.720   8.090  0.00  0.00    -0.353 N 
HETATM    4  C   UNK N   1      22.844  14.444   7.330  0.00  0.00     0.029 A 
HETATM    5  C   UNK N   1      23.150  15.150   6.056  0.00  0.00     0.078 C 
HETATM    6  C   UNK N   1      21.591  14.458   7.888  0.00  0.00     0.067 A 
HETATM    7  C   UNK N   1      21.874  15.196   5.192  0.00  0.00     0.132 C 
HETATM    8  C   UNK N   1      21.671  13.709   9.047  0.00  0.00     0.008 A 
HETATM    9  C   UNK N   1      22.973  13.264   9.134  0.00  0.00     0.045 A 
HETATM   10  C   UNK N   1      20.481  15.150   7.219  0.00  0.00     0.257 C 
HETATM   11  C   UNK N   1      25.101  13.467   7.818  0.00  0.00     0.156 C 
HETATM   12  C   UNK N   1      20.712  13.357   9.991  0.00  0.00     0.015 A 
HETATM   13  C   UNK N   1      23.401  12.442  10.174  0.00  0.00     0.030 A 
HETATM   14  C   UNK N   1      21.116  12.525  11.054  0.00  0.00     0.001 A 
HETATM   15  C   UNK N   1      22.452  12.070  11.144  0.00  0.00     0.002 A 
ENDROOT
BRANCH   2  16
HETATM   16  C   UNK N   1      19.546  16.098   5.168  0.00  0.00     0.185 C 
BRANCH  16  17
HETATM   17  C   UNK N   1      19.893  16.822   3.890  0.00  0.00     0.050 A 
HETATM   18  N   UNK N   1      19.565  16.313   2.690  0.00  0.00    -0.353 N 
HETATM   19  C   UNK N   1      20.073  17.170   1.779  0.00  0.00     0.180 A 
ATOM     20  HN  UNK N   1      19.040  15.459   2.507  1.00  0.00     0.166 HD
HETATM   21  N   UNK N   1      20.717  18.203   2.363  0.00  0.00    -0.354 N 
HETATM   22  C   UNK N   1      20.609  17.988   3.682  0.00  0.00     0.030 A 
HETATM   23  H   UNK N   1      21.169  18.953   1.915  0.00  0.00     0.166 HD
HETATM   24  C   UNK N   1      21.211  18.904   4.687  0.00  0.00     0.070 C 
ENDBRANCH  16  17
ENDBRANCH   2  16
TORSDOF 2
ENDMDL
MODEL 4
REMARK VINA RESULT:      -6.7      2.618      4.000
REMARK  2 active torsions:
REMARK  status: ('A' for Active; 'I' for Inactive)
REMARK    1  A    between atoms: N_2  and  C_14 
REMARK    2  A    between atoms: C_14  and  C_18 
ROOT
HETATM    1  O   UNK N   1      29.282  18.621   8.526  0.00  0.00    -0.267 OA
HETATM    2  N   UNK N   1      30.331  16.768   7.763  0.00  0.00    -0.342 N 
HETATM    3  N   UNK N   1      28.038  17.281   4.330  0.00  0.00    -0.353 N 
HETATM    4  C   UNK N   1      28.739  16.930   5.431  0.00  0.00     0.029 A 
HETATM    5  C   UNK N   1      29.470  15.655   5.668  0.00  0.00     0.078 C 
HETATM    6  C   UNK N   1      28.710  17.937   6.363  0.00  0.00     0.067 A 
HETATM    7  C   UNK N   1      30.659  15.928   6.610  0.00  0.00     0.132 C 
HETATM    8  C   UNK N   1      27.954  18.955   5.814  0.00  0.00     0.008 A 
HETATM    9  C   UNK N   1      27.567  18.522   4.564  0.00  0.00     0.045 A 
HETATM   10  C   UNK N   1      29.439  17.804   7.632  0.00  0.00     0.257 C 
HETATM   11  C   UNK N   1      27.852  16.483   3.129  0.00  0.00     0.156 C 
HETATM   12  C   UNK N   1      27.617  20.219   6.289  0.00  0.00     0.015 A 
HETATM   13  C   UNK N   1      26.813  19.325   3.709  0.00  0.00     0.030 A 
HETATM   14  C   UNK N   1      26.856  21.052   5.446  0.00  0.00     0.001 A 
HETATM   15  C   UNK N   1      26.457  20.608   4.163  0.00  0.00     0.002 A 
ENDROOT
BRANCH   2  16
HETATM   16  C   UNK N   1      31.200  16.702   8.921  0.00  0.00     0.185 C 
BRANCH  16  17
HETATM   17  C   UNK N   1      32.644  17.075   8.687  0.00  0.00     0.050 A 
HETATM   18  N   UNK N   1      32.977  18.255   8.136  0.00  0.00    -0.353 N 
HETATM   19  C   UNK N   1      34.321  18.235   8.015  0.00  0.00     0.180 A 
ATOM     20  HN  UNK N   1      32.345  19.009   7.868  1.00  0.00     0.166 HD
HETATM   21  N   UNK N   1      34.850  17.078   8.466  0.00  0.00    -0.354 N 
HETATM   22  C   UNK N   1      33.805  16.349   8.885  0.00  0.00     0.030 A 
HETATM   23  H   UNK N   1      35.801  16.824   8.484  0.00  0.00     0.166 HD
HETATM   24  C   UNK N   1      33.965  14.981   9.444  0.00  0.00     0.070 C 
ENDBRANCH  16  17
ENDBRANCH   2  16
TORSDOF 2
ENDMDL
MODEL 5
REMARK VINA RESULT:      -6.6     14.001     16.757
REMARK  2 active torsions:
REMARK  status: ('A' for Active; 'I' for Inactive)
REMARK    1  A    between atoms: N_2  and  C_14 
REMARK    2  A    between atoms: C_14  and  C_18 
ROOT
HETATM    1  O   UNK N   1      25.360  24.633  -6.262  0.00  0.00    -0.267 OA
HETATM    2  N   UNK N   1      26.598  25.802  -4.772  0.00  0.00    -0.342 N 
HETATM    3  N   UNK N   1      29.387  22.742  -5.187  0.00  0.00    -0.353 N 
HETATM    4  C   UNK N   1      28.516  23.724  -4.866  0.00  0.00     0.029 A 
HETATM    5  C   UNK N   1      28.633  24.707  -3.754  0.00  0.00     0.078 C 
HETATM    6  C   UNK N   1      27.448  23.723  -5.728  0.00  0.00     0.067 A 
HETATM    7  C   UNK N   1      27.912  26.008  -4.161  0.00  0.00     0.132 C 
HETATM    8  C   UNK N   1      27.669  22.692  -6.622  0.00  0.00     0.008 A 
HETATM    9  C   UNK N   1      28.871  22.119  -6.265  0.00  0.00     0.045 A 
HETATM   10  C   UNK N   1      26.385  24.730  -5.605  0.00  0.00     0.257 C 
HETATM   11  C   UNK N   1      30.639  22.439  -4.513  0.00  0.00     0.156 C 
HETATM   12  C   UNK N   1      26.943  22.248  -7.722  0.00  0.00     0.015 A 
HETATM   13  C   UNK N   1      29.422  21.060  -6.985  0.00  0.00     0.030 A 
HETATM   14  C   UNK N   1      27.477  21.179  -8.469  0.00  0.00     0.001 A 
HETATM   15  C   UNK N   1      28.709  20.590  -8.103  0.00  0.00     0.002 A 
ENDROOT
BRANCH   2  16
HETATM   16  C   UNK N   1      25.659  26.906  -4.756  0.00  0.00     0.185 C 
BRANCH  16  17
HETATM   17  C   UNK N   1      26.247  28.270  -4.495  0.00  0.00     0.050 A 
HETATM   18  N   UNK N   1      25.929  28.965  -3.388  0.00  0.00    -0.353 N 
HETATM   19  C   UNK N   1      26.571  30.147  -3.501  0.00  0.00     0.180 A 
ATOM     20  HN  UNK N   1      25.328  28.661  -2.622  1.00  0.00     0.166 HD
HETATM   21  N   UNK N   1      27.282  30.226  -4.646  0.00  0.00    -0.354 N 
HETATM   22  C   UNK N   1      27.081  29.056  -5.271  0.00  0.00     0.030 A 
HETATM   23  H   UNK N   1      27.832  30.981  -4.956  0.00  0.00     0.166 HD
HETATM   24  C   UNK N   1      27.685  28.749  -6.594  0.00  0.00     0.070 C 
ENDBRANCH  16  17
ENDBRANCH   2  16
TORSDOF 2
ENDMDL
MODEL 6
REMARK VINA RESULT:      -6.6      7.816     10.866
REMARK  2 active torsions:
REMARK  status: ('A' for Active; 'I' for Inactive)
REMARK    1  A    between atoms: N_2  and  C_14 
REMARK    2  A    between atoms: C_14  and  C_18 
ROOT
HETATM    1  O   UNK N   1      24.022  14.964   5.423  0.00  0.00    -0.267 OA
HETATM    2  N   UNK N   1      23.237  17.067   5.149  0.00  0.00    -0.342 N 
HETATM    3  N   UNK N   1      20.549  16.107   8.175  0.00  0.00    -0.353 N 
HETATM    4  C   UNK N   1      21.274  16.498   7.104  0.00  0.00     0.029 A 
HETATM    5  C   UNK N   1      21.072  17.716   6.272  0.00  0.00     0.078 C 
HETATM    6  C   UNK N   1      22.281  15.601   6.849  0.00  0.00     0.067 A 
HETATM    7  C   UNK N   1      22.432  18.160   5.698  0.00  0.00     0.132 C 
HETATM    8  C   UNK N   1      22.172  14.610   7.806  0.00  0.00     0.008 A 
HETATM    9  C   UNK N   1      21.106  14.958   8.608  0.00  0.00     0.045 A 
HETATM   10  C   UNK N   1      23.232  15.834   5.753  0.00  0.00     0.257 C 
HETATM   11  C   UNK N   1      19.412  16.803   8.754  0.00  0.00     0.156 C 
HETATM   12  C   UNK N   1      22.936  13.474   8.055  0.00  0.00     0.015 A 
HETATM   13  C   UNK N   1      20.732  14.188   9.707  0.00  0.00     0.030 A 
HETATM   14  C   UNK N   1      22.581  12.677   9.161  0.00  0.00     0.001 A 
HETATM   15  C   UNK N   1      21.486  13.033   9.983  0.00  0.00     0.002 A 
ENDROOT
BRANCH   2  16
HETATM   16  C   UNK N   1      24.273  17.401   4.191  0.00  0.00     0.185 C 
BRANCH  16  17
HETATM   17  C   UNK N   1      25.173  18.553   4.564  0.00  0.00     0.050 A 
HETATM   18  N   UNK N   1      26.059  18.446   5.569  0.00  0.00    -0.353 N 
HETATM   19  C   UNK N   1      26.643  19.659   5.672  0.00  0.00     0.180 A 
ATOM     20  HN  UNK N   1      26.251  17.620   6.135  1.00  0.00     0.166 HD
HETATM   21  N   UNK N   1      26.151  20.533   4.767  0.00  0.00    -0.354 N 
HETATM   22  C   UNK N   1      25.230  19.846   4.075  0.00  0.00     0.030 A 
HETATM   23  H   UNK N   1      26.413  21.473   4.643  0.00  0.00     0.166 HD
HETATM   24  C   UNK N   1      24.435  20.466   2.982  0.00  0.00     0.070 C 
ENDBRANCH  16  17
ENDBRANCH   2  16
TORSDOF 2
ENDMDL
MODEL 7
REMARK VINA RESULT:      -6.6      5.852     11.024
REMARK  2 active torsions:
REMARK  status: ('A' for Active; 'I' for Inactive)
REMARK    1  A    between atoms: N_2  and  C_14 
REMARK    2  A    between atoms: C_14  and  C_18 
ROOT
HETATM    1  O   UNK N   1      36.709  14.235  14.200  0.00  0.00    -0.267 OA
HETATM    2  N   UNK N   1      37.000  12.416  12.889  0.00  0.00    -0.342 N 
HETATM    3  N   UNK N   1      36.456  10.219  16.379  0.00  0.00    -0.353 N 
HETATM    4  C   UNK N   1      36.776  10.814  15.209  0.00  0.00     0.029 A 
HETATM    5  C   UNK N   1      37.314  10.162  13.983  0.00  0.00     0.078 C 
HETATM    6  C   UNK N   1      36.534  12.163  15.271  0.00  0.00     0.067 A 
HETATM    7  C   UNK N   1      36.856  10.966  12.749  0.00  0.00     0.132 C 
HETATM    8  C   UNK N   1      36.044  12.414  16.538  0.00  0.00     0.008 A 
HETATM    9  C   UNK N   1      36.001  11.198  17.187  0.00  0.00     0.045 A 
HETATM   10  C   UNK N   1      36.766  13.020  14.100  0.00  0.00     0.257 C 
HETATM   11  C   UNK N   1      36.563   8.803  16.691  0.00  0.00     0.156 C 
HETATM   12  C   UNK N   1      35.604  13.585  17.147  0.00  0.00     0.015 A 
HETATM   13  C   UNK N   1      35.519  11.076  18.489  0.00  0.00     0.030 A 
HETATM   14  C   UNK N   1      35.110  13.492  18.463  0.00  0.00     0.001 A 
HETATM   15  C   UNK N   1      35.067  12.244  19.129  0.00  0.00     0.002 A 
ENDROOT
BRANCH   2  16
HETATM   16  C   UNK N   1      37.056  13.213  11.680  0.00  0.00     0.185 C 
BRANCH  16  17
HETATM   17  C   UNK N   1      35.731  13.705  11.150  0.00  0.00     0.050 A 
HETATM   18  N   UNK N   1      35.245  14.908  11.501  0.00  0.00    -0.353 N 
HETATM   19  C   UNK N   1      34.035  15.000  10.909  0.00  0.00     0.180 A 
ATOM     20  HN  UNK N   1      35.697  15.607  12.090  1.00  0.00     0.166 HD
HETATM   21  N   UNK N   1      33.736  13.891  10.199  0.00  0.00    -0.354 N 
HETATM   22  C   UNK N   1      34.792  13.078  10.349  0.00  0.00     0.030 A 
HETATM   23  H   UNK N   1      32.917  13.717   9.682  0.00  0.00     0.166 HD
HETATM   24  C   UNK N   1      34.849  11.728   9.729  0.00  0.00     0.070 C 
ENDBRANCH  16  17
ENDBRANCH   2  16
TORSDOF 2
ENDMDL
MODEL 8
REMARK VINA RESULT:      -6.5      3.422      7.895
REMARK  2 active torsions:
REMARK  status: ('A' for Active; 'I' for Inactive)
REMARK    1  A    between atoms: N_2  and  C_14 
REMARK    2  A    between atoms: C_14  and  C_18 
ROOT
HETATM    1  O   UNK N   1      29.157  16.758   3.209  0.00  0.00    -0.267 OA
HETATM    2  N   UNK N   1      27.391  17.033   4.596  0.00  0.00    -0.342 N 
HETATM    3  N   UNK N   1      30.220  17.132   7.644  0.00  0.00    -0.353 N 
HETATM    4  C   UNK N   1      29.201  16.987   6.769  0.00  0.00     0.029 A 
HETATM    5  C   UNK N   1      27.754  16.831   7.086  0.00  0.00     0.078 C 
HETATM    6  C   UNK N   1      29.666  17.006   5.479  0.00  0.00     0.067 A 
HETATM    7  C   UNK N   1      26.923  17.420   5.928  0.00  0.00     0.132 C 
HETATM    8  C   UNK N   1      31.036  17.167   5.560  0.00  0.00     0.008 A 
HETATM    9  C   UNK N   1      31.340  17.250   6.903  0.00  0.00     0.045 A 
HETATM   10  C   UNK N   1      28.736  16.907   4.346  0.00  0.00     0.257 C 
HETATM   11  C   UNK N   1      30.120  17.173   9.094  0.00  0.00     0.156 C 
HETATM   12  C   UNK N   1      32.015  17.285   4.579  0.00  0.00     0.015 A 
HETATM   13  C   UNK N   1      32.643  17.452   7.350  0.00  0.00     0.030 A 
HETATM   14  C   UNK N   1      33.343  17.492   5.002  0.00  0.00     0.001 A 
HETATM   15  C   UNK N   1      33.655  17.576   6.380  0.00  0.00     0.002 A 
ENDROOT
BRANCH   2  16
HETATM   16  C   UNK N   1      26.454  17.122   3.494  0.00  0.00     0.185 C 
BRANCH  16  17
HETATM   17  C   UNK N   1      25.345  18.134   3.649  0.00  0.00     0.050 A 
HETATM   18  N   UNK N   1      24.075  17.747   3.864  0.00  0.00    -0.353 N 
HETATM   19  C   UNK N   1      23.347  18.884   3.890  0.00  0.00     0.180 A 
ATOM     20  HN  UNK N   1      23.734  16.794   3.985  1.00  0.00     0.166 HD
HETATM   21  N   UNK N   1      24.113  19.977   3.693  0.00  0.00    -0.354 N 
HETATM   22  C   UNK N   1      25.362  19.513   3.539  0.00  0.00     0.030 A 
HETATM   23  H   UNK N   1      23.818  20.916   3.667  0.00  0.00     0.166 HD
HETATM   24  C   UNK N   1      26.517  20.413   3.279  0.00  0.00     0.070 C 
ENDBRANCH  16  17
ENDBRANCH   2  16
TORSDOF 2
ENDMDL
MODEL 9
REMARK VINA RESULT:      -6.4      7.060     11.605
REMARK  2 active torsions:
REMARK  status: ('A' for Active; 'I' for Inactive)
REMARK    1  A    between atoms: N_2  and  C_14 
REMARK    2  A    between atoms: C_14  and  C_18 
ROOT
HETATM    1  O   UNK N   1      22.762  18.892   4.144  0.00  0.00    -0.267 OA
HETATM    2  N   UNK N   1      22.848  16.691   3.629  0.00  0.00    -0.342 N 
HETATM    3  N   UNK N   1      26.978  17.188   3.630  0.00  0.00    -0.353 N 
HETATM    4  C   UNK N   1      25.662  16.925   3.471  0.00  0.00     0.029 A 
HETATM    5  C   UNK N   1      25.049  15.695   2.898  0.00  0.00     0.078 C 
HETATM    6  C   UNK N   1      24.903  17.974   3.925  0.00  0.00     0.067 A 
HETATM    7  C   UNK N   1      23.665  15.480   3.543  0.00  0.00     0.132 C 
HETATM    8  C   UNK N   1      25.790  18.929   4.385  0.00  0.00     0.008 A 
HETATM    9  C   UNK N   1      27.053  18.409   4.196  0.00  0.00     0.045 A 
HETATM   10  C   UNK N   1      23.435  17.904   3.896  0.00  0.00     0.257 C 
HETATM   11  C   UNK N   1      28.086  16.313   3.279  0.00  0.00     0.156 C 
HETATM   12  C   UNK N   1      25.590  20.171   4.978  0.00  0.00     0.015 A 
HETATM   13  C   UNK N   1      28.198  19.101   4.586  0.00  0.00     0.030 A 
HETATM   14  C   UNK N   1      26.730  20.893   5.382  0.00  0.00     0.001 A 
HETATM   15  C   UNK N   1      28.026  20.360   5.188  0.00  0.00     0.002 A 
ENDROOT
BRANCH   2  16
HETATM   16  C   UNK N   1      21.413  16.535   3.766  0.00  0.00     0.185 C 
BRANCH  16  17
HETATM   17  C   UNK N   1      20.606  16.709   2.502  0.00  0.00     0.050 A 
HETATM   18  N   UNK N   1      20.594  15.762   1.548  0.00  0.00    -0.353 N 
HETATM   19  C   UNK N   1      19.837  16.261   0.548  0.00  0.00     0.180 A 
ATOM     20  HN  UNK N   1      21.060  14.856   1.575  1.00  0.00     0.166 HD
HETATM   21  N   UNK N   1      19.372  17.496   0.836  0.00  0.00    -0.354 N 
HETATM   22  C   UNK N   1      19.853  17.781   2.055  0.00  0.00     0.030 A 
HETATM   23  H   UNK N   1      18.802  18.065   0.271  0.00  0.00     0.166 HD
HETATM   24  C   UNK N   1      19.580  19.075   2.733  0.00  0.00     0.070 C 
ENDBRANCH  16  17
ENDBRANCH   2  16
TORSDOF 2
ENDMDL
