REMARK  11 active torsions:
REMARK  status: ('A' for Active; 'I' for Inactive)
REMARK    1  A    between atoms: O_7  and  C_1 
REMARK    2  A    between atoms: C_2  and  C_1 
REMARK    3  A    between atoms: C_2  and  O_8 
REMARK    4  A    between atoms: C_3  and  C_2 
REMARK    5  A    between atoms: C_3  and  O_9 
REMARK    6  A    between atoms: C_4  and  C_3 
REMARK    7  A    between atoms: C_4  and  O_10 
REMARK    8  A    between atoms: C_5  and  C_4 
REMARK    9  A    between atoms: C_5  and  O_11 
REMARK   10  A    between atoms: C_6  and  C_5 
REMARK   11  A    between atoms: O_12  and  C_6 
ROOT
HETATM    1  C   UNK N   1       5.441  -2.754   0.273  0.00  0.00     0.180 C 
ENDROOT
BRANCH   1   2
HETATM    2  C   UNK N   1       4.294  -3.617  -0.290  0.00  0.00     0.173 C 
BRANCH   2   3
HETATM    3  C   UNK N   1       2.952  -3.245   0.327  0.00  0.00     0.198 C 
BRANCH   3   4
HETATM    4  O   UNK N   1       2.502  -2.020  -0.167  0.00  0.00    -0.398 OA
HETATM    5  H   UNK N   1       3.083  -1.324  -0.511  0.00  0.00     0.209 HD
ENDBRANCH   3   4
ENDBRANCH   2   3
BRANCH   2   6
HETATM    6  O   UNK N   1       4.519  -4.970  -0.023  0.00  0.00    -0.391 OA
HETATM    7  H   UNK N   1       3.783  -5.574   0.163  0.00  0.00     0.210 HD
ENDBRANCH   2   6
ENDBRANCH   1   2
BRANCH   1   8
HETATM    8  O   UNK N   1       5.182  -1.410  -0.021  0.00  0.00    -0.390 OA
HETATM    9  H   UNK N   1       5.899  -0.789  -0.225  0.00  0.00     0.210 HD
ENDBRANCH   1   8
BRANCH   1  10
HETATM   10  C   UNK N   1       6.822  -3.149  -0.292  0.00  0.00     0.180 C 
BRANCH  10  11
HETATM   11  O   UNK N   1       7.067  -4.499  -0.016  0.00  0.00    -0.390 OA
HETATM   12  H   UNK N   1       6.342  -5.113   0.176  0.00  0.00     0.210 HD
ENDBRANCH  10  11
BRANCH  10  13
HETATM   13  C   UNK N   1       7.973  -2.309   0.294  0.00  0.00     0.173 C 
BRANCH  13  14
HETATM   14  O   UNK N   1       7.789  -0.956   0.004  0.00  0.00    -0.391 OA
HETATM   15  H   UNK N   1       8.539  -0.375  -0.198  0.00  0.00     0.210 HD
ENDBRANCH  13  14
BRANCH  13  16
HETATM   16  C   UNK N   1       9.325  -2.729  -0.274  0.00  0.00     0.198 C 
BRANCH  16  17
HETATM   17  O   UNK N   1       9.689  -3.996   0.186  0.00  0.00    -0.398 OA
HETATM   18  H   UNK N   1       9.052  -4.655   0.505  0.00  0.00     0.209 HD
ENDBRANCH  16  17
ENDBRANCH  13  16
ENDBRANCH  10  13
ENDBRANCH   1  10
TORSDOF 11
