MODEL 1
REMARK VINA RESULT:      -4.5      0.000      0.000
REMARK  11 active torsions:
REMARK  status: ('A' for Active; 'I' for Inactive)
REMARK    1  A    between atoms: O_7  and  C_1 
REMARK    2  A    between atoms: C_2  and  C_1 
REMARK    3  A    between atoms: C_2  and  O_8 
REMARK    4  A    between atoms: C_3  and  C_2 
REMARK    5  A    between atoms: C_3  and  O_9 
REMARK    6  A    between atoms: C_4  and  C_3 
REMARK    7  A    between atoms: C_4  and  O_10 
REMARK    8  A    between atoms: C_5  and  C_4 
REMARK    9  A    between atoms: C_5  and  O_11 
REMARK   10  A    between atoms: C_6  and  C_5 
REMARK   11  A    between atoms: O_12  and  C_6 
ROOT
HETATM    1  C   UNK N   1      20.852  17.896   2.399  0.00  0.00     0.180 C 
ENDROOT
BRANCH   1   2
HETATM    2  C   UNK N   1      19.998  17.226   1.304  0.00  0.00     0.173 C 
BRANCH   2   3
HETATM    3  C   UNK N   1      20.208  15.717   1.269  0.00  0.00     0.198 C 
BRANCH   3   4
HETATM    4  O   UNK N   1      19.252  15.066   2.049  0.00  0.00    -0.398 OA
HETATM    5  H   UNK N   1      19.462  14.446   2.764  0.00  0.00     0.209 HD
ENDBRANCH   3   4
ENDBRANCH   2   3
BRANCH   2   6
HETATM    6  O   UNK N   1      20.334  17.726   0.043  0.00  0.00    -0.391 OA
HETATM    7  H   UNK N   1      20.584  17.133  -0.682  0.00  0.00     0.210 HD
ENDBRANCH   2   6
ENDBRANCH   1   2
BRANCH   1   8
HETATM    8  O   UNK N   1      20.773  17.128   3.567  0.00  0.00    -0.390 OA
HETATM    9  H   UNK N   1      20.013  17.194   4.167  0.00  0.00     0.210 HD
ENDBRANCH   1   8
BRANCH   1  10
HETATM   10  C   UNK N   1      20.410  19.343   2.703  0.00  0.00     0.180 C 
BRANCH  10  11
HETATM   11  O   UNK N   1      19.101  19.534   2.245  0.00  0.00    -0.390 OA
HETATM   12  H   UNK N   1      18.358  19.043   2.627  0.00  0.00     0.210 HD
ENDBRANCH  10  11
BRANCH  10  13
HETATM   13  C   UNK N   1      21.320  20.399   2.047  0.00  0.00     0.173 C 
BRANCH  13  14
HETATM   14  O   UNK N   1      21.798  21.297   3.003  0.00  0.00    -0.391 OA
HETATM   15  H   UNK N   1      21.484  21.273   3.921  0.00  0.00     0.210 HD
ENDBRANCH  13  14
BRANCH  13  16
HETATM   16  C   UNK N   1      20.579  21.201   0.982  0.00  0.00     0.198 C 
BRANCH  16  17
HETATM   17  O   UNK N   1      20.550  20.514  -0.233  0.00  0.00    -0.398 OA
HETATM   18  H   UNK N   1      20.059  19.688  -0.371  0.00  0.00     0.209 HD
ENDBRANCH  16  17
ENDBRANCH  13  16
ENDBRANCH  10  13
ENDBRANCH   1  10
TORSDOF 11
ENDMDL
MODEL 2
REMARK VINA RESULT:      -4.5     18.063     19.242
REMARK  11 active torsions:
REMARK  status: ('A' for Active; 'I' for Inactive)
REMARK    1  A    between atoms: O_7  and  C_1 
REMARK    2  A    between atoms: C_2  and  C_1 
REMARK    3  A    between atoms: C_2  and  O_8 
REMARK    4  A    between atoms: C_3  and  C_2 
REMARK    5  A    between atoms: C_3  and  O_9 
REMARK    6  A    between atoms: C_4  and  C_3 
REMARK    7  A    between atoms: C_4  and  O_10 
REMARK    8  A    between atoms: C_5  and  C_4 
REMARK    9  A    between atoms: C_5  and  O_11 
REMARK   10  A    between atoms: C_6  and  C_5 
REMARK   11  A    between atoms: O_12  and  C_6 
ROOT
HETATM    1  C   UNK N   1      35.894  13.660  12.565  0.00  0.00     0.180 C 
ENDROOT
BRANCH   1   2
HETATM    2  C   UNK N   1      35.566  13.608  14.071  0.00  0.00     0.173 C 
BRANCH   2   3
HETATM    3  C   UNK N   1      36.720  13.031  14.881  0.00  0.00     0.198 C 
BRANCH   3   4
HETATM    4  O   UNK N   1      37.574  14.044  15.318  0.00  0.00    -0.398 OA
HETATM    5  H   UNK N   1      37.780  14.842  14.807  0.00  0.00     0.209 HD
ENDBRANCH   3   4
ENDBRANCH   2   3
BRANCH   2   6
HETATM    6  O   UNK N   1      34.446  12.805  14.303  0.00  0.00    -0.391 OA
HETATM    7  H   UNK N   1      34.527  11.948  14.749  0.00  0.00     0.210 HD
ENDBRANCH   2   6
ENDBRANCH   1   2
BRANCH   1   8
HETATM    8  O   UNK N   1      37.283  13.739  12.407  0.00  0.00    -0.390 OA
HETATM    9  H   UNK N   1      37.769  14.556  12.600  0.00  0.00     0.210 HD
ENDBRANCH   1   8
BRANCH   1  10
HETATM   10  C   UNK N   1      35.224  14.850  11.846  0.00  0.00     0.180 C 
BRANCH  10  11
HETATM   11  O   UNK N   1      33.899  14.520  11.539  0.00  0.00    -0.390 OA
HETATM   12  H   UNK N   1      33.173  14.742  12.142  0.00  0.00     0.210 HD
ENDBRANCH  10  11
BRANCH  10  13
HETATM   13  C   UNK N   1      35.947  15.249  10.545  0.00  0.00     0.173 C 
BRANCH  13  14
HETATM   14  O   UNK N   1      37.026  16.091  10.823  0.00  0.00    -0.391 OA
HETATM   15  H   UNK N   1      37.639  15.904  11.550  0.00  0.00     0.210 HD
ENDBRANCH  13  14
BRANCH  13  16
HETATM   16  C   UNK N   1      35.017  15.983   9.584  0.00  0.00     0.198 C 
BRANCH  16  17
HETATM   17  O   UNK N   1      34.491  17.132  10.178  0.00  0.00    -0.398 OA
HETATM   18  H   UNK N   1      33.550  17.370  10.147  0.00  0.00     0.209 HD
ENDBRANCH  16  17
ENDBRANCH  13  16
ENDBRANCH  10  13
ENDBRANCH   1  10
TORSDOF 11
ENDMDL
MODEL 3
REMARK VINA RESULT:      -4.4     17.989     19.388
REMARK  11 active torsions:
REMARK  status: ('A' for Active; 'I' for Inactive)
REMARK    1  A    between atoms: O_7  and  C_1 
REMARK    2  A    between atoms: C_2  and  C_1 
REMARK    3  A    between atoms: C_2  and  O_8 
REMARK    4  A    between atoms: C_3  and  C_2 
REMARK    5  A    between atoms: C_3  and  O_9 
REMARK    6  A    between atoms: C_4  and  C_3 
REMARK    7  A    between atoms: C_4  and  O_10 
REMARK    8  A    between atoms: C_5  and  C_4 
REMARK    9  A    between atoms: C_5  and  O_11 
REMARK   10  A    between atoms: C_6  and  C_5 
REMARK   11  A    between atoms: O_12  and  C_6 
ROOT
HETATM    1  C   UNK N   1      35.194  14.689  11.513  0.00  0.00     0.180 C 
ENDROOT
BRANCH   1   2
HETATM    2  C   UNK N   1      35.716  16.101  11.179  0.00  0.00     0.173 C 
BRANCH   2   3
HETATM    3  C   UNK N   1      34.954  16.725  10.018  0.00  0.00     0.198 C 
BRANCH   3   4
HETATM    4  O   UNK N   1      35.443  18.000   9.732  0.00  0.00    -0.398 OA
HETATM    5  H   UNK N   1      35.941  18.547  10.359  0.00  0.00     0.209 HD
ENDBRANCH   3   4
ENDBRANCH   2   3
BRANCH   2   6
HETATM    6  O   UNK N   1      37.066  16.055  10.819  0.00  0.00    -0.391 OA
HETATM    7  H   UNK N   1      37.532  15.209  10.726  0.00  0.00     0.210 HD
ENDBRANCH   2   6
ENDBRANCH   1   2
BRANCH   1   8
HETATM    8  O   UNK N   1      33.795  14.722  11.552  0.00  0.00    -0.390 OA
HETATM    9  H   UNK N   1      33.279  15.148  10.850  0.00  0.00     0.210 HD
ENDBRANCH   1   8
BRANCH   1  10
HETATM   10  C   UNK N   1      35.736  14.151  12.854  0.00  0.00     0.180 C 
BRANCH  10  11
HETATM   11  O   UNK N   1      36.673  15.053  13.371  0.00  0.00    -0.390 OA
HETATM   12  H   UNK N   1      37.483  14.744  13.804  0.00  0.00     0.210 HD
ENDBRANCH  10  11
BRANCH  10  13
HETATM   13  C   UNK N   1      36.403  12.769  12.721  0.00  0.00     0.173 C 
BRANCH  13  14
HETATM   14  O   UNK N   1      37.376  12.597  13.707  0.00  0.00    -0.391 OA
HETATM   15  H   UNK N   1      38.262  12.982  13.617  0.00  0.00     0.210 HD
ENDBRANCH  13  14
BRANCH  13  16
HETATM   16  C   UNK N   1      37.078  12.595  11.364  0.00  0.00     0.198 C 
BRANCH  16  17
HETATM   17  O   UNK N   1      38.269  13.321  11.301  0.00  0.00    -0.398 OA
HETATM   18  H   UNK N   1      39.141  12.939  11.489  0.00  0.00     0.209 HD
ENDBRANCH  16  17
ENDBRANCH  13  16
ENDBRANCH  10  13
ENDBRANCH   1  10
TORSDOF 11
ENDMDL
MODEL 4
REMARK VINA RESULT:      -4.4     16.016     17.447
REMARK  11 active torsions:
REMARK  status: ('A' for Active; 'I' for Inactive)
REMARK    1  A    between atoms: O_7  and  C_1 
REMARK    2  A    between atoms: C_2  and  C_1 
REMARK    3  A    between atoms: C_2  and  O_8 
REMARK    4  A    between atoms: C_3  and  C_2 
REMARK    5  A    between atoms: C_3  and  O_9 
REMARK    6  A    between atoms: C_4  and  C_3 
REMARK    7  A    between atoms: C_4  and  O_10 
REMARK    8  A    between atoms: C_5  and  C_4 
REMARK    9  A    between atoms: C_5  and  O_11 
REMARK   10  A    between atoms: C_6  and  C_5 
REMARK   11  A    between atoms: O_12  and  C_6 
ROOT
HETATM    1  C   UNK N   1      34.617  16.709  10.019  0.00  0.00     0.180 C 
ENDROOT
BRANCH   1   2
HETATM    2  C   UNK N   1      34.554  16.901   8.491  0.00  0.00     0.173 C 
BRANCH   2   3
HETATM    3  C   UNK N   1      34.236  18.342   8.115  0.00  0.00     0.198 C 
BRANCH   3   4
HETATM    4  O   UNK N   1      35.278  19.193   8.486  0.00  0.00    -0.398 OA
HETATM    5  H   UNK N   1      35.735  19.156   9.340  0.00  0.00     0.209 HD
ENDBRANCH   3   4
ENDBRANCH   2   3
BRANCH   2   6
HETATM    6  O   UNK N   1      33.560  16.092   7.933  0.00  0.00    -0.391 OA
HETATM    7  H   UNK N   1      33.777  15.410   7.279  0.00  0.00     0.210 HD
ENDBRANCH   2   6
ENDBRANCH   1   2
BRANCH   1   8
HETATM    8  O   UNK N   1      35.785  17.311  10.503  0.00  0.00    -0.390 OA
HETATM    9  H   UNK N   1      36.108  17.141  11.402  0.00  0.00     0.210 HD
ENDBRANCH   1   8
BRANCH   1  10
HETATM   10  C   UNK N   1      34.591  15.223  10.439  0.00  0.00     0.180 C 
BRANCH  10  11
HETATM   11  O   UNK N   1      33.348  14.925  11.009  0.00  0.00    -0.390 OA
HETATM   12  H   UNK N   1      33.230  14.892  11.970  0.00  0.00     0.210 HD
ENDBRANCH  10  11
BRANCH  10  13
HETATM   13  C   UNK N   1      35.696  14.866  11.450  0.00  0.00     0.173 C 
BRANCH  13  14
HETATM   14  O   UNK N   1      36.951  14.906  10.840  0.00  0.00    -0.391 OA
HETATM   15  H   UNK N   1      37.058  14.732   9.891  0.00  0.00     0.210 HD
ENDBRANCH  13  14
BRANCH  13  16
HETATM   16  C   UNK N   1      35.502  13.467  12.028  0.00  0.00     0.198 C 
BRANCH  16  17
HETATM   17  O   UNK N   1      34.506  13.464  13.006  0.00  0.00    -0.398 OA
HETATM   18  H   UNK N   1      33.742  14.062  12.996  0.00  0.00     0.209 HD
ENDBRANCH  16  17
ENDBRANCH  13  16
ENDBRANCH  10  13
ENDBRANCH   1  10
TORSDOF 11
ENDMDL
MODEL 5
REMARK VINA RESULT:      -4.2     15.884     16.990
REMARK  11 active torsions:
REMARK  status: ('A' for Active; 'I' for Inactive)
REMARK    1  A    between atoms: O_7  and  C_1 
REMARK    2  A    between atoms: C_2  and  C_1 
REMARK    3  A    between atoms: C_2  and  O_8 
REMARK    4  A    between atoms: C_3  and  C_2 
REMARK    5  A    between atoms: C_3  and  O_9 
REMARK    6  A    between atoms: C_4  and  C_3 
REMARK    7  A    between atoms: C_4  and  O_10 
REMARK    8  A    between atoms: C_5  and  C_4 
REMARK    9  A    between atoms: C_5  and  O_11 
REMARK   10  A    between atoms: C_6  and  C_5 
REMARK   11  A    between atoms: O_12  and  C_6 
ROOT
HETATM    1  C   UNK N   1      34.637  15.691  11.020  0.00  0.00     0.180 C 
ENDROOT
BRANCH   1   2
HETATM    2  C   UNK N   1      35.713  14.618  11.278  0.00  0.00     0.173 C 
BRANCH   2   3
HETATM    3  C   UNK N   1      35.649  14.086  12.704  0.00  0.00     0.198 C 
BRANCH   3   4
HETATM    4  O   UNK N   1      34.500  13.319  12.896  0.00  0.00    -0.398 OA
HETATM    5  H   UNK N   1      33.701  13.387  12.351  0.00  0.00     0.209 HD
ENDBRANCH   3   4
ENDBRANCH   2   3
BRANCH   2   6
HETATM    6  O   UNK N   1      36.992  15.145  11.082  0.00  0.00    -0.391 OA
HETATM    7  H   UNK N   1      37.717  14.945  11.695  0.00  0.00     0.210 HD
ENDBRANCH   2   6
ENDBRANCH   1   2
BRANCH   1   8
HETATM    8  O   UNK N   1      33.384  15.069  10.951  0.00  0.00    -0.390 OA
HETATM    9  H   UNK N   1      32.697  15.380  10.341  0.00  0.00     0.210 HD
ENDBRANCH   1   8
BRANCH   1  10
HETATM   10  C   UNK N   1      34.887  16.492   9.724  0.00  0.00     0.180 C 
BRANCH  10  11
HETATM   11  O   UNK N   1      35.518  17.700  10.040  0.00  0.00    -0.390 OA
HETATM   12  H   UNK N   1      35.196  18.263  10.760  0.00  0.00     0.210 HD
ENDBRANCH  10  11
BRANCH  10  13
HETATM   13  C   UNK N   1      33.591  16.800   8.949  0.00  0.00     0.173 C 
BRANCH  13  14
HETATM   14  O   UNK N   1      33.324  15.793   8.021  0.00  0.00    -0.391 OA
HETATM   15  H   UNK N   1      32.774  15.958   7.238  0.00  0.00     0.210 HD
ENDBRANCH  13  14
BRANCH  13  16
HETATM   16  C   UNK N   1      33.686  18.121   8.192  0.00  0.00     0.198 C 
BRANCH  16  17
HETATM   17  O   UNK N   1      34.629  18.042   7.165  0.00  0.00    -0.398 OA
HETATM   18  H   UNK N   1      35.346  17.388   7.143  0.00  0.00     0.209 HD
ENDBRANCH  16  17
ENDBRANCH  13  16
ENDBRANCH  10  13
ENDBRANCH   1  10
TORSDOF 11
ENDMDL
MODEL 6
REMARK VINA RESULT:      -4.2     17.738     19.211
REMARK  11 active torsions:
REMARK  status: ('A' for Active; 'I' for Inactive)
REMARK    1  A    between atoms: O_7  and  C_1 
REMARK    2  A    between atoms: C_2  and  C_1 
REMARK    3  A    between atoms: C_2  and  O_8 
REMARK    4  A    between atoms: C_3  and  C_2 
REMARK    5  A    between atoms: C_3  and  O_9 
REMARK    6  A    between atoms: C_4  and  C_3 
REMARK    7  A    between atoms: C_4  and  O_10 
REMARK    8  A    between atoms: C_5  and  C_4 
REMARK    9  A    between atoms: C_5  and  O_11 
REMARK   10  A    between atoms: C_6  and  C_5 
REMARK   11  A    between atoms: O_12  and  C_6 
ROOT
HETATM    1  C   UNK N   1      35.166  14.743  11.575  0.00  0.00     0.180 C 
ENDROOT
BRANCH   1   2
HETATM    2  C   UNK N   1      35.749  16.045  10.989  0.00  0.00     0.173 C 
BRANCH   2   3
HETATM    3  C   UNK N   1      35.101  16.405   9.658  0.00  0.00     0.198 C 
BRANCH   3   4
HETATM    4  O   UNK N   1      34.015  17.259   9.850  0.00  0.00    -0.398 OA
HETATM    5  H   UNK N   1      33.776  17.654  10.703  0.00  0.00     0.209 HD
ENDBRANCH   3   4
ENDBRANCH   2   3
BRANCH   2   6
HETATM    6  O   UNK N   1      37.122  15.912  10.766  0.00  0.00    -0.391 OA
HETATM    7  H   UNK N   1      37.718  15.609  11.469  0.00  0.00     0.210 HD
ENDBRANCH   2   6
ENDBRANCH   1   2
BRANCH   1   8
HETATM    8  O   UNK N   1      33.773  14.767  11.432  0.00  0.00    -0.390 OA
HETATM    9  H   UNK N   1      33.350  15.177  10.661  0.00  0.00     0.210 HD
ENDBRANCH   1   8
BRANCH   1  10
HETATM   10  C   UNK N   1      35.529  14.539  13.061  0.00  0.00     0.180 C 
BRANCH  10  11
HETATM   11  O   UNK N   1      36.834  14.991  13.286  0.00  0.00    -0.390 OA
HETATM   12  H   UNK N   1      37.601  14.434  13.084  0.00  0.00     0.210 HD
ENDBRANCH  10  11
BRANCH  10  13
HETATM   13  C   UNK N   1      35.433  13.067  13.506  0.00  0.00     0.173 C 
BRANCH  13  14
HETATM   14  O   UNK N   1      34.297  12.464  12.963  0.00  0.00    -0.391 OA
HETATM   15  H   UNK N   1      33.884  11.693  13.382  0.00  0.00     0.210 HD
ENDBRANCH  13  14
BRANCH  13  16
HETATM   16  C   UNK N   1      35.349  12.940  15.024  0.00  0.00     0.198 C 
BRANCH  16  17
HETATM   17  O   UNK N   1      36.505  13.431  15.632  0.00  0.00    -0.398 OA
HETATM   18  H   UNK N   1      37.174  13.958  15.166  0.00  0.00     0.209 HD
ENDBRANCH  16  17
ENDBRANCH  13  16
ENDBRANCH  10  13
ENDBRANCH   1  10
TORSDOF 11
ENDMDL
MODEL 7
REMARK VINA RESULT:      -4.1     15.468     16.808
REMARK  11 active torsions:
REMARK  status: ('A' for Active; 'I' for Inactive)
REMARK    1  A    between atoms: O_7  and  C_1 
REMARK    2  A    between atoms: C_2  and  C_1 
REMARK    3  A    between atoms: C_2  and  O_8 
REMARK    4  A    between atoms: C_3  and  C_2 
REMARK    5  A    between atoms: C_3  and  O_9 
REMARK    6  A    between atoms: C_4  and  C_3 
REMARK    7  A    between atoms: C_4  and  O_10 
REMARK    8  A    between atoms: C_5  and  C_4 
REMARK    9  A    between atoms: C_5  and  O_11 
REMARK   10  A    between atoms: C_6  and  C_5 
REMARK   11  A    between atoms: O_12  and  C_6 
ROOT
HETATM    1  C   UNK N   1      34.718  16.503   8.848  0.00  0.00     0.180 C 
ENDROOT
BRANCH   1   2
HETATM    2  C   UNK N   1      34.058  17.839   8.448  0.00  0.00     0.173 C 
BRANCH   2   3
HETATM    3  C   UNK N   1      32.598  17.653   8.057  0.00  0.00     0.198 C 
BRANCH   3   4
HETATM    4  O   UNK N   1      31.813  17.397   9.181  0.00  0.00    -0.398 OA
HETATM    5  H   UNK N   1      31.828  16.566   9.680  0.00  0.00     0.209 HD
ENDBRANCH   3   4
ENDBRANCH   2   3
BRANCH   2   6
HETATM    6  O   UNK N   1      34.718  18.405   7.354  0.00  0.00    -0.391 OA
HETATM    7  H   UNK N   1      35.246  17.861   6.749  0.00  0.00     0.210 HD
ENDBRANCH   2   6
ENDBRANCH   1   2
BRANCH   1   8
HETATM    8  O   UNK N   1      33.877  15.451   8.465  0.00  0.00    -0.390 OA
HETATM    9  H   UNK N   1      34.206  14.707   7.936  0.00  0.00     0.210 HD
ENDBRANCH   1   8
BRANCH   1  10
HETATM   10  C   UNK N   1      35.009  16.407  10.360  0.00  0.00     0.180 C 
BRANCH  10  11
HETATM   11  O   UNK N   1      36.352  16.723  10.595  0.00  0.00    -0.390 OA
HETATM   12  H   UNK N   1      36.626  17.626  10.814  0.00  0.00     0.210 HD
ENDBRANCH  10  11
BRANCH  10  13
HETATM   13  C   UNK N   1      34.722  15.009  10.939  0.00  0.00     0.173 C 
BRANCH  13  14
HETATM   14  O   UNK N   1      33.372  14.883  11.272  0.00  0.00    -0.391 OA
HETATM   15  H   UNK N   1      32.838  14.141  10.950  0.00  0.00     0.210 HD
ENDBRANCH  13  14
BRANCH  13  16
HETATM   16  C   UNK N   1      35.541  14.739  12.197  0.00  0.00     0.198 C 
BRANCH  16  17
HETATM   17  O   UNK N   1      36.820  14.281  11.874  0.00  0.00    -0.398 OA
HETATM   18  H   UNK N   1      37.598  14.418  12.437  0.00  0.00     0.209 HD
ENDBRANCH  16  17
ENDBRANCH  13  16
ENDBRANCH  10  13
ENDBRANCH   1  10
TORSDOF 11
ENDMDL
MODEL 8
REMARK VINA RESULT:      -3.9     16.174     17.336
REMARK  11 active torsions:
REMARK  status: ('A' for Active; 'I' for Inactive)
REMARK    1  A    between atoms: O_7  and  C_1 
REMARK    2  A    between atoms: C_2  and  C_1 
REMARK    3  A    between atoms: C_2  and  O_8 
REMARK    4  A    between atoms: C_3  and  C_2 
REMARK    5  A    between atoms: C_3  and  O_9 
REMARK    6  A    between atoms: C_4  and  C_3 
REMARK    7  A    between atoms: C_4  and  O_10 
REMARK    8  A    between atoms: C_5  and  C_4 
REMARK    9  A    between atoms: C_5  and  O_11 
REMARK   10  A    between atoms: C_6  and  C_5 
REMARK   11  A    between atoms: O_12  and  C_6 
ROOT
HETATM    1  C   UNK N   1      35.842  15.203  10.316  0.00  0.00     0.180 C 
ENDROOT
BRANCH   1   2
HETATM    2  C   UNK N   1      35.145  14.989  11.675  0.00  0.00     0.173 C 
BRANCH   2   3
HETATM    3  C   UNK N   1      35.910  14.009  12.554  0.00  0.00     0.198 C 
BRANCH   3   4
HETATM    4  O   UNK N   1      36.777  14.687  13.413  0.00  0.00    -0.398 OA
HETATM    5  H   UNK N   1      37.724  14.812  13.244  0.00  0.00     0.209 HD
ENDBRANCH   3   4
ENDBRANCH   2   3
BRANCH   2   6
HETATM    6  O   UNK N   1      33.858  14.475  11.492  0.00  0.00    -0.391 OA
HETATM    7  H   UNK N   1      33.088  14.887  11.915  0.00  0.00     0.210 HD
ENDBRANCH   2   6
ENDBRANCH   1   2
BRANCH   1   8
HETATM    8  O   UNK N   1      37.207  15.422  10.538  0.00  0.00    -0.390 OA
HETATM    9  H   UNK N   1      37.581  16.317  10.546  0.00  0.00     0.210 HD
ENDBRANCH   1   8
BRANCH   1  10
HETATM   10  C   UNK N   1      35.252  16.386   9.519  0.00  0.00     0.180 C 
BRANCH  10  11
HETATM   11  O   UNK N   1      34.509  17.201  10.381  0.00  0.00    -0.390 OA
HETATM   12  H   UNK N   1      34.557  17.093  11.343  0.00  0.00     0.210 HD
ENDBRANCH  10  11
BRANCH  10  13
HETATM   13  C   UNK N   1      34.343  15.936   8.360  0.00  0.00     0.173 C 
BRANCH  13  14
HETATM   14  O   UNK N   1      34.833  16.407   7.141  0.00  0.00    -0.391 OA
HETATM   15  H   UNK N   1      35.541  17.068   7.102  0.00  0.00     0.210 HD
ENDBRANCH  13  14
BRANCH  13  16
HETATM   16  C   UNK N   1      32.918  16.456   8.524  0.00  0.00     0.198 C 
BRANCH  16  17
HETATM   17  O   UNK N   1      32.232  15.734   9.502  0.00  0.00    -0.398 OA
HETATM   18  H   UNK N   1      32.603  14.963   9.961  0.00  0.00     0.209 HD
ENDBRANCH  16  17
ENDBRANCH  13  16
ENDBRANCH  10  13
ENDBRANCH   1  10
TORSDOF 11
ENDMDL
MODEL 9
REMARK VINA RESULT:      -3.9     18.394     19.891
REMARK  11 active torsions:
REMARK  status: ('A' for Active; 'I' for Inactive)
REMARK    1  A    between atoms: O_7  and  C_1 
REMARK    2  A    between atoms: C_2  and  C_1 
REMARK    3  A    between atoms: C_2  and  O_8 
REMARK    4  A    between atoms: C_3  and  C_2 
REMARK    5  A    between atoms: C_3  and  O_9 
REMARK    6  A    between atoms: C_4  and  C_3 
REMARK    7  A    between atoms: C_4  and  O_10 
REMARK    8  A    between atoms: C_5  and  C_4 
REMARK    9  A    between atoms: C_5  and  O_11 
REMARK   10  A    between atoms: C_6  and  C_5 
REMARK   11  A    between atoms: O_12  and  C_6 
ROOT
HETATM    1  C   UNK N   1      35.533  14.413  12.966  0.00  0.00     0.180 C 
ENDROOT
BRANCH   1   2
HETATM    2  C   UNK N   1      35.110  14.791  11.532  0.00  0.00     0.173 C 
BRANCH   2   3
HETATM    3  C   UNK N   1      35.608  16.177  11.143  0.00  0.00     0.198 C 
BRANCH   3   4
HETATM    4  O   UNK N   1      36.957  16.138  10.788  0.00  0.00    -0.398 OA
HETATM    5  H   UNK N   1      37.646  15.702  11.313  0.00  0.00     0.209 HD
ENDBRANCH   3   4
ENDBRANCH   2   3
BRANCH   2   6
HETATM    6  O   UNK N   1      33.718  14.796  11.415  0.00  0.00    -0.391 OA
HETATM    7  H   UNK N   1      33.240  15.595  11.143  0.00  0.00     0.210 HD
ENDBRANCH   2   6
ENDBRANCH   1   2
BRANCH   1   8
HETATM    8  O   UNK N   1      36.806  14.941  13.216  0.00  0.00    -0.390 OA
HETATM    9  H   UNK N   1      37.587  14.369  13.279  0.00  0.00     0.210 HD
ENDBRANCH   1   8
BRANCH   1  10
HETATM   10  C   UNK N   1      35.551  12.889  13.204  0.00  0.00     0.180 C 
BRANCH  10  11
HETATM   11  O   UNK N   1      34.260  12.377  13.029  0.00  0.00    -0.390 OA
HETATM   12  H   UNK N   1      33.822  12.402  12.164  0.00  0.00     0.210 HD
ENDBRANCH  10  11
BRANCH  10  13
HETATM   13  C   UNK N   1      36.045  12.506  14.612  0.00  0.00     0.173 C 
BRANCH  13  14
HETATM   14  O   UNK N   1      36.966  11.460  14.541  0.00  0.00    -0.391 OA
HETATM   15  H   UNK N   1      37.529  11.228  15.296  0.00  0.00     0.210 HD
ENDBRANCH  13  14
BRANCH  13  16
HETATM   16  C   UNK N   1      34.898  12.058  15.512  0.00  0.00     0.198 C 
BRANCH  16  17
HETATM   17  O   UNK N   1      34.081  13.137  15.856  0.00  0.00    -0.398 OA
HETATM   18  H   UNK N   1      33.150  13.045  16.114  0.00  0.00     0.209 HD
ENDBRANCH  16  17
ENDBRANCH  13  16
ENDBRANCH  10  13
ENDBRANCH   1  10
TORSDOF 11
ENDMDL
