MODEL 1
REMARK VINA RESULT:      -6.2      0.000      0.000
REMARK  6 active torsions:
REMARK  status: ('A' for Active; 'I' for Inactive)
REMARK    1  A    between atoms: C_10  and  O_11 
REMARK    2  A    between atoms: O_11  and  C_13 
REMARK    3  A    between atoms: C_13  and  C_16 
REMARK    4  A    between atoms: C_16  and  C_14 
REMARK    5  A    between atoms: C_14  and  O_15 
REMARK    6  A    between atoms: C_16  and  C_17 
ROOT
HETATM    1  O   UNK N   1      25.542  23.542  -6.767  0.00  0.00    -0.264 OA
HETATM    2  C   UNK N   1      26.247  24.526  -6.582  0.00  0.00     0.270 C 
ENDROOT
BRANCH   2   3
HETATM    3  O   UNK N   1      27.505  24.383  -6.101  0.00  0.00    -0.315 OA
BRANCH   3   4
HETATM    4  C   UNK N   1      27.806  23.514  -5.075  0.00  0.00     0.136 C 
HETATM    5  C   UNK N   1      27.545  24.195  -3.711  0.00  0.00     0.071 C 
HETATM    6  C   UNK N   1      28.802  24.392  -2.839  0.00  0.00     0.257 C 
HETATM    7  C   UNK N   1      29.143  23.045  -2.189  0.00  0.00     0.186 A 
HETATM    8  N   UNK N   1      29.965  24.709  -3.662  0.00  0.00     0.099 N 
HETATM    9  C   UNK N   1      30.120  22.412  -3.103  0.00  0.00     0.186 A 
HETATM   10  O   UNK N   1      30.519  22.978  -1.874  0.00  0.00    -0.371 OA
HETATM   11  C   UNK N   1      30.280  23.409  -4.250  0.00  0.00     0.257 C 
HETATM   12  C   UNK N   1      29.246  23.006  -5.321  0.00  0.00     0.071 C 
HETATM   13  C   UNK N   1      29.768  25.797  -4.620  0.00  0.00     0.311 C 
ENDBRANCH   3   4
ENDBRANCH   2   3
BRANCH   2  14
HETATM   14  C   UNK N   1      25.770  25.881  -7.050  0.00  0.00     0.142 C 
BRANCH  14  15
HETATM   15  C   UNK N   1      26.124  26.143  -8.513  0.00  0.00     0.183 C 
BRANCH  15  16
HETATM   16  O   UNK N   1      26.993  25.160  -8.987  0.00  0.00    -0.400 OA
HETATM   17  H   UNK N   1      26.768  24.625  -9.764  0.00  0.00     0.209 HD
ENDBRANCH  15  16
ENDBRANCH  14  15
BRANCH  14  18
HETATM   18  C   UNK N   1      26.096  27.060  -6.166  0.00  0.00    -0.043 A 
HETATM   19  C   UNK N   1      25.338  27.257  -5.003  0.00  0.00     0.008 A 
HETATM   20  C   UNK N   1      25.632  28.310  -4.134  0.00  0.00     0.001 A 
HETATM   21  C   UNK N   1      26.688  29.177  -4.421  0.00  0.00     0.000 A 
HETATM   22  C   UNK N   1      27.450  28.990  -5.580  0.00  0.00     0.001 A 
HETATM   23  C   UNK N   1      27.160  27.931  -6.448  0.00  0.00     0.008 A 
ENDBRANCH  14  18
ENDBRANCH   2  14
TORSDOF 6
ENDMDL
MODEL 2
REMARK VINA RESULT:      -6.1     12.012     14.491
REMARK  6 active torsions:
REMARK  status: ('A' for Active; 'I' for Inactive)
REMARK    1  A    between atoms: C_10  and  O_11 
REMARK    2  A    between atoms: O_11  and  C_13 
REMARK    3  A    between atoms: C_13  and  C_16 
REMARK    4  A    between atoms: C_16  and  C_14 
REMARK    5  A    between atoms: C_14  and  O_15 
REMARK    6  A    between atoms: C_16  and  C_17 
ROOT
HETATM    1  O   UNK N   1      27.491  16.387   7.085  0.00  0.00    -0.264 OA
HETATM    2  C   UNK N   1      28.573  16.960   7.131  0.00  0.00     0.270 C 
ENDROOT
BRANCH   2   3
HETATM    3  O   UNK N   1      29.714  16.286   6.854  0.00  0.00    -0.315 OA
BRANCH   3   4
HETATM    4  C   UNK N   1      30.951  16.892   6.880  0.00  0.00     0.136 C 
HETATM    5  C   UNK N   1      31.484  17.068   5.439  0.00  0.00     0.071 C 
HETATM    6  C   UNK N   1      32.770  16.275   5.126  0.00  0.00     0.257 C 
HETATM    7  C   UNK N   1      33.955  17.032   5.741  0.00  0.00     0.186 A 
HETATM    8  N   UNK N   1      32.766  14.984   5.806  0.00  0.00     0.099 N 
HETATM    9  C   UNK N   1      34.146  16.429   7.080  0.00  0.00     0.186 A 
HETATM   10  O   UNK N   1      35.025  16.149   6.011  0.00  0.00    -0.371 OA
HETATM   11  C   UNK N   1      33.049  15.370   7.187  0.00  0.00     0.257 C 
HETATM   12  C   UNK N   1      31.838  16.065   7.841  0.00  0.00     0.071 C 
HETATM   13  C   UNK N   1      31.553  14.187   5.617  0.00  0.00     0.311 C 
ENDBRANCH   3   4
ENDBRANCH   2   3
BRANCH   2  14
HETATM   14  C   UNK N   1      28.613  18.456   7.334  0.00  0.00     0.142 C 
BRANCH  14  15
HETATM   15  C   UNK N   1      28.239  18.854   8.761  0.00  0.00     0.183 C 
BRANCH  15  16
HETATM   16  O   UNK N   1      27.458  17.862   9.354  0.00  0.00    -0.400 OA
HETATM   17  H   UNK N   1      26.583  18.066   9.721  0.00  0.00     0.209 HD
ENDBRANCH  15  16
ENDBRANCH  14  15
BRANCH  14  18
HETATM   18  C   UNK N   1      27.906  19.303   6.304  0.00  0.00    -0.043 A 
HETATM   19  C   UNK N   1      28.059  18.977   4.949  0.00  0.00     0.008 A 
HETATM   20  C   UNK N   1      27.389  19.706   3.964  0.00  0.00     0.001 A 
HETATM   21  C   UNK N   1      26.560  20.769   4.326  0.00  0.00     0.000 A 
HETATM   22  C   UNK N   1      26.401  21.103   5.676  0.00  0.00     0.001 A 
HETATM   23  C   UNK N   1      27.067  20.369   6.664  0.00  0.00     0.008 A 
ENDBRANCH  14  18
ENDBRANCH   2  14
TORSDOF 6
ENDMDL
MODEL 3
REMARK VINA RESULT:      -6.1     12.193     15.257
REMARK  6 active torsions:
REMARK  status: ('A' for Active; 'I' for Inactive)
REMARK    1  A    between atoms: C_10  and  O_11 
REMARK    2  A    between atoms: O_11  and  C_13 
REMARK    3  A    between atoms: C_13  and  C_16 
REMARK    4  A    between atoms: C_16  and  C_14 
REMARK    5  A    between atoms: C_14  and  O_15 
REMARK    6  A    between atoms: C_16  and  C_17 
ROOT
HETATM    1  O   UNK N   1      29.663  16.047   6.347  0.00  0.00    -0.264 OA
HETATM    2  C   UNK N   1      29.956  17.073   6.950  0.00  0.00     0.270 C 
ENDROOT
BRANCH   2   3
HETATM    3  O   UNK N   1      31.249  17.467   7.039  0.00  0.00    -0.315 OA
BRANCH   3   4
HETATM    4  C   UNK N   1      31.974  17.351   8.205  0.00  0.00     0.136 C 
HETATM    5  C   UNK N   1      33.206  18.284   8.155  0.00  0.00     0.071 C 
HETATM    6  C   UNK N   1      34.566  17.556   8.182  0.00  0.00     0.257 C 
HETATM    7  C   UNK N   1      34.848  17.132   9.629  0.00  0.00     0.186 A 
HETATM    8  N   UNK N   1      34.503  16.303   7.437  0.00  0.00     0.099 N 
HETATM    9  C   UNK N   1      34.330  15.749   9.734  0.00  0.00     0.186 A 
HETATM   10  O   UNK N   1      35.714  16.016   9.662  0.00  0.00    -0.371 OA
HETATM   11  C   UNK N   1      33.752  15.447   8.352  0.00  0.00     0.257 C 
HETATM   12  C   UNK N   1      32.264  15.845   8.408  0.00  0.00     0.071 C 
HETATM   13  C   UNK N   1      33.949  16.412   6.087  0.00  0.00     0.311 C 
ENDBRANCH   3   4
ENDBRANCH   2   3
BRANCH   2  14
HETATM   14  C   UNK N   1      28.856  17.981   7.448  0.00  0.00     0.142 C 
BRANCH  14  15
HETATM   15  C   UNK N   1      27.851  17.240   8.326  0.00  0.00     0.183 C 
BRANCH  15  16
HETATM   16  O   UNK N   1      27.527  18.004   9.448  0.00  0.00    -0.400 OA
HETATM   17  H   UNK N   1      28.211  18.288  10.074  0.00  0.00     0.209 HD
ENDBRANCH  15  16
ENDBRANCH  14  15
BRANCH  14  18
HETATM   18  C   UNK N   1      28.178  18.856   6.421  0.00  0.00    -0.043 A 
HETATM   19  C   UNK N   1      27.635  20.080   6.837  0.00  0.00     0.008 A 
HETATM   20  C   UNK N   1      27.036  20.940   5.914  0.00  0.00     0.001 A 
HETATM   21  C   UNK N   1      26.974  20.583   4.566  0.00  0.00     0.000 A 
HETATM   22  C   UNK N   1      27.512  19.364   4.141  0.00  0.00     0.001 A 
HETATM   23  C   UNK N   1      28.118  18.503   5.064  0.00  0.00     0.008 A 
ENDBRANCH  14  18
ENDBRANCH   2  14
TORSDOF 6
ENDMDL
MODEL 4
REMARK VINA RESULT:      -6.1     20.197     24.519
REMARK  6 active torsions:
REMARK  status: ('A' for Active; 'I' for Inactive)
REMARK    1  A    between atoms: C_10  and  O_11 
REMARK    2  A    between atoms: O_11  and  C_13 
REMARK    3  A    between atoms: C_13  and  C_16 
REMARK    4  A    between atoms: C_16  and  C_14 
REMARK    5  A    between atoms: C_14  and  O_15 
REMARK    6  A    between atoms: C_16  and  C_17 
ROOT
HETATM    1  O   UNK N   1      33.936  12.009  14.586  0.00  0.00    -0.264 OA
HETATM    2  C   UNK N   1      34.985  12.637  14.506  0.00  0.00     0.270 C 
ENDROOT
BRANCH   2   3
HETATM    3  O   UNK N   1      35.618  12.758  13.314  0.00  0.00    -0.315 OA
BRANCH   3   4
HETATM    4  C   UNK N   1      35.019  13.344  12.220  0.00  0.00     0.136 C 
HETATM    5  C   UNK N   1      34.996  12.350  11.035  0.00  0.00     0.071 C 
HETATM    6  C   UNK N   1      35.825  12.789   9.810  0.00  0.00     0.257 C 
HETATM    7  C   UNK N   1      35.015  13.842   9.044  0.00  0.00     0.186 A 
HETATM    8  N   UNK N   1      37.039  13.486  10.223  0.00  0.00     0.099 N 
HETATM    9  C   UNK N   1      35.476  15.145   9.574  0.00  0.00     0.186 A 
HETATM   10  O   UNK N   1      35.871  14.685   8.299  0.00  0.00    -0.371 OA
HETATM   11  C   UNK N   1      36.513  14.785  10.638  0.00  0.00     0.257 C 
HETATM   12  C   UNK N   1      35.747  14.686  11.972  0.00  0.00     0.071 C 
HETATM   13  C   UNK N   1      37.843  12.789  11.227  0.00  0.00     0.311 C 
ENDBRANCH   3   4
ENDBRANCH   2   3
BRANCH   2  14
HETATM   14  C   UNK N   1      35.480  13.413  15.703  0.00  0.00     0.142 C 
BRANCH  14  15
HETATM   15  C   UNK N   1      36.802  14.125  15.421  0.00  0.00     0.183 C 
BRANCH  15  16
HETATM   16  O   UNK N   1      37.757  13.217  14.964  0.00  0.00    -0.400 OA
HETATM   17  H   UNK N   1      37.688  12.821  14.081  0.00  0.00     0.209 HD
ENDBRANCH  15  16
ENDBRANCH  14  15
BRANCH  14  18
HETATM   18  C   UNK N   1      35.497  12.687  17.026  0.00  0.00    -0.043 A 
HETATM   19  C   UNK N   1      35.183  13.404  18.189  0.00  0.00     0.008 A 
HETATM   20  C   UNK N   1      35.145  12.764  19.430  0.00  0.00     0.001 A 
HETATM   21  C   UNK N   1      35.421  11.398  19.518  0.00  0.00     0.000 A 
HETATM   22  C   UNK N   1      35.737  10.673  18.364  0.00  0.00     0.001 A 
HETATM   23  C   UNK N   1      35.769  11.313  17.119  0.00  0.00     0.008 A 
ENDBRANCH  14  18
ENDBRANCH   2  14
TORSDOF 6
ENDMDL
MODEL 5
REMARK VINA RESULT:      -6.0      2.648      5.520
REMARK  6 active torsions:
REMARK  status: ('A' for Active; 'I' for Inactive)
REMARK    1  A    between atoms: C_10  and  O_11 
REMARK    2  A    between atoms: O_11  and  C_13 
REMARK    3  A    between atoms: C_13  and  C_16 
REMARK    4  A    between atoms: C_16  and  C_14 
REMARK    5  A    between atoms: C_14  and  O_15 
REMARK    6  A    between atoms: C_16  and  C_17 
ROOT
HETATM    1  O   UNK N   1      25.236  22.662  -6.309  0.00  0.00    -0.264 OA
HETATM    2  C   UNK N   1      25.901  23.377  -7.050  0.00  0.00     0.270 C 
ENDROOT
BRANCH   2   3
HETATM    3  O   UNK N   1      25.968  24.711  -6.831  0.00  0.00    -0.315 OA
BRANCH   3   4
HETATM    4  C   UNK N   1      25.543  25.286  -5.653  0.00  0.00     0.136 C 
HETATM    5  C   UNK N   1      25.083  26.740  -5.910  0.00  0.00     0.071 C 
HETATM    6  C   UNK N   1      25.926  27.818  -5.196  0.00  0.00     0.257 C 
HETATM    7  C   UNK N   1      25.494  27.858  -3.725  0.00  0.00     0.186 A 
HETATM    8  N   UNK N   1      27.334  27.438  -5.157  0.00  0.00     0.099 N 
HETATM    9  C   UNK N   1      26.428  26.947  -3.024  0.00  0.00     0.186 A 
HETATM   10  O   UNK N   1      26.541  28.350  -2.912  0.00  0.00    -0.371 OA
HETATM   11  C   UNK N   1      27.338  26.404  -4.124  0.00  0.00     0.257 C 
HETATM   12  C   UNK N   1      26.684  25.101  -4.624  0.00  0.00     0.071 C 
HETATM   13  C   UNK N   1      27.905  27.037  -6.444  0.00  0.00     0.311 C 
ENDBRANCH   3   4
ENDBRANCH   2   3
BRANCH   2  14
HETATM   14  C   UNK N   1      26.777  22.742  -8.105  0.00  0.00     0.142 C 
BRANCH  14  15
HETATM   15  C   UNK N   1      25.959  22.132  -9.242  0.00  0.00     0.183 C 
BRANCH  15  16
HETATM   16  O   UNK N   1      24.660  21.857  -8.815  0.00  0.00    -0.400 OA
HETATM   17  H   UNK N   1      24.035  21.385  -9.386  0.00  0.00     0.209 HD
ENDBRANCH  15  16
ENDBRANCH  14  15
BRANCH  14  18
HETATM   18  C   UNK N   1      27.859  21.809  -7.620  0.00  0.00    -0.043 A 
HETATM   19  C   UNK N   1      27.997  20.560  -8.243  0.00  0.00     0.008 A 
HETATM   20  C   UNK N   1      29.012  19.682  -7.857  0.00  0.00     0.001 A 
HETATM   21  C   UNK N   1      29.898  20.044  -6.841  0.00  0.00     0.000 A 
HETATM   22  C   UNK N   1      29.769  21.287  -6.212  0.00  0.00     0.001 A 
HETATM   23  C   UNK N   1      28.756  22.171  -6.603  0.00  0.00     0.008 A 
ENDBRANCH  14  18
ENDBRANCH   2  14
TORSDOF 6
ENDMDL
MODEL 6
REMARK VINA RESULT:      -6.0     19.241     23.534
REMARK  6 active torsions:
REMARK  status: ('A' for Active; 'I' for Inactive)
REMARK    1  A    between atoms: C_10  and  O_11 
REMARK    2  A    between atoms: O_11  and  C_13 
REMARK    3  A    between atoms: C_13  and  C_16 
REMARK    4  A    between atoms: C_16  and  C_14 
REMARK    5  A    between atoms: C_14  and  O_15 
REMARK    6  A    between atoms: C_16  and  C_17 
ROOT
HETATM    1  O   UNK N   1      34.203  12.139  13.964  0.00  0.00    -0.264 OA
HETATM    2  C   UNK N   1      35.367  12.463  13.759  0.00  0.00     0.270 C 
ENDROOT
BRANCH   2   3
HETATM    3  O   UNK N   1      35.724  13.013  12.574  0.00  0.00    -0.315 OA
BRANCH   3   4
HETATM    4  C   UNK N   1      34.976  13.996  11.965  0.00  0.00     0.136 C 
HETATM    5  C   UNK N   1      34.627  13.576  10.518  0.00  0.00     0.071 C 
HETATM    6  C   UNK N   1      35.232  14.476   9.421  0.00  0.00     0.257 C 
HETATM    7  C   UNK N   1      34.386  15.753   9.337  0.00  0.00     0.186 A 
HETATM    8  N   UNK N   1      36.563  14.941   9.802  0.00  0.00     0.099 N 
HETATM    9  C   UNK N   1      35.062  16.723  10.229  0.00  0.00     0.186 A 
HETATM   10  O   UNK N   1      35.151  16.825   8.824  0.00  0.00    -0.371 OA
HETATM   11  C   UNK N   1      36.251  15.956  10.805  0.00  0.00     0.257 C 
HETATM   12  C   UNK N   1      35.760  15.321  12.121  0.00  0.00     0.071 C 
HETATM   13  C   UNK N   1      37.483  13.891  10.241  0.00  0.00     0.311 C 
ENDBRANCH   3   4
ENDBRANCH   2   3
BRANCH   2  14
HETATM   14  C   UNK N   1      36.365  12.401  14.891  0.00  0.00     0.142 C 
BRANCH  14  15
HETATM   15  C   UNK N   1      36.330  11.057  15.617  0.00  0.00     0.183 C 
BRANCH  15  16
HETATM   16  O   UNK N   1      36.065  10.024  14.717  0.00  0.00    -0.400 OA
HETATM   17  H   UNK N   1      35.168   9.869  14.384  0.00  0.00     0.209 HD
ENDBRANCH  15  16
ENDBRANCH  14  15
BRANCH  14  18
HETATM   18  C   UNK N   1      36.380  13.565  15.851  0.00  0.00    -0.043 A 
HETATM   19  C   UNK N   1      35.589  13.490  17.007  0.00  0.00     0.008 A 
HETATM   20  C   UNK N   1      35.604  14.525  17.945  0.00  0.00     0.001 A 
HETATM   21  C   UNK N   1      36.410  15.645  17.735  0.00  0.00     0.000 A 
HETATM   22  C   UNK N   1      37.202  15.730  16.585  0.00  0.00     0.001 A 
HETATM   23  C   UNK N   1      37.193  14.690  15.647  0.00  0.00     0.008 A 
ENDBRANCH  14  18
ENDBRANCH   2  14
TORSDOF 6
ENDMDL
MODEL 7
REMARK VINA RESULT:      -5.9     20.841     24.766
REMARK  6 active torsions:
REMARK  status: ('A' for Active; 'I' for Inactive)
REMARK    1  A    between atoms: C_10  and  O_11 
REMARK    2  A    between atoms: O_11  and  C_13 
REMARK    3  A    between atoms: C_13  and  C_16 
REMARK    4  A    between atoms: C_16  and  C_14 
REMARK    5  A    between atoms: C_14  and  O_15 
REMARK    6  A    between atoms: C_16  and  C_17 
ROOT
HETATM    1  O   UNK N   1      37.599  10.748  14.909  0.00  0.00    -0.264 OA
HETATM    2  C   UNK N   1      36.487  11.123  14.559  0.00  0.00     0.270 C 
ENDROOT
BRANCH   2   3
HETATM    3  O   UNK N   1      36.294  11.615  13.311  0.00  0.00    -0.315 OA
BRANCH   3   4
HETATM    4  C   UNK N   1      36.657  12.898  12.962  0.00  0.00     0.136 C 
HETATM    5  C   UNK N   1      35.422  13.828  13.010  0.00  0.00     0.071 C 
HETATM    6  C   UNK N   1      35.016  14.431  11.649  0.00  0.00     0.257 C 
HETATM    7  C   UNK N   1      35.974  15.589  11.340  0.00  0.00     0.186 A 
HETATM    8  N   UNK N   1      35.233  13.474  10.569  0.00  0.00     0.099 N 
HETATM    9  C   UNK N   1      37.056  14.988  10.528  0.00  0.00     0.186 A 
HETATM   10  O   UNK N   1      36.062  15.804   9.946  0.00  0.00    -0.371 OA
HETATM   11  C   UNK N   1      36.688  13.508  10.425  0.00  0.00     0.257 C 
HETATM   12  C   UNK N   1      37.390  12.804  11.603  0.00  0.00     0.071 C 
HETATM   13  C   UNK N   1      34.659  12.147  10.790  0.00  0.00     0.311 C 
ENDBRANCH   3   4
ENDBRANCH   2   3
BRANCH   2  14
HETATM   14  C   UNK N   1      35.302  10.882  15.464  0.00  0.00     0.142 C 
BRANCH  14  15
HETATM   15  C   UNK N   1      33.979  10.915  14.701  0.00  0.00     0.183 C 
BRANCH  15  16
HETATM   16  O   UNK N   1      34.042  10.088  13.580  0.00  0.00    -0.400 OA
HETATM   17  H   UNK N   1      34.368   9.177  13.647  0.00  0.00     0.209 HD
ENDBRANCH  15  16
ENDBRANCH  14  15
BRANCH  14  18
HETATM   18  C   UNK N   1      35.243  11.687  16.739  0.00  0.00    -0.043 A 
HETATM   19  C   UNK N   1      35.354  11.013  17.963  0.00  0.00     0.008 A 
HETATM   20  C   UNK N   1      35.348  11.722  19.167  0.00  0.00     0.001 A 
HETATM   21  C   UNK N   1      35.230  13.113  19.156  0.00  0.00     0.000 A 
HETATM   22  C   UNK N   1      35.117  13.795  17.939  0.00  0.00     0.001 A 
HETATM   23  C   UNK N   1      35.130  13.086  16.733  0.00  0.00     0.008 A 
ENDBRANCH  14  18
ENDBRANCH   2  14
TORSDOF 6
ENDMDL
MODEL 8
REMARK VINA RESULT:      -5.8      1.664      2.287
REMARK  6 active torsions:
REMARK  status: ('A' for Active; 'I' for Inactive)
REMARK    1  A    between atoms: C_10  and  O_11 
REMARK    2  A    between atoms: O_11  and  C_13 
REMARK    3  A    between atoms: C_13  and  C_16 
REMARK    4  A    between atoms: C_16  and  C_14 
REMARK    5  A    between atoms: C_14  and  O_15 
REMARK    6  A    between atoms: C_16  and  C_17 
ROOT
HETATM    1  O   UNK N   1      26.313  23.972  -2.974  0.00  0.00    -0.264 OA
HETATM    2  C   UNK N   1      26.835  24.725  -3.786  0.00  0.00     0.270 C 
ENDROOT
BRANCH   2   3
HETATM    3  O   UNK N   1      28.169  24.664  -4.015  0.00  0.00    -0.315 OA
BRANCH   3   4
HETATM    4  C   UNK N   1      28.844  23.466  -4.107  0.00  0.00     0.136 C 
HETATM    5  C   UNK N   1      29.687  23.235  -2.831  0.00  0.00     0.071 C 
HETATM    6  C   UNK N   1      31.211  23.193  -3.065  0.00  0.00     0.257 C 
HETATM    7  C   UNK N   1      31.564  21.816  -3.642  0.00  0.00     0.186 A 
HETATM    8  N   UNK N   1      31.607  24.140  -4.102  0.00  0.00     0.099 N 
HETATM    9  C   UNK N   1      31.544  21.997  -5.111  0.00  0.00     0.186 A 
HETATM   10  O   UNK N   1      32.757  21.883  -4.397  0.00  0.00    -0.371 OA
HETATM   11  C   UNK N   1      31.158  23.461  -5.316  0.00  0.00     0.257 C 
HETATM   12  C   UNK N   1      29.622  23.489  -5.445  0.00  0.00     0.071 C 
HETATM   13  C   UNK N   1      31.102  25.502  -3.924  0.00  0.00     0.311 C 
ENDBRANCH   3   4
ENDBRANCH   2   3
BRANCH   2  14
HETATM   14  C   UNK N   1      25.964  25.606  -4.650  0.00  0.00     0.142 C 
BRANCH  14  15
HETATM   15  C   UNK N   1      25.755  25.019  -6.045  0.00  0.00     0.183 C 
BRANCH  15  16
HETATM   16  O   UNK N   1      25.319  23.697  -5.956  0.00  0.00    -0.400 OA
HETATM   17  H   UNK N   1      24.504  23.469  -5.481  0.00  0.00     0.209 HD
ENDBRANCH  15  16
ENDBRANCH  14  15
BRANCH  14  18
HETATM   18  C   UNK N   1      26.314  27.074  -4.699  0.00  0.00    -0.043 A 
HETATM   19  C   UNK N   1      25.935  27.889  -3.623  0.00  0.00     0.008 A 
HETATM   20  C   UNK N   1      26.276  29.244  -3.605  0.00  0.00     0.001 A 
HETATM   21  C   UNK N   1      26.999  29.795  -4.665  0.00  0.00     0.000 A 
HETATM   22  C   UNK N   1      27.381  28.990  -5.743  0.00  0.00     0.001 A 
HETATM   23  C   UNK N   1      27.046  27.631  -5.759  0.00  0.00     0.008 A 
ENDBRANCH  14  18
ENDBRANCH   2  14
TORSDOF 6
ENDMDL
MODEL 9
REMARK VINA RESULT:      -5.8     15.555     18.050
REMARK  6 active torsions:
REMARK  status: ('A' for Active; 'I' for Inactive)
REMARK    1  A    between atoms: C_10  and  O_11 
REMARK    2  A    between atoms: O_11  and  C_13 
REMARK    3  A    between atoms: C_13  and  C_16 
REMARK    4  A    between atoms: C_16  and  C_14 
REMARK    5  A    between atoms: C_14  and  O_15 
REMARK    6  A    between atoms: C_16  and  C_17 
ROOT
HETATM    1  O   UNK N   1      32.363  14.489   7.260  0.00  0.00    -0.264 OA
HETATM    2  C   UNK N   1      32.895  15.547   7.575  0.00  0.00     0.270 C 
ENDROOT
BRANCH   2   3
HETATM    3  O   UNK N   1      34.070  15.545   8.249  0.00  0.00    -0.315 OA
BRANCH   3   4
HETATM    4  C   UNK N   1      34.490  14.463   8.992  0.00  0.00     0.136 C 
HETATM    5  C   UNK N   1      33.835  14.497  10.393  0.00  0.00     0.071 C 
HETATM    6  C   UNK N   1      34.827  14.667  11.563  0.00  0.00     0.257 C 
HETATM    7  C   UNK N   1      35.492  13.309  11.821  0.00  0.00     0.186 A 
HETATM    8  N   UNK N   1      35.927  15.551  11.191  0.00  0.00     0.099 N 
HETATM    9  C   UNK N   1      36.738  13.331  11.022  0.00  0.00     0.186 A 
HETATM   10  O   UNK N   1      36.757  13.480  12.425  0.00  0.00    -0.371 OA
HETATM   11  C   UNK N   1      36.724  14.689  10.321  0.00  0.00     0.257 C 
HETATM   12  C   UNK N   1      36.037  14.467   8.959  0.00  0.00     0.071 C 
HETATM   13  C   UNK N   1      35.524  16.830  10.604  0.00  0.00     0.311 C 
ENDBRANCH   3   4
ENDBRANCH   2   3
BRANCH   2  14
HETATM   14  C   UNK N   1      32.323  16.848   7.064  0.00  0.00     0.142 C 
BRANCH  14  15
HETATM   15  C   UNK N   1      33.369  17.960   7.021  0.00  0.00     0.183 C 
BRANCH  15  16
HETATM   16  O   UNK N   1      34.485  17.551   6.289  0.00  0.00    -0.400 OA
HETATM   17  H   UNK N   1      35.193  18.175   6.066  0.00  0.00     0.209 HD
ENDBRANCH  15  16
ENDBRANCH  14  15
BRANCH  14  18
HETATM   18  C   UNK N   1      31.027  17.312   7.683  0.00  0.00    -0.043 A 
HETATM   19  C   UNK N   1      31.083  18.150   8.807  0.00  0.00     0.008 A 
HETATM   20  C   UNK N   1      29.910  18.638   9.387  0.00  0.00     0.001 A 
HETATM   21  C   UNK N   1      28.669  18.292   8.848  0.00  0.00     0.000 A 
HETATM   22  C   UNK N   1      28.603  17.456   7.728  0.00  0.00     0.001 A 
HETATM   23  C   UNK N   1      29.778  16.971   7.142  0.00  0.00     0.008 A 
ENDBRANCH  14  18
ENDBRANCH   2  14
TORSDOF 6
ENDMDL
