REMARK  6 active torsions:
REMARK  status: ('A' for Active; 'I' for Inactive)
REMARK    1  A    between atoms: C_10  and  O_11 
REMARK    2  A    between atoms: O_11  and  C_13 
REMARK    3  A    between atoms: C_13  and  C_16 
REMARK    4  A    between atoms: C_16  and  C_14 
REMARK    5  A    between atoms: C_14  and  O_15 
REMARK    6  A    between atoms: C_16  and  C_17 
ROOT
HETATM    1  O   UNK N   1      20.041 -16.207   1.503  0.00  0.00    -0.264 OA
HETATM    2  C   UNK N   1      19.994 -15.253   0.736  0.00  0.00     0.270 C 
ENDROOT
BRANCH   2   3
HETATM    3  O   UNK N   1      18.811 -14.862   0.205  0.00  0.00    -0.315 OA
BRANCH   3   4
HETATM    4  C   UNK N   1      17.610 -15.081   0.844  0.00  0.00     0.136 C 
HETATM    5  C   UNK N   1      16.746 -16.066   0.022  0.00  0.00     0.071 C 
HETATM    6  C   UNK N   1      15.431 -15.470  -0.522  0.00  0.00     0.257 C 
HETATM    7  C   UNK N   1      14.420 -15.423   0.631  0.00  0.00     0.186 A 
HETATM    8  N   UNK N   1      15.611 -14.075  -0.911  0.00  0.00     0.099 N 
HETATM    9  C   UNK N   1      14.561 -14.069   1.213  0.00  0.00     0.186 A 
HETATM   10  O   UNK N   1      13.455 -14.415   0.407  0.00  0.00    -0.371 OA
HETATM   11  C   UNK N   1      15.662 -13.405   0.387  0.00  0.00     0.257 C 
HETATM   12  C   UNK N   1      16.987 -13.692   1.121  0.00  0.00     0.071 C 
HETATM   13  C   UNK N   1      16.752 -13.819  -1.791  0.00  0.00     0.311 C 
ENDBRANCH   3   4
ENDBRANCH   2   3
BRANCH   2  14
HETATM   14  C   UNK N   1      21.231 -14.414   0.517  0.00  0.00     0.142 C 
BRANCH  14  15
HETATM   15  C   UNK N   1      20.955 -13.202  -0.371  0.00  0.00     0.183 C 
BRANCH  15  16
HETATM   16  O   UNK N   1      21.887 -12.194  -0.123  0.00  0.00    -0.400 OA
HETATM   17  H   UNK N   1      22.818 -12.405   0.050  0.00  0.00     0.209 HD
ENDBRANCH  15  16
ENDBRANCH  14  15
BRANCH  14  18
HETATM   18  C   UNK N   1      22.486 -15.145   0.106  0.00  0.00    -0.043 A 
HETATM   19  C   UNK N   1      23.725 -14.527   0.328  0.00  0.00     0.008 A 
HETATM   20  C   UNK N   1      24.914 -15.184   0.003  0.00  0.00     0.001 A 
HETATM   21  C   UNK N   1      24.874 -16.466  -0.548  0.00  0.00     0.000 A 
HETATM   22  C   UNK N   1      23.643 -17.091  -0.774  0.00  0.00     0.001 A 
HETATM   23  C   UNK N   1      22.451 -16.436  -0.443  0.00  0.00     0.008 A 
ENDBRANCH  14  18
ENDBRANCH   2  14
TORSDOF 6
