MODEL 1
REMARK VINA RESULT:      -5.5      0.000      0.000
REMARK  8 active torsions:
REMARK  status: ('A' for Active; 'I' for Inactive)
REMARK    1  A    between atoms: N_2  and  C_9 
REMARK    2  A    between atoms: N_2  and  C_11 
REMARK    3  A    between atoms: N_2  and  C_12 
REMARK    4  A    between atoms: N_3  and  C_8 
REMARK    5  A    between atoms: N_3  and  C_13 
REMARK    6  A    between atoms: C_6  and  C_7 
REMARK    7  A    between atoms: C_6  and  C_8 
REMARK    8  A    between atoms: C_7  and  C_9 
ROOT
HETATM    1 Cl   UNK N   1      26.854  30.910  -2.918  0.00  0.00    -0.084 Cl
HETATM    2  N   UNK N   1      27.948  28.355  -7.210  0.00  0.00    -0.365 N 
ATOM      3  HN  UNK N   1      28.606  29.104  -7.424  1.00  0.00     0.165 HD
HETATM    4  C   UNK N   1      26.160  26.319  -6.635  0.00  0.00     0.042 A 
HETATM    5  C   UNK N   1      26.296  27.397  -5.751  0.00  0.00     0.017 A 
HETATM    6  C   UNK N   1      26.934  26.273  -7.796  0.00  0.00     0.047 A 
HETATM    7  C   UNK N   1      27.217  28.421  -6.066  0.00  0.00     0.046 A 
HETATM    8  C   UNK N   1      25.565  27.461  -4.558  0.00  0.00     0.018 A 
HETATM    9  C   UNK N   1      27.822  27.311  -8.075  0.00  0.00     0.090 A 
HETATM   10  C   UNK N   1      27.387  29.495  -5.188  0.00  0.00     0.054 A 
HETATM   11  C   UNK N   1      25.740  28.540  -3.688  0.00  0.00     0.025 A 
HETATM   12  C   UNK N   1      26.648  29.555  -4.004  0.00  0.00     0.036 A 
ENDROOT
BRANCH   4  13
HETATM   13  N   UNK N   1      25.330  25.229  -6.309  0.00  0.00    -0.385 N 
HETATM   14  H   UNK N   1      24.353  25.277  -6.417  0.00  0.00     0.160 HD
BRANCH  13  15
HETATM   15  C   UNK N   1      25.971  24.045  -5.815  0.00  0.00     0.077 C 
HETATM   16  C   UNK N   1      25.768  22.817  -6.686  0.00  0.00     0.032 C 
BRANCH  15  17
HETATM   17  C   UNK N   1      25.939  23.938  -4.292  0.00  0.00     0.026 C 
BRANCH  17  18
HETATM   18  C   UNK N   1      27.212  24.378  -3.596  0.00  0.00     0.032 C 
BRANCH  18  19
HETATM   19  C   UNK N   1      28.451  24.324  -4.500  0.00  0.00     0.272 C 
BRANCH  19  20
HETATM   20  N   UNK N   1      29.319  23.185  -4.173  0.00  0.00     0.087 N 
BRANCH  20  21
HETATM   21  C   UNK N   1      30.405  23.635  -3.292  0.00  0.00     0.268 C 
HETATM   22  C   UNK N   1      31.160  22.450  -2.722  0.00  0.00     0.037 C 
ENDBRANCH  20  21
BRANCH  20  23
HETATM   23  C   UNK N   1      29.781  22.624  -5.453  0.00  0.00     0.268 C 
HETATM   24  C   UNK N   1      29.491  23.473  -6.686  0.00  0.00     0.037 C 
ENDBRANCH  20  23
ENDBRANCH  19  20
ENDBRANCH  18  19
ENDBRANCH  17  18
ENDBRANCH  15  17
ENDBRANCH  13  15
ENDBRANCH   4  13
TORSDOF 8
ENDMDL
MODEL 2
REMARK VINA RESULT:      -5.2     12.150     15.124
REMARK  8 active torsions:
REMARK  status: ('A' for Active; 'I' for Inactive)
REMARK    1  A    between atoms: N_2  and  C_9 
REMARK    2  A    between atoms: N_2  and  C_11 
REMARK    3  A    between atoms: N_2  and  C_12 
REMARK    4  A    between atoms: N_3  and  C_8 
REMARK    5  A    between atoms: N_3  and  C_13 
REMARK    6  A    between atoms: C_6  and  C_7 
REMARK    7  A    between atoms: C_6  and  C_8 
REMARK    8  A    between atoms: C_7  and  C_9 
ROOT
HETATM    1 Cl   UNK N   1      34.014  16.474   5.890  0.00  0.00    -0.084 Cl
HETATM    2  N   UNK N   1      30.580  17.875   9.410  0.00  0.00    -0.365 N 
ATOM      3  HN  UNK N   1      31.324  17.771  10.099  1.00  0.00     0.165 HD
HETATM    4  C   UNK N   1      28.553  18.155   7.542  0.00  0.00     0.042 A 
HETATM    5  C   UNK N   1      29.828  17.744   7.132  0.00  0.00     0.017 A 
HETATM    6  C   UNK N   1      28.315  18.430   8.891  0.00  0.00     0.047 A 
HETATM    7  C   UNK N   1      30.845  17.612   8.103  0.00  0.00     0.046 A 
HETATM    8  C   UNK N   1      30.116  17.496   5.784  0.00  0.00     0.018 A 
HETATM    9  C   UNK N   1      29.344  18.273   9.819  0.00  0.00     0.090 A 
HETATM   10  C   UNK N   1      32.130  17.226   7.714  0.00  0.00     0.054 A 
HETATM   11  C   UNK N   1      31.404  17.108   5.404  0.00  0.00     0.025 A 
HETATM   12  C   UNK N   1      32.408  16.972   6.368  0.00  0.00     0.036 A 
ENDROOT
BRANCH   4  13
HETATM   13  N   UNK N   1      27.540  18.398   6.595  0.00  0.00    -0.385 N 
HETATM   14  H   UNK N   1      26.854  17.723   6.392  0.00  0.00     0.160 HD
BRANCH  13  15
HETATM   15  C   UNK N   1      27.553  19.673   5.938  0.00  0.00     0.077 C 
HETATM   16  C   UNK N   1      26.936  20.799   6.751  0.00  0.00     0.032 C 
BRANCH  15  17
HETATM   17  C   UNK N   1      27.316  19.573   4.433  0.00  0.00     0.026 C 
BRANCH  17  18
HETATM   18  C   UNK N   1      25.940  20.015   3.975  0.00  0.00     0.032 C 
BRANCH  18  19
HETATM   19  C   UNK N   1      25.016  18.847   3.608  0.00  0.00     0.272 C 
BRANCH  19  20
HETATM   20  N   UNK N   1      24.536  18.131   4.799  0.00  0.00     0.087 N 
BRANCH  20  21
HETATM   21  C   UNK N   1      24.891  16.709   4.689  0.00  0.00     0.268 C 
HETATM   22  C   UNK N   1      25.455  16.401   3.316  0.00  0.00     0.037 C 
ENDBRANCH  20  21
BRANCH  20  23
HETATM   23  C   UNK N   1      23.090  18.381   4.890  0.00  0.00     0.268 C 
HETATM   24  C   UNK N   1      22.455  19.031   3.665  0.00  0.00     0.037 C 
ENDBRANCH  20  23
ENDBRANCH  19  20
ENDBRANCH  18  19
ENDBRANCH  17  18
ENDBRANCH  15  17
ENDBRANCH  13  15
ENDBRANCH   4  13
TORSDOF 8
ENDMDL
MODEL 3
REMARK VINA RESULT:      -5.1     15.883     18.591
REMARK  8 active torsions:
REMARK  status: ('A' for Active; 'I' for Inactive)
REMARK    1  A    between atoms: N_2  and  C_9 
REMARK    2  A    between atoms: N_2  and  C_11 
REMARK    3  A    between atoms: N_2  and  C_12 
REMARK    4  A    between atoms: N_3  and  C_8 
REMARK    5  A    between atoms: N_3  and  C_13 
REMARK    6  A    between atoms: C_6  and  C_7 
REMARK    7  A    between atoms: C_6  and  C_8 
REMARK    8  A    between atoms: C_7  and  C_9 
ROOT
HETATM    1 Cl   UNK N   1      23.153  11.637  12.993  0.00  0.00    -0.084 Cl
HETATM    2  N   UNK N   1      24.760  13.276   8.424  0.00  0.00    -0.365 N 
ATOM      3  HN  UNK N   1      25.708  13.097   8.753  1.00  0.00     0.165 HD
HETATM    4  C   UNK N   1      22.186  13.765   7.524  0.00  0.00     0.042 A 
HETATM    5  C   UNK N   1      22.390  13.278   8.821  0.00  0.00     0.017 A 
HETATM    6  C   UNK N   1      23.282  13.994   6.689  0.00  0.00     0.047 A 
HETATM    7  C   UNK N   1      23.712  13.033   9.255  0.00  0.00     0.046 A 
HETATM    8  C   UNK N   1      21.315  13.001   9.675  0.00  0.00     0.018 A 
HETATM    9  C   UNK N   1      24.572  13.752   7.162  0.00  0.00     0.090 A 
HETATM   10  C   UNK N   1      23.939  12.524  10.536  0.00  0.00     0.054 A 
HETATM   11  C   UNK N   1      21.552  12.494  10.956  0.00  0.00     0.025 A 
HETATM   12  C   UNK N   1      22.862  12.258  11.385  0.00  0.00     0.036 A 
ENDROOT
BRANCH   4  13
HETATM   13  N   UNK N   1      20.882  13.925   7.017  0.00  0.00    -0.385 N 
HETATM   14  H   UNK N   1      20.266  13.162   6.934  0.00  0.00     0.160 HD
BRANCH  13  15
HETATM   15  C   UNK N   1      20.490  15.249   6.628  0.00  0.00     0.077 C 
HETATM   16  C   UNK N   1      20.345  16.221   7.787  0.00  0.00     0.032 C 
BRANCH  15  17
HETATM   17  C   UNK N   1      19.501  15.263   5.466  0.00  0.00     0.026 C 
BRANCH  17  18
HETATM   18  C   UNK N   1      20.136  15.261   4.089  0.00  0.00     0.032 C 
BRANCH  18  19
HETATM   19  C   UNK N   1      21.062  16.460   3.843  0.00  0.00     0.272 C 
BRANCH  19  20
HETATM   20  N   UNK N   1      20.378  17.740   4.078  0.00  0.00     0.087 N 
BRANCH  20  21
HETATM   21  C   UNK N   1      19.726  18.180   2.838  0.00  0.00     0.268 C 
HETATM   22  C   UNK N   1      20.245  19.539   2.411  0.00  0.00     0.037 C 
ENDBRANCH  20  21
BRANCH  20  23
HETATM   23  C   UNK N   1      21.394  18.676   4.584  0.00  0.00     0.268 C 
HETATM   24  C   UNK N   1      22.562  18.040   5.331  0.00  0.00     0.037 C 
ENDBRANCH  20  23
ENDBRANCH  19  20
ENDBRANCH  18  19
ENDBRANCH  17  18
ENDBRANCH  15  17
ENDBRANCH  13  15
ENDBRANCH   4  13
TORSDOF 8
ENDMDL
MODEL 4
REMARK VINA RESULT:      -5.0     13.128     15.089
REMARK  8 active torsions:
REMARK  status: ('A' for Active; 'I' for Inactive)
REMARK    1  A    between atoms: N_2  and  C_9 
REMARK    2  A    between atoms: N_2  and  C_11 
REMARK    3  A    between atoms: N_2  and  C_12 
REMARK    4  A    between atoms: N_3  and  C_8 
REMARK    5  A    between atoms: N_3  and  C_13 
REMARK    6  A    between atoms: C_6  and  C_7 
REMARK    7  A    between atoms: C_6  and  C_8 
REMARK    8  A    between atoms: C_7  and  C_9 
ROOT
HETATM    1 Cl   UNK N   1      27.313  19.910   3.753  0.00  0.00    -0.084 Cl
HETATM    2  N   UNK N   1      22.411  20.593   2.466  0.00  0.00    -0.365 N 
ATOM      3  HN  UNK N   1      22.742  21.268   1.777  1.00  0.00     0.165 HD
HETATM    4  C   UNK N   1      21.506  18.762   4.337  0.00  0.00     0.042 A 
HETATM    5  C   UNK N   1      22.877  19.026   4.228  0.00  0.00     0.017 A 
HETATM    6  C   UNK N   1      20.604  19.417   3.495  0.00  0.00     0.047 A 
HETATM    7  C   UNK N   1      23.313  19.962   3.263  0.00  0.00     0.046 A 
HETATM    8  C   UNK N   1      23.815  18.363   5.028  0.00  0.00     0.018 A 
HETATM    9  C   UNK N   1      21.076  20.344   2.566  0.00  0.00     0.090 A 
HETATM   10  C   UNK N   1      24.678  20.225   3.120  0.00  0.00     0.054 A 
HETATM   11  C   UNK N   1      25.178  18.634   4.879  0.00  0.00     0.025 A 
HETATM   12  C   UNK N   1      25.607  19.564   3.927  0.00  0.00     0.036 A 
ENDROOT
BRANCH   4  13
HETATM   13  N   UNK N   1      21.038  17.763   5.213  0.00  0.00    -0.385 N 
HETATM   14  H   UNK N   1      20.900  17.944   6.171  0.00  0.00     0.160 HD
BRANCH  13  15
HETATM   15  C   UNK N   1      20.773  16.472   4.649  0.00  0.00     0.077 C 
HETATM   16  C   UNK N   1      19.299  16.187   4.412  0.00  0.00     0.032 C 
BRANCH  15  17
HETATM   17  C   UNK N   1      21.706  15.384   5.176  0.00  0.00     0.026 C 
BRANCH  17  18
HETATM   18  C   UNK N   1      21.911  15.395   6.678  0.00  0.00     0.032 C 
BRANCH  18  19
HETATM   19  C   UNK N   1      20.772  14.722   7.454  0.00  0.00     0.272 C 
BRANCH  19  20
HETATM   20  N   UNK N   1      20.691  15.206   8.840  0.00  0.00     0.087 N 
BRANCH  20  21
HETATM   21  C   UNK N   1      20.689  14.058   9.757  0.00  0.00     0.268 C 
HETATM   22  C   UNK N   1      22.089  13.502   9.926  0.00  0.00     0.037 C 
ENDBRANCH  20  21
BRANCH  20  23
HETATM   23  C   UNK N   1      19.484  16.043   8.926  0.00  0.00     0.268 C 
HETATM   24  C   UNK N   1      19.686  17.523   8.621  0.00  0.00     0.037 C 
ENDBRANCH  20  23
ENDBRANCH  19  20
ENDBRANCH  18  19
ENDBRANCH  17  18
ENDBRANCH  15  17
ENDBRANCH  13  15
ENDBRANCH   4  13
TORSDOF 8
ENDMDL
MODEL 5
REMARK VINA RESULT:      -4.8      3.479      5.579
REMARK  8 active torsions:
REMARK  status: ('A' for Active; 'I' for Inactive)
REMARK    1  A    between atoms: N_2  and  C_9 
REMARK    2  A    between atoms: N_2  and  C_11 
REMARK    3  A    between atoms: N_2  and  C_12 
REMARK    4  A    between atoms: N_3  and  C_8 
REMARK    5  A    between atoms: N_3  and  C_13 
REMARK    6  A    between atoms: C_6  and  C_7 
REMARK    7  A    between atoms: C_6  and  C_8 
REMARK    8  A    between atoms: C_7  and  C_9 
ROOT
HETATM    1 Cl   UNK N   1      25.568  20.563  -8.761  0.00  0.00    -0.084 Cl
HETATM    2  N   UNK N   1      25.225  24.582  -5.617  0.00  0.00    -0.365 N 
ATOM      3  HN  UNK N   1      24.212  24.505  -5.716  1.00  0.00     0.165 HD
HETATM    4  C   UNK N   1      27.973  24.800  -5.347  0.00  0.00     0.042 A 
HETATM    5  C   UNK N   1      27.430  23.803  -6.168  0.00  0.00     0.017 A 
HETATM    6  C   UNK N   1      27.124  25.673  -4.663  0.00  0.00     0.047 A 
HETATM    7  C   UNK N   1      26.025  23.711  -6.286  0.00  0.00     0.046 A 
HETATM    8  C   UNK N   1      28.246  22.886  -6.841  0.00  0.00     0.018 A 
HETATM    9  C   UNK N   1      25.743  25.556  -4.819  0.00  0.00     0.090 A 
HETATM   10  C   UNK N   1      25.460  22.710  -7.081  0.00  0.00     0.054 A 
HETATM   11  C   UNK N   1      27.672  21.889  -7.635  0.00  0.00     0.025 A 
HETATM   12  C   UNK N   1      26.282  21.804  -7.755  0.00  0.00     0.036 A 
ENDROOT
BRANCH   4  13
HETATM   13  N   UNK N   1      29.361  24.862  -5.121  0.00  0.00    -0.385 N 
HETATM   14  H   UNK N   1      30.001  24.918  -5.867  0.00  0.00     0.160 HD
BRANCH  13  15
HETATM   15  C   UNK N   1      29.802  24.840  -3.757  0.00  0.00     0.077 C 
HETATM   16  C   UNK N   1      31.042  25.676  -3.490  0.00  0.00     0.032 C 
BRANCH  15  17
HETATM   17  C   UNK N   1      29.617  23.479  -3.089  0.00  0.00     0.026 C 
BRANCH  17  18
HETATM   18  C   UNK N   1      30.895  22.838  -2.587  0.00  0.00     0.032 C 
BRANCH  18  19
HETATM   19  C   UNK N   1      31.396  21.694  -3.479  0.00  0.00     0.272 C 
BRANCH  19  20
HETATM   20  N   UNK N   1      32.184  22.189  -4.617  0.00  0.00     0.087 N 
BRANCH  20  21
HETATM   21  C   UNK N   1      31.676  21.592  -5.859  0.00  0.00     0.268 C 
HETATM   22  C   UNK N   1      30.667  20.501  -5.558  0.00  0.00     0.037 C 
ENDBRANCH  20  21
BRANCH  20  23
HETATM   23  C   UNK N   1      33.590  21.867  -4.330  0.00  0.00     0.268 C 
HETATM   24  C   UNK N   1      33.819  20.650  -3.440  0.00  0.00     0.037 C 
ENDBRANCH  20  23
ENDBRANCH  19  20
ENDBRANCH  18  19
ENDBRANCH  17  18
ENDBRANCH  15  17
ENDBRANCH  13  15
ENDBRANCH   4  13
TORSDOF 8
ENDMDL
MODEL 6
REMARK VINA RESULT:      -4.8      1.196      1.866
REMARK  8 active torsions:
REMARK  status: ('A' for Active; 'I' for Inactive)
REMARK    1  A    between atoms: N_2  and  C_9 
REMARK    2  A    between atoms: N_2  and  C_11 
REMARK    3  A    between atoms: N_2  and  C_12 
REMARK    4  A    between atoms: N_3  and  C_8 
REMARK    5  A    between atoms: N_3  and  C_13 
REMARK    6  A    between atoms: C_6  and  C_7 
REMARK    7  A    between atoms: C_6  and  C_8 
REMARK    8  A    between atoms: C_7  and  C_9 
ROOT
HETATM    1 Cl   UNK N   1      26.700  30.873  -3.170  0.00  0.00    -0.084 Cl
HETATM    2  N   UNK N   1      28.096  28.397  -7.421  0.00  0.00    -0.365 N 
ATOM      3  HN  UNK N   1      28.726  29.177  -7.604  1.00  0.00     0.165 HD
HETATM    4  C   UNK N   1      26.383  26.275  -6.930  0.00  0.00     0.042 A 
HETATM    5  C   UNK N   1      26.430  27.354  -6.038  0.00  0.00     0.017 A 
HETATM    6  C   UNK N   1      27.207  26.273  -8.058  0.00  0.00     0.047 A 
HETATM    7  C   UNK N   1      27.315  28.421  -6.309  0.00  0.00     0.046 A 
HETATM    8  C   UNK N   1      25.647  27.376  -4.877  0.00  0.00     0.018 A 
HETATM    9  C   UNK N   1      28.056  27.353  -8.295  0.00  0.00     0.090 A 
HETATM   10  C   UNK N   1      27.396  29.497  -5.421  0.00  0.00     0.054 A 
HETATM   11  C   UNK N   1      25.734  28.458  -3.996  0.00  0.00     0.025 A 
HETATM   12  C   UNK N   1      26.605  29.516  -4.269  0.00  0.00     0.036 A 
ENDROOT
BRANCH   4  13
HETATM   13  N   UNK N   1      25.593  25.145  -6.645  0.00  0.00    -0.385 N 
HETATM   14  H   UNK N   1      24.610  25.181  -6.690  0.00  0.00     0.160 HD
BRANCH  13  15
HETATM   15  C   UNK N   1      26.282  23.940  -6.286  0.00  0.00     0.077 C 
HETATM   16  C   UNK N   1      25.529  22.666  -6.628  0.00  0.00     0.032 C 
BRANCH  15  17
HETATM   17  C   UNK N   1      27.059  24.062  -4.977  0.00  0.00     0.026 C 
BRANCH  17  18
HETATM   18  C   UNK N   1      28.451  23.462  -5.005  0.00  0.00     0.032 C 
BRANCH  18  19
HETATM   19  C   UNK N   1      29.210  23.743  -6.308  0.00  0.00     0.272 C 
BRANCH  19  20
HETATM   20  N   UNK N   1      30.048  22.605  -6.712  0.00  0.00     0.087 N 
BRANCH  20  21
HETATM   21  C   UNK N   1      29.196  21.542  -7.261  0.00  0.00     0.268 C 
HETATM   22  C   UNK N   1      29.798  20.177  -6.991  0.00  0.00     0.037 C 
ENDBRANCH  20  21
BRANCH  20  23
HETATM   23  C   UNK N   1      30.816  22.202  -5.523  0.00  0.00     0.268 C 
HETATM   24  C   UNK N   1      32.150  22.914  -5.328  0.00  0.00     0.037 C 
ENDBRANCH  20  23
ENDBRANCH  19  20
ENDBRANCH  18  19
ENDBRANCH  17  18
ENDBRANCH  15  17
ENDBRANCH  13  15
ENDBRANCH   4  13
TORSDOF 8
ENDMDL
MODEL 7
REMARK VINA RESULT:      -4.8     17.297     21.707
REMARK  8 active torsions:
REMARK  status: ('A' for Active; 'I' for Inactive)
REMARK    1  A    between atoms: N_2  and  C_9 
REMARK    2  A    between atoms: N_2  and  C_11 
REMARK    3  A    between atoms: N_2  and  C_12 
REMARK    4  A    between atoms: N_3  and  C_8 
REMARK    5  A    between atoms: N_3  and  C_13 
REMARK    6  A    between atoms: C_6  and  C_7 
REMARK    7  A    between atoms: C_6  and  C_8 
REMARK    8  A    between atoms: C_7  and  C_9 
ROOT
HETATM    1 Cl   UNK N   1      33.294  17.580   5.105  0.00  0.00    -0.084 Cl
HETATM    2  N   UNK N   1      34.732  17.249  10.001  0.00  0.00    -0.365 N 
ATOM      3  HN  UNK N   1      34.308  18.168  10.131  1.00  0.00     0.165 HD
HETATM    4  C   UNK N   1      35.886  14.755   9.653  0.00  0.00     0.042 A 
HETATM    5  C   UNK N   1      35.294  15.407   8.564  0.00  0.00     0.017 A 
HETATM    6  C   UNK N   1      35.882  15.363  10.910  0.00  0.00     0.047 A 
HETATM    7  C   UNK N   1      34.709  16.677   8.768  0.00  0.00     0.046 A 
HETATM    8  C   UNK N   1      35.244  14.814   7.296  0.00  0.00     0.018 A 
HETATM    9  C   UNK N   1      35.306  16.624  11.065  0.00  0.00     0.090 A 
HETATM   10  C   UNK N   1      34.092  17.336   7.702  0.00  0.00     0.054 A 
HETATM   11  C   UNK N   1      34.627  15.483   6.235  0.00  0.00     0.025 A 
HETATM   12  C   UNK N   1      34.054  16.742   6.438  0.00  0.00     0.036 A 
ENDROOT
BRANCH   4  13
HETATM   13  N   UNK N   1      36.388  13.446   9.515  0.00  0.00    -0.385 N 
HETATM   14  H   UNK N   1      35.868  12.741   9.066  0.00  0.00     0.160 HD
BRANCH  13  15
HETATM   15  C   UNK N   1      37.689  13.186  10.059  0.00  0.00     0.077 C 
HETATM   16  C   UNK N   1      38.833  13.476   9.101  0.00  0.00     0.032 C 
BRANCH  15  17
HETATM   17  C   UNK N   1      37.723  11.963  10.972  0.00  0.00     0.026 C 
BRANCH  17  18
HETATM   18  C   UNK N   1      36.441  11.705  11.738  0.00  0.00     0.032 C 
BRANCH  18  19
HETATM   19  C   UNK N   1      36.335  12.512  13.039  0.00  0.00     0.272 C 
BRANCH  19  20
HETATM   20  N   UNK N   1      36.211  11.642  14.217  0.00  0.00     0.087 N 
BRANCH  20  21
HETATM   21  C   UNK N   1      37.544  11.175  14.622  0.00  0.00     0.268 C 
HETATM   22  C   UNK N   1      37.495   9.725  15.061  0.00  0.00     0.037 C 
ENDBRANCH  20  21
BRANCH  20  23
HETATM   23  C   UNK N   1      35.285  10.559  13.848  0.00  0.00     0.268 C 
HETATM   24  C   UNK N   1      33.839  10.749  14.291  0.00  0.00     0.037 C 
ENDBRANCH  20  23
ENDBRANCH  19  20
ENDBRANCH  18  19
ENDBRANCH  17  18
ENDBRANCH  15  17
ENDBRANCH  13  15
ENDBRANCH   4  13
TORSDOF 8
ENDMDL
MODEL 8
REMARK VINA RESULT:      -4.8     11.959     13.833
REMARK  8 active torsions:
REMARK  status: ('A' for Active; 'I' for Inactive)
REMARK    1  A    between atoms: N_2  and  C_9 
REMARK    2  A    between atoms: N_2  and  C_11 
REMARK    3  A    between atoms: N_2  and  C_12 
REMARK    4  A    between atoms: N_3  and  C_8 
REMARK    5  A    between atoms: N_3  and  C_13 
REMARK    6  A    between atoms: C_6  and  C_7 
REMARK    7  A    between atoms: C_6  and  C_8 
REMARK    8  A    between atoms: C_7  and  C_9 
ROOT
HETATM    1 Cl   UNK N   1      26.309  22.056   6.781  0.00  0.00    -0.084 Cl
HETATM    2  N   UNK N   1      29.055  17.765   7.229  0.00  0.00    -0.365 N 
ATOM      3  HN  UNK N   1      29.091  17.956   8.231  1.00  0.00     0.165 HD
HETATM    4  C   UNK N   1      28.963  17.240   4.511  0.00  0.00     0.042 A 
HETATM    5  C   UNK N   1      28.343  18.388   5.021  0.00  0.00     0.017 A 
HETATM    6  C   UNK N   1      29.616  16.363   5.379  0.00  0.00     0.047 A 
HETATM    7  C   UNK N   1      28.401  18.631   6.411  0.00  0.00     0.046 A 
HETATM    8  C   UNK N   1      27.645  19.273   4.189  0.00  0.00     0.018 A 
HETATM    9  C   UNK N   1      29.662  16.647   6.743  0.00  0.00     0.090 A 
HETATM   10  C   UNK N   1      27.770  19.757   6.946  0.00  0.00     0.054 A 
HETATM   11  C   UNK N   1      27.019  20.398   4.732  0.00  0.00     0.025 A 
HETATM   12  C   UNK N   1      27.083  20.639   6.108  0.00  0.00     0.036 A 
ENDROOT
BRANCH   4  13
HETATM   13  N   UNK N   1      28.841  16.907   3.148  0.00  0.00    -0.385 N 
HETATM   14  H   UNK N   1      29.279  17.443   2.448  0.00  0.00     0.160 HD
BRANCH  13  15
HETATM   15  C   UNK N   1      28.051  15.755   2.826  0.00  0.00     0.077 C 
HETATM   16  C   UNK N   1      28.741  14.765   1.902  0.00  0.00     0.032 C 
BRANCH  15  17
HETATM   17  C   UNK N   1      26.566  16.073   2.663  0.00  0.00     0.026 C 
BRANCH  17  18
HETATM   18  C   UNK N   1      25.674  15.528   3.761  0.00  0.00     0.032 C 
BRANCH  18  19
HETATM   19  C   UNK N   1      25.056  16.620   4.642  0.00  0.00     0.272 C 
BRANCH  19  20
HETATM   20  N   UNK N   1      23.630  16.376   4.901  0.00  0.00     0.087 N 
BRANCH  20  21
HETATM   21  C   UNK N   1      23.125  15.377   3.949  0.00  0.00     0.268 C 
HETATM   22  C   UNK N   1      21.778  15.795   3.394  0.00  0.00     0.037 C 
ENDBRANCH  20  21
BRANCH  20  23
HETATM   23  C   UNK N   1      22.954  17.680   4.813  0.00  0.00     0.268 C 
HETATM   24  C   UNK N   1      23.772  18.805   4.190  0.00  0.00     0.037 C 
ENDBRANCH  20  23
ENDBRANCH  19  20
ENDBRANCH  18  19
ENDBRANCH  17  18
ENDBRANCH  15  17
ENDBRANCH  13  15
ENDBRANCH   4  13
TORSDOF 8
ENDMDL
MODEL 9
REMARK VINA RESULT:      -4.8      1.795      2.367
REMARK  8 active torsions:
REMARK  status: ('A' for Active; 'I' for Inactive)
REMARK    1  A    between atoms: N_2  and  C_9 
REMARK    2  A    between atoms: N_2  and  C_11 
REMARK    3  A    between atoms: N_2  and  C_12 
REMARK    4  A    between atoms: N_3  and  C_8 
REMARK    5  A    between atoms: N_3  and  C_13 
REMARK    6  A    between atoms: C_6  and  C_7 
REMARK    7  A    between atoms: C_6  and  C_8 
REMARK    8  A    between atoms: C_7  and  C_9 
ROOT
HETATM    1 Cl   UNK N   1      29.439  30.665  -6.643  0.00  0.00    -0.084 Cl
HETATM    2  N   UNK N   1      28.078  26.711  -9.586  0.00  0.00    -0.365 N 
ATOM      3  HN  UNK N   1      28.744  27.063 -10.274  1.00  0.00     0.165 HD
HETATM    4  C   UNK N   1      26.265  25.751  -7.724  0.00  0.00     0.042 A 
HETATM    5  C   UNK N   1      26.991  26.918  -7.453  0.00  0.00     0.017 A 
HETATM    6  C   UNK N   1      26.468  25.074  -8.928  0.00  0.00     0.047 A 
HETATM    7  C   UNK N   1      27.912  27.385  -8.418  0.00  0.00     0.046 A 
HETATM    8  C   UNK N   1      26.845  27.606  -6.242  0.00  0.00     0.018 A 
HETATM    9  C   UNK N   1      27.376  25.576  -9.859  0.00  0.00     0.090 A 
HETATM   10  C   UNK N   1      28.663  28.534  -8.160  0.00  0.00     0.054 A 
HETATM   11  C   UNK N   1      27.600  28.755  -5.994  0.00  0.00     0.025 A 
HETATM   12  C   UNK N   1      28.506  29.219  -6.953  0.00  0.00     0.036 A 
ENDROOT
BRANCH   4  13
HETATM   13  N   UNK N   1      25.415  25.196  -6.748  0.00  0.00    -0.385 N 
HETATM   14  H   UNK N   1      24.490  25.513  -6.633  0.00  0.00     0.160 HD
BRANCH  13  15
HETATM   15  C   UNK N   1      25.955  24.149  -5.931  0.00  0.00     0.077 C 
HETATM   16  C   UNK N   1      25.689  22.748  -6.456  0.00  0.00     0.032 C 
BRANCH  15  17
HETATM   17  C   UNK N   1      25.873  24.453  -4.437  0.00  0.00     0.026 C 
BRANCH  17  18
HETATM   18  C   UNK N   1      27.178  24.294  -3.682  0.00  0.00     0.032 C 
BRANCH  18  19
HETATM   19  C   UNK N   1      28.344  25.069  -4.310  0.00  0.00     0.272 C 
BRANCH  19  20
HETATM   20  N   UNK N   1      29.614  24.337  -4.199  0.00  0.00     0.087 N 
BRANCH  20  21
HETATM   21  C   UNK N   1      29.383  23.062  -3.507  0.00  0.00     0.268 C 
HETATM   22  C   UNK N   1      30.241  22.964  -2.260  0.00  0.00     0.037 C 
ENDBRANCH  20  21
BRANCH  20  23
HETATM   23  C   UNK N   1      30.558  25.230  -3.509  0.00  0.00     0.268 C 
HETATM   24  C   UNK N   1      30.466  26.704  -3.886  0.00  0.00     0.037 C 
ENDBRANCH  20  23
ENDBRANCH  19  20
ENDBRANCH  18  19
ENDBRANCH  17  18
ENDBRANCH  15  17
ENDBRANCH  13  15
ENDBRANCH   4  13
TORSDOF 8
ENDMDL
