REMARK  5 active torsions:
REMARK  status: ('A' for Active; 'I' for Inactive)
REMARK    1  A    between atoms: C_12  and  O_21 
REMARK    2  A    between atoms: C_15  and  C_22 
REMARK    3  A    between atoms: C_15  and  O_23 
REMARK    4  A    between atoms: C_22  and  O_24 
REMARK    5  A    between atoms: O_24  and  C_26 
ROOT
HETATM    1  C   UNK N   1       7.062 -12.362   0.217  0.00  0.00    -0.009 C 
HETATM    2  C   UNK N   1       5.886 -12.996   0.277  0.00  0.00     0.052 C 
HETATM    3  C   UNK N   1       5.839 -14.454   0.138  0.00  0.00     0.171 C 
HETATM    4  C   UNK N   1       7.093 -15.214   0.197  0.00  0.00     0.058 C 
HETATM    5  C   UNK N   1       8.280 -14.591   0.121  0.00  0.00    -0.064 C 
HETATM    6  C   UNK N   1       8.377 -13.075  -0.067  0.00  0.00     0.004 C 
HETATM    7  C   UNK N   1       9.534 -12.574   0.858  0.00  0.00     0.035 C 
HETATM    8  C   UNK N   1       9.512 -15.432   0.333  0.00  0.00     0.036 C 
HETATM    9  C   UNK N   1      10.871 -14.721   0.253  0.00  0.00     0.010 C 
HETATM   10  C   UNK N   1      10.919 -13.198   0.476  0.00  0.00    -0.002 C 
HETATM   11  C   UNK N   1      10.150 -10.443  -0.367  0.00  0.00     0.045 C 
HETATM   12  C   UNK N   1       9.714 -11.043   0.956  0.00  0.00     0.124 C 
HETATM   13  C   UNK N   1      11.581 -12.538  -0.785  0.00  0.00     0.002 C 
HETATM   14  C   UNK N   1      11.508 -11.002  -0.804  0.00  0.00     0.003 C 
HETATM   15  C   UNK N   1      12.709 -10.573   0.072  0.00  0.00     0.153 C 
HETATM   16  C   UNK N   1      13.099 -12.809  -0.835  0.00  0.00     0.009 C 
HETATM   17  C   UNK N   1      13.810 -11.486  -0.458  0.00  0.00     0.050 C 
HETATM   18  O   UNK N   1       4.769 -15.030   0.035  0.00  0.00    -0.289 OA
HETATM   19  C   UNK N   1       8.628 -12.801  -1.542  0.00  0.00     0.025 C 
HETATM   20  C   UNK N   1      11.721 -10.539  -2.257  0.00  0.00     0.019 C 
ENDROOT
BRANCH  15  21
HETATM   21  C   UNK N   1      13.001  -9.090   0.019  0.00  0.00     0.295 C 
HETATM   22  O   UNK N   1      13.948  -8.631   0.640  0.00  0.00    -0.262 OA
BRANCH  21  23
HETATM   23  O   UNK N   1      12.132  -8.270  -0.623  0.00  0.00    -0.304 OA
BRANCH  23  24
HETATM   24  C   UNK N   1      12.008  -6.934  -0.341  0.00  0.00     0.293 C 
HETATM   25 Cl   UNK N   1      10.320  -6.638   0.149  0.00  0.00    -0.101 Cl
ENDBRANCH  23  24
ENDBRANCH  21  23
ENDBRANCH  15  21
BRANCH  15  26
HETATM   26  O   UNK N   1      12.508 -10.890   1.419  0.00  0.00    -0.379 OA
HETATM   27  H   UNK N   1      12.249 -10.879   2.353  0.00  0.00     0.211 HD
ENDBRANCH  15  26
BRANCH  12  28
HETATM   28  O   UNK N   1       8.578 -10.392   1.438  0.00  0.00    -0.395 OA
HETATM   29  H   UNK N   1       8.575  -9.482   1.773  0.00  0.00     0.210 HD
ENDBRANCH  12  28
TORSDOF 5
