MODEL 1
REMARK VINA RESULT:      -7.6      0.000      0.000
REMARK  5 active torsions:
REMARK  status: ('A' for Active; 'I' for Inactive)
REMARK    1  A    between atoms: C_14  and  O_20 
REMARK    2  A    between atoms: C_17  and  C_23 
REMARK    3  A    between atoms: C_17  and  O_26 
REMARK    4  A    between atoms: C_23  and  C_24 
REMARK    5  A    between atoms: C_24  and  O_27 
ROOT
HETATM    1  C   UNK N   1      32.390  19.798  -4.901  0.00  0.00     0.052 C 
HETATM    2  C   UNK N   1      33.250  20.502  -3.934  0.00  0.00     0.172 C 
HETATM    3  C   UNK N   1      32.705  21.682  -3.229  0.00  0.00     0.058 C 
HETATM    4  C   UNK N   1      31.557  22.245  -3.652  0.00  0.00    -0.062 C 
HETATM    5  C   UNK N   1      31.012  21.864  -5.033  0.00  0.00     0.004 C 
HETATM    6  C   UNK N   1      31.272  20.398  -5.331  0.00  0.00    -0.009 C 
HETATM    7  C   UNK N   1      31.128  23.534  -2.998  0.00  0.00     0.056 C 
HETATM    8  C   UNK N   1      29.653  23.873  -3.238  0.00  0.00     0.091 C 
HETATM    9  C   UNK N   1      29.290  23.713  -4.727  0.00  0.00     0.017 C 
HETATM   10  C   UNK N   1      29.503  22.231  -5.186  0.00  0.00     0.036 C 
HETATM   11  C   UNK N   1      27.850  24.158  -5.061  0.00  0.00     0.003 C 
HETATM   12  C   UNK N   1      27.602  24.065  -6.573  0.00  0.00     0.001 C 
HETATM   13  C   UNK N   1      27.647  22.593  -6.975  0.00  0.00     0.045 C 
HETATM   14  C   UNK N   1      29.020  21.996  -6.654  0.00  0.00     0.124 C 
HETATM   15  C   UNK N   1      27.454  25.590  -4.712  0.00  0.00     0.013 C 
HETATM   16  C   UNK N   1      26.439  25.983  -5.800  0.00  0.00     0.025 C 
HETATM   17  C   UNK N   1      26.235  24.749  -6.709  0.00  0.00     0.131 C 
HETATM   18  O   UNK N   1      34.359  20.074  -3.664  0.00  0.00    -0.289 OA
HETATM   19  C   UNK N   1      31.832  22.660  -6.054  0.00  0.00     0.025 C 
HETATM   20  C   UNK N   1      28.657  24.855  -7.385  0.00  0.00     0.019 C 
HETATM   21  C   UNK N   1      25.152  26.573  -5.244  0.00  0.00     0.013 C 
HETATM   22 Cl   UNK N   1      28.608  22.937  -2.126  0.00  0.00    -0.124 Cl
ENDROOT
BRANCH  17  23
HETATM   23  C   UNK N   1      25.870  25.104  -8.139  0.00  0.00     0.185 C 
HETATM   24  O   UNK N   1      25.851  26.272  -8.503  0.00  0.00    -0.292 OA
BRANCH  23  25
HETATM   25  C   UNK N   1      25.562  24.027  -9.131  0.00  0.00     0.245 C 
BRANCH  25  26
HETATM   26  O   UNK N   1      24.446  23.303  -8.706  0.00  0.00    -0.393 OA
HETATM   27  H   UNK N   1      23.639  22.916  -9.080  0.00  0.00     0.209 HD
ENDBRANCH  25  26
ENDBRANCH  23  25
ENDBRANCH  17  23
BRANCH  17  28
HETATM   28  O   UNK N   1      25.239  23.922  -6.170  0.00  0.00    -0.381 OA
HETATM   29  H   UNK N   1      24.529  23.514  -5.650  0.00  0.00     0.211 HD
ENDBRANCH  17  28
BRANCH  14  30
HETATM   30  O   UNK N   1      28.990  20.632  -6.955  0.00  0.00    -0.395 OA
HETATM   31  H   UNK N   1      29.522  19.844  -6.763  0.00  0.00     0.210 HD
ENDBRANCH  14  30
TORSDOF 5
ENDMDL
MODEL 2
REMARK VINA RESULT:      -7.3     20.388     24.302
REMARK  5 active torsions:
REMARK  status: ('A' for Active; 'I' for Inactive)
REMARK    1  A    between atoms: C_14  and  O_20 
REMARK    2  A    between atoms: C_17  and  C_23 
REMARK    3  A    between atoms: C_17  and  O_26 
REMARK    4  A    between atoms: C_23  and  C_24 
REMARK    5  A    between atoms: C_24  and  O_27 
ROOT
HETATM    1  C   UNK N   1      35.294  11.183  18.584  0.00  0.00     0.052 C 
HETATM    2  C   UNK N   1      35.227   9.716  18.703  0.00  0.00     0.172 C 
HETATM    3  C   UNK N   1      35.827   8.891  17.632  0.00  0.00     0.058 C 
HETATM    4  C   UNK N   1      36.186   9.462  16.467  0.00  0.00    -0.062 C 
HETATM    5  C   UNK N   1      35.678  10.872  16.146  0.00  0.00     0.004 C 
HETATM    6  C   UNK N   1      35.620  11.724  17.403  0.00  0.00    -0.009 C 
HETATM    7  C   UNK N   1      36.647   8.552  15.356  0.00  0.00     0.056 C 
HETATM    8  C   UNK N   1      37.407   9.288  14.248  0.00  0.00     0.091 C 
HETATM    9  C   UNK N   1      36.650  10.560  13.816  0.00  0.00     0.017 C 
HETATM   10  C   UNK N   1      36.516  11.552  15.020  0.00  0.00     0.036 C 
HETATM   11  C   UNK N   1      37.297  11.284  12.615  0.00  0.00     0.003 C 
HETATM   12  C   UNK N   1      36.430  12.475  12.183  0.00  0.00     0.001 C 
HETATM   13  C   UNK N   1      36.448  13.510  13.305  0.00  0.00     0.045 C 
HETATM   14  C   UNK N   1      35.872  12.910  14.591  0.00  0.00     0.124 C 
HETATM   15  C   UNK N   1      37.491  10.485  11.329  0.00  0.00     0.013 C 
HETATM   16  C   UNK N   1      37.334  11.525  10.205  0.00  0.00     0.025 C 
HETATM   17  C   UNK N   1      37.114  12.900  10.876  0.00  0.00     0.131 C 
HETATM   18  O   UNK N   1      34.756   9.197  19.699  0.00  0.00    -0.289 OA
HETATM   19  C   UNK N   1      34.230  10.710  15.673  0.00  0.00     0.025 C 
HETATM   20  C   UNK N   1      34.970  12.055  11.890  0.00  0.00     0.019 C 
HETATM   21  C   UNK N   1      38.466  11.496   9.190  0.00  0.00     0.013 C 
HETATM   22 Cl   UNK N   1      39.103   9.580  14.741  0.00  0.00    -0.124 Cl
ENDROOT
BRANCH  17  23
HETATM   23  C   UNK N   1      36.284  13.857  10.038  0.00  0.00     0.185 C 
HETATM   24  O   UNK N   1      35.826  13.501   8.962  0.00  0.00    -0.292 OA
BRANCH  23  25
HETATM   25  C   UNK N   1      35.988  15.237  10.536  0.00  0.00     0.245 C 
BRANCH  25  26
HETATM   26  O   UNK N   1      37.185  15.907  10.802  0.00  0.00    -0.393 OA
HETATM   27  H   UNK N   1      37.755  16.113  11.558  0.00  0.00     0.209 HD
ENDBRANCH  25  26
ENDBRANCH  23  25
ENDBRANCH  17  23
BRANCH  17  28
HETATM   28  O   UNK N   1      38.352  13.494  11.163  0.00  0.00    -0.381 OA
HETATM   29  H   UNK N   1      39.083  14.082  11.408  0.00  0.00     0.211 HD
ENDBRANCH  17  28
BRANCH  14  30
HETATM   30  O   UNK N   1      35.986  13.858  15.611  0.00  0.00    -0.395 OA
HETATM   31  H   UNK N   1      36.616  14.082  16.313  0.00  0.00     0.210 HD
ENDBRANCH  14  30
TORSDOF 5
ENDMDL
MODEL 3
REMARK VINA RESULT:      -7.2     18.797     22.552
REMARK  5 active torsions:
REMARK  status: ('A' for Active; 'I' for Inactive)
REMARK    1  A    between atoms: C_14  and  O_20 
REMARK    2  A    between atoms: C_17  and  C_23 
REMARK    3  A    between atoms: C_17  and  O_26 
REMARK    4  A    between atoms: C_23  and  C_24 
REMARK    5  A    between atoms: C_24  and  O_27 
ROOT
HETATM    1  C   UNK N   1      35.814  10.887  17.252  0.00  0.00     0.052 C 
HETATM    2  C   UNK N   1      35.351   9.520  16.953  0.00  0.00     0.172 C 
HETATM    3  C   UNK N   1      35.425   9.035  15.558  0.00  0.00     0.058 C 
HETATM    4  C   UNK N   1      35.662   9.905  14.558  0.00  0.00    -0.062 C 
HETATM    5  C   UNK N   1      35.529  11.406  14.835  0.00  0.00     0.004 C 
HETATM    6  C   UNK N   1      36.007  11.742  16.238  0.00  0.00    -0.009 C 
HETATM    7  C   UNK N   1      35.574   9.385  13.145  0.00  0.00     0.056 C 
HETATM    8  C   UNK N   1      36.244  10.306  12.119  0.00  0.00     0.091 C 
HETATM    9  C   UNK N   1      35.813  11.770  12.333  0.00  0.00     0.017 C 
HETATM   10  C   UNK N   1      36.250  12.266  13.753  0.00  0.00     0.036 C 
HETATM   11  C   UNK N   1      36.353  12.735  11.256  0.00  0.00     0.003 C 
HETATM   12  C   UNK N   1      35.798  14.148  11.481  0.00  0.00     0.001 C 
HETATM   13  C   UNK N   1      36.370  14.684  12.791  0.00  0.00     0.045 C 
HETATM   14  C   UNK N   1      35.950  13.787  13.960  0.00  0.00     0.124 C 
HETATM   15  C   UNK N   1      36.009  12.433   9.800  0.00  0.00     0.013 C 
HETATM   16  C   UNK N   1      35.912  13.818   9.134  0.00  0.00     0.025 C 
HETATM   17  C   UNK N   1      36.260  14.872  10.209  0.00  0.00     0.131 C 
HETATM   18  O   UNK N   1      34.988   8.780  17.851  0.00  0.00    -0.289 OA
HETATM   19  C   UNK N   1      34.028  11.717  14.812  0.00  0.00     0.025 C 
HETATM   20  C   UNK N   1      34.252  14.161  11.549  0.00  0.00     0.019 C 
HETATM   21  C   UNK N   1      36.726  13.933   7.855  0.00  0.00     0.013 C 
HETATM   22 Cl   UNK N   1      38.016  10.058  12.121  0.00  0.00    -0.124 Cl
ENDROOT
BRANCH  17  23
HETATM   23  C   UNK N   1      35.578  16.211   9.988  0.00  0.00     0.185 C 
HETATM   24  O   UNK N   1      35.914  17.192  10.636  0.00  0.00    -0.292 OA
BRANCH  23  25
HETATM   25  C   UNK N   1      34.510  16.352   8.950  0.00  0.00     0.245 C 
BRANCH  25  26
HETATM   26  O   UNK N   1      33.425  17.050   9.485  0.00  0.00    -0.393 OA
HETATM   27  H   UNK N   1      32.506  17.260   9.258  0.00  0.00     0.209 HD
ENDBRANCH  25  26
ENDBRANCH  23  25
ENDBRANCH  17  23
BRANCH  17  28
HETATM   28  O   UNK N   1      37.649  15.064  10.255  0.00  0.00    -0.381 OA
HETATM   29  H   UNK N   1      38.602  15.032  10.436  0.00  0.00     0.211 HD
ENDBRANCH  17  28
BRANCH  14  30
HETATM   30  O   UNK N   1      36.564  14.260  15.122  0.00  0.00    -0.395 OA
HETATM   31  H   UNK N   1      37.438  14.586  15.390  0.00  0.00     0.210 HD
ENDBRANCH  14  30
TORSDOF 5
ENDMDL
MODEL 4
REMARK VINA RESULT:      -7.0      2.638      4.075
REMARK  5 active torsions:
REMARK  status: ('A' for Active; 'I' for Inactive)
REMARK    1  A    between atoms: C_14  and  O_20 
REMARK    2  A    between atoms: C_17  and  C_23 
REMARK    3  A    between atoms: C_17  and  O_26 
REMARK    4  A    between atoms: C_23  and  C_24 
REMARK    5  A    between atoms: C_24  and  O_27 
ROOT
HETATM    1  C   UNK N   1      33.058  21.661  -4.489  0.00  0.00     0.052 C 
HETATM    2  C   UNK N   1      32.567  20.384  -5.038  0.00  0.00     0.172 C 
HETATM    3  C   UNK N   1      31.299  20.381  -5.799  0.00  0.00     0.058 C 
HETATM    4  C   UNK N   1      30.493  21.459  -5.765  0.00  0.00    -0.062 C 
HETATM    5  C   UNK N   1      30.736  22.530  -4.696  0.00  0.00     0.004 C 
HETATM    6  C   UNK N   1      32.222  22.707  -4.435  0.00  0.00    -0.009 C 
HETATM    7  C   UNK N   1      29.145  21.345  -6.430  0.00  0.00     0.056 C 
HETATM    8  C   UNK N   1      28.486  22.703  -6.698  0.00  0.00     0.091 C 
HETATM    9  C   UNK N   1      28.553  23.601  -5.447  0.00  0.00     0.017 C 
HETATM   10  C   UNK N   1      30.043  23.881  -5.055  0.00  0.00     0.036 C 
HETATM   11  C   UNK N   1      27.798  24.937  -5.607  0.00  0.00     0.003 C 
HETATM   12  C   UNK N   1      27.825  25.724  -4.289  0.00  0.00     0.001 C 
HETATM   13  C   UNK N   1      29.269  26.136  -4.009  0.00  0.00     0.045 C 
HETATM   14  C   UNK N   1      30.157  24.896  -3.871  0.00  0.00     0.124 C 
HETATM   15  C   UNK N   1      26.315  24.873  -5.966  0.00  0.00     0.013 C 
HETATM   16  C   UNK N   1      25.701  26.105  -5.276  0.00  0.00     0.025 C 
HETATM   17  C   UNK N   1      26.854  26.874  -4.592  0.00  0.00     0.131 C 
HETATM   18  O   UNK N   1      33.232  19.369  -4.932  0.00  0.00    -0.289 OA
HETATM   19  C   UNK N   1      30.137  21.984  -3.395  0.00  0.00     0.025 C 
HETATM   20  C   UNK N   1      27.285  24.891  -3.103  0.00  0.00     0.019 C 
HETATM   21  C   UNK N   1      24.844  26.952  -6.203  0.00  0.00     0.013 C 
HETATM   22 Cl   UNK N   1      29.173  23.450  -8.172  0.00  0.00    -0.124 Cl
ENDROOT
BRANCH  17  23
HETATM   23  C   UNK N   1      26.419  27.645  -3.358  0.00  0.00     0.185 C 
HETATM   24  O   UNK N   1      25.678  27.128  -2.534  0.00  0.00    -0.292 OA
BRANCH  23  25
HETATM   25  C   UNK N   1      26.919  29.034  -3.119  0.00  0.00     0.245 C 
BRANCH  25  26
HETATM   26  O   UNK N   1      26.054  29.955  -3.714  0.00  0.00    -0.393 OA
HETATM   27  H   UNK N   1      25.923  30.388  -4.572  0.00  0.00     0.209 HD
ENDBRANCH  25  26
ENDBRANCH  23  25
ENDBRANCH  17  23
BRANCH  17  28
HETATM   28  O   UNK N   1      27.443  27.760  -5.506  0.00  0.00    -0.381 OA
HETATM   29  H   UNK N   1      27.943  28.460  -5.955  0.00  0.00     0.211 HD
ENDBRANCH  17  28
BRANCH  14  30
HETATM   30  O   UNK N   1      31.479  25.316  -3.703  0.00  0.00    -0.395 OA
HETATM   31  H   UNK N   1      32.231  25.103  -3.129  0.00  0.00     0.210 HD
ENDBRANCH  14  30
TORSDOF 5
ENDMDL
MODEL 5
REMARK VINA RESULT:      -6.9     12.507     15.953
REMARK  5 active torsions:
REMARK  status: ('A' for Active; 'I' for Inactive)
REMARK    1  A    between atoms: C_14  and  O_20 
REMARK    2  A    between atoms: C_17  and  C_23 
REMARK    3  A    between atoms: C_17  and  O_26 
REMARK    4  A    between atoms: C_23  and  C_24 
REMARK    5  A    between atoms: C_24  and  O_27 
ROOT
HETATM    1  C   UNK N   1      34.822  13.914  11.531  0.00  0.00     0.052 C 
HETATM    2  C   UNK N   1      35.542  15.133  11.940  0.00  0.00     0.172 C 
HETATM    3  C   UNK N   1      35.383  16.357  11.126  0.00  0.00     0.058 C 
HETATM    4  C   UNK N   1      34.809  16.284   9.910  0.00  0.00    -0.062 C 
HETATM    5  C   UNK N   1      34.630  14.908   9.258  0.00  0.00     0.004 C 
HETATM    6  C   UNK N   1      34.293  13.856  10.301  0.00  0.00    -0.009 C 
HETATM    7  C   UNK N   1      34.813  17.530   9.060  0.00  0.00     0.056 C 
HETATM    8  C   UNK N   1      33.807  17.476   7.905  0.00  0.00     0.091 C 
HETATM    9  C   UNK N   1      33.913  16.137   7.149  0.00  0.00     0.017 C 
HETATM   10  C   UNK N   1      33.581  14.942   8.104  0.00  0.00     0.036 C 
HETATM   11  C   UNK N   1      33.014  16.064   5.895  0.00  0.00     0.003 C 
HETATM   12  C   UNK N   1      33.254  14.747   5.145  0.00  0.00     0.001 C 
HETATM   13  C   UNK N   1      32.767  13.599   6.027  0.00  0.00     0.045 C 
HETATM   14  C   UNK N   1      33.546  13.575   7.345  0.00  0.00     0.124 C 
HETATM   15  C   UNK N   1      33.206  17.136   4.825  0.00  0.00     0.013 C 
HETATM   16  C   UNK N   1      32.884  16.418   3.502  0.00  0.00     0.025 C 
HETATM   17  C   UNK N   1      32.458  14.974   3.852  0.00  0.00     0.131 C 
HETATM   18  O   UNK N   1      36.191  15.151  12.971  0.00  0.00    -0.289 OA
HETATM   19  C   UNK N   1      35.998  14.520   8.688  0.00  0.00     0.025 C 
HETATM   20  C   UNK N   1      34.748  14.536   4.801  0.00  0.00     0.019 C 
HETATM   21  C   UNK N   1      31.890  17.172   2.631  0.00  0.00     0.013 C 
HETATM   22 Cl   UNK N   1      32.159  17.855   8.492  0.00  0.00    -0.124 Cl
ENDROOT
BRANCH  17  23
HETATM   23  C   UNK N   1      32.772  13.969   2.758  0.00  0.00     0.185 C 
HETATM   24  O   UNK N   1      33.624  14.214   1.917  0.00  0.00    -0.292 OA
BRANCH  23  25
HETATM   25  C   UNK N   1      32.065  12.651   2.717  0.00  0.00     0.245 C 
BRANCH  25  26
HETATM   26  O   UNK N   1      30.802  12.812   2.144  0.00  0.00    -0.393 OA
HETATM   27  H   UNK N   1      29.994  12.297   1.997  0.00  0.00     0.209 HD
ENDBRANCH  25  26
ENDBRANCH  23  25
ENDBRANCH  17  23
BRANCH  17  28
HETATM   28  O   UNK N   1      31.084  14.937   4.132  0.00  0.00    -0.381 OA
HETATM   29  H   UNK N   1      30.193  14.751   4.467  0.00  0.00     0.211 HD
ENDBRANCH  17  28
BRANCH  14  30
HETATM   30  O   UNK N   1      33.012  12.570   8.155  0.00  0.00    -0.395 OA
HETATM   31  H   UNK N   1      32.246  11.976   8.149  0.00  0.00     0.210 HD
ENDBRANCH  14  30
TORSDOF 5
ENDMDL
MODEL 6
REMARK VINA RESULT:      -6.9     13.402     18.019
REMARK  5 active torsions:
REMARK  status: ('A' for Active; 'I' for Inactive)
REMARK    1  A    between atoms: C_14  and  O_20 
REMARK    2  A    between atoms: C_17  and  C_23 
REMARK    3  A    between atoms: C_17  and  O_26 
REMARK    4  A    between atoms: C_23  and  C_24 
REMARK    5  A    between atoms: C_24  and  O_27 
ROOT
HETATM    1  C   UNK N   1      33.020  16.075   3.240  0.00  0.00     0.052 C 
HETATM    2  C   UNK N   1      31.663  16.578   3.515  0.00  0.00     0.172 C 
HETATM    3  C   UNK N   1      31.324  16.985   4.896  0.00  0.00     0.058 C 
HETATM    4  C   UNK N   1      32.146  16.659   5.912  0.00  0.00    -0.062 C 
HETATM    5  C   UNK N   1      33.234  15.607   5.674  0.00  0.00     0.004 C 
HETATM    6  C   UNK N   1      33.802  15.724   4.270  0.00  0.00    -0.009 C 
HETATM    7  C   UNK N   1      31.678  16.961   7.313  0.00  0.00     0.056 C 
HETATM    8  C   UNK N   1      32.810  16.942   8.346  0.00  0.00     0.091 C 
HETATM    9  C   UNK N   1      33.684  15.683   8.178  0.00  0.00     0.017 C 
HETATM   10  C   UNK N   1      34.351  15.667   6.761  0.00  0.00     0.036 C 
HETATM   11  C   UNK N   1      34.769  15.537   9.266  0.00  0.00     0.003 C 
HETATM   12  C   UNK N   1      35.524  14.212   9.088  0.00  0.00     0.001 C 
HETATM   13  C   UNK N   1      36.307  14.281   7.778  0.00  0.00     0.045 C 
HETATM   14  C   UNK N   1      35.351  14.476   6.598  0.00  0.00     0.124 C 
HETATM   15  C   UNK N   1      34.311  15.505  10.722  0.00  0.00     0.013 C 
HETATM   16  C   UNK N   1      35.326  14.585  11.423  0.00  0.00     0.025 C 
HETATM   17  C   UNK N   1      36.373  14.162  10.366  0.00  0.00     0.131 C 
HETATM   18  O   UNK N   1      30.863  16.728   2.608  0.00  0.00    -0.289 OA
HETATM   19  C   UNK N   1      32.537  14.243   5.739  0.00  0.00     0.025 C 
HETATM   20  C   UNK N   1      34.567  12.997   9.055  0.00  0.00     0.019 C 
HETATM   21  C   UNK N   1      35.919  15.190  12.686  0.00  0.00     0.013 C 
HETATM   22 Cl   UNK N   1      33.726  18.479   8.298  0.00  0.00    -0.124 Cl
ENDROOT
BRANCH  17  23
HETATM   23  C   UNK N   1      36.989  12.801  10.636  0.00  0.00     0.185 C 
HETATM   24  O   UNK N   1      36.367  11.952  11.259  0.00  0.00    -0.292 OA
BRANCH  23  25
HETATM   25  C   UNK N   1      38.351  12.470  10.113  0.00  0.00     0.245 C 
BRANCH  25  26
HETATM   26  O   UNK N   1      39.305  13.266  10.752  0.00  0.00    -0.393 OA
HETATM   27  H   UNK N   1      39.729  14.130  10.641  0.00  0.00     0.209 HD
ENDBRANCH  25  26
ENDBRANCH  23  25
ENDBRANCH  17  23
BRANCH  17  28
HETATM   28  O   UNK N   1      37.391  15.123  10.294  0.00  0.00    -0.381 OA
HETATM   29  H   UNK N   1      37.957  15.908  10.369  0.00  0.00     0.211 HD
ENDBRANCH  17  28
BRANCH  14  30
HETATM   30  O   UNK N   1      36.110  14.620   5.434  0.00  0.00    -0.395 OA
HETATM   31  H   UNK N   1      36.302  14.106   4.635  0.00  0.00     0.210 HD
ENDBRANCH  14  30
TORSDOF 5
ENDMDL
MODEL 7
REMARK VINA RESULT:      -6.9      2.445      3.557
REMARK  5 active torsions:
REMARK  status: ('A' for Active; 'I' for Inactive)
REMARK    1  A    between atoms: C_14  and  O_20 
REMARK    2  A    between atoms: C_17  and  C_23 
REMARK    3  A    between atoms: C_17  and  O_26 
REMARK    4  A    between atoms: C_23  and  C_24 
REMARK    5  A    between atoms: C_24  and  O_27 
ROOT
HETATM    1  C   UNK N   1      33.825  20.608  -3.013  0.00  0.00     0.052 C 
HETATM    2  C   UNK N   1      34.536  20.330  -4.274  0.00  0.00     0.172 C 
HETATM    3  C   UNK N   1      34.376  21.275  -5.401  0.00  0.00     0.058 C 
HETATM    4  C   UNK N   1      33.408  22.210  -5.359  0.00  0.00    -0.062 C 
HETATM    5  C   UNK N   1      32.295  22.078  -4.313  0.00  0.00     0.004 C 
HETATM    6  C   UNK N   1      32.842  21.518  -3.010  0.00  0.00    -0.009 C 
HETATM    7  C   UNK N   1      33.188  23.043  -6.597  0.00  0.00     0.056 C 
HETATM    8  C   UNK N   1      32.380  24.318  -6.332  0.00  0.00     0.091 C 
HETATM    9  C   UNK N   1      31.126  24.007  -5.490  0.00  0.00     0.017 C 
HETATM   10  C   UNK N   1      31.535  23.422  -4.096  0.00  0.00     0.036 C 
HETATM   11  C   UNK N   1      30.200  25.226  -5.291  0.00  0.00     0.003 C 
HETATM   12  C   UNK N   1      28.930  24.811  -4.535  0.00  0.00     0.001 C 
HETATM   13  C   UNK N   1      29.330  24.403  -3.119  0.00  0.00     0.045 C 
HETATM   14  C   UNK N   1      30.299  23.217  -3.161  0.00  0.00     0.124 C 
HETATM   15  C   UNK N   1      29.671  25.924  -6.542  0.00  0.00     0.013 C 
HETATM   16  C   UNK N   1      28.280  26.441  -6.132  0.00  0.00     0.025 C 
HETATM   17  C   UNK N   1      28.073  26.080  -4.643  0.00  0.00     0.131 C 
HETATM   18  O   UNK N   1      35.300  19.385  -4.358  0.00  0.00    -0.289 OA
HETATM   19  C   UNK N   1      31.320  21.026  -4.852  0.00  0.00     0.025 C 
HETATM   20  C   UNK N   1      28.201  23.634  -5.226  0.00  0.00     0.019 C 
HETATM   21  C   UNK N   1      28.061  27.910  -6.458  0.00  0.00     0.013 C 
HETATM   22 Cl   UNK N   1      33.430  25.590  -5.636  0.00  0.00    -0.124 Cl
ENDROOT
BRANCH  17  23
HETATM   23  C   UNK N   1      26.617  25.865  -4.269  0.00  0.00     0.185 C 
HETATM   24  O   UNK N   1      26.305  25.612  -3.114  0.00  0.00    -0.292 OA
BRANCH  23  25
HETATM   25  C   UNK N   1      25.544  25.993  -5.303  0.00  0.00     0.245 C 
BRANCH  25  26
HETATM   26  O   UNK N   1      25.018  24.733  -5.594  0.00  0.00    -0.393 OA
HETATM   27  H   UNK N   1      25.312  23.884  -5.958  0.00  0.00     0.209 HD
ENDBRANCH  25  26
ENDBRANCH  23  25
ENDBRANCH  17  23
BRANCH  17  28
HETATM   28  O   UNK N   1      28.615  27.085  -3.830  0.00  0.00    -0.381 OA
HETATM   29  H   UNK N   1      29.088  27.845  -3.456  0.00  0.00     0.211 HD
ENDBRANCH  17  28
BRANCH  14  30
HETATM   30  O   UNK N   1      30.706  22.933  -1.855  0.00  0.00    -0.395 OA
HETATM   31  H   UNK N   1      30.351  23.028  -0.957  0.00  0.00     0.210 HD
ENDBRANCH  14  30
TORSDOF 5
ENDMDL
MODEL 8
REMARK VINA RESULT:      -6.2     20.364     24.167
REMARK  5 active torsions:
REMARK  status: ('A' for Active; 'I' for Inactive)
REMARK    1  A    between atoms: C_14  and  O_20 
REMARK    2  A    between atoms: C_17  and  C_23 
REMARK    3  A    between atoms: C_17  and  O_26 
REMARK    4  A    between atoms: C_23  and  C_24 
REMARK    5  A    between atoms: C_24  and  O_27 
ROOT
HETATM    1  C   UNK N   1      35.165  12.617  17.989  0.00  0.00     0.052 C 
HETATM    2  C   UNK N   1      35.559  11.442  18.785  0.00  0.00     0.172 C 
HETATM    3  C   UNK N   1      36.278  10.338  18.112  0.00  0.00     0.058 C 
HETATM    4  C   UNK N   1      36.334  10.297  16.767  0.00  0.00    -0.062 C 
HETATM    5  C   UNK N   1      35.393  11.197  15.959  0.00  0.00     0.004 C 
HETATM    6  C   UNK N   1      35.197  12.535  16.652  0.00  0.00    -0.009 C 
HETATM    7  C   UNK N   1      36.943   9.072  16.131  0.00  0.00     0.056 C 
HETATM    8  C   UNK N   1      37.334   9.284  14.665  0.00  0.00     0.091 C 
HETATM    9  C   UNK N   1      36.189   9.958  13.884  0.00  0.00     0.017 C 
HETATM   10  C   UNK N   1      35.873  11.369  14.485  0.00  0.00     0.036 C 
HETATM   11  C   UNK N   1      36.468  10.088  12.371  0.00  0.00     0.003 C 
HETATM   12  C   UNK N   1      35.243  10.672  11.653  0.00  0.00     0.001 C 
HETATM   13  C   UNK N   1      35.051  12.110  12.128  0.00  0.00     0.045 C 
HETATM   14  C   UNK N   1      34.809  12.142  13.640  0.00  0.00     0.124 C 
HETATM   15  C   UNK N   1      36.773   8.809  11.595  0.00  0.00     0.013 C 
HETATM   16  C   UNK N   1      36.201   9.067  10.190  0.00  0.00     0.025 C 
HETATM   17  C   UNK N   1      35.637  10.507  10.178  0.00  0.00     0.131 C 
HETATM   18  O   UNK N   1      35.366  11.416  19.988  0.00  0.00    -0.289 OA
HETATM   19  C   UNK N   1      34.025  10.508  15.968  0.00  0.00     0.025 C 
HETATM   20  C   UNK N   1      33.959   9.857  11.938  0.00  0.00     0.019 C 
HETATM   21  C   UNK N   1      37.187   8.770   9.071  0.00  0.00     0.013 C 
HETATM   22 Cl   UNK N   1      38.900  10.146  14.554  0.00  0.00    -0.124 Cl
ENDROOT
BRANCH  17  23
HETATM   23  C   UNK N   1      34.480  10.696   9.213  0.00  0.00     0.185 C 
HETATM   24  O   UNK N   1      33.965   9.731   8.667  0.00  0.00    -0.292 OA
BRANCH  23  25
HETATM   25  C   UNK N   1      33.935  12.063   8.946  0.00  0.00     0.245 C 
BRANCH  25  26
HETATM   26  O   UNK N   1      32.602  12.127   9.360  0.00  0.00    -0.393 OA
HETATM   27  H   UNK N   1      32.059  12.608  10.004  0.00  0.00     0.209 HD
ENDBRANCH  25  26
ENDBRANCH  23  25
ENDBRANCH  17  23
BRANCH  17  28
HETATM   28  O   UNK N   1      36.657  11.415   9.859  0.00  0.00    -0.381 OA
HETATM   29  H   UNK N   1      37.255  12.056   9.444  0.00  0.00     0.211 HD
ENDBRANCH  17  28
BRANCH  14  30
HETATM   30  O   UNK N   1      34.725  13.476  14.046  0.00  0.00    -0.395 OA
HETATM   31  H   UNK N   1      35.167  14.315  13.844  0.00  0.00     0.210 HD
ENDBRANCH  14  30
TORSDOF 5
ENDMDL
MODEL 9
REMARK VINA RESULT:      -6.1     12.052     13.414
REMARK  5 active torsions:
REMARK  status: ('A' for Active; 'I' for Inactive)
REMARK    1  A    between atoms: C_14  and  O_20 
REMARK    2  A    between atoms: C_17  and  C_23 
REMARK    3  A    between atoms: C_17  and  O_26 
REMARK    4  A    between atoms: C_23  and  C_24 
REMARK    5  A    between atoms: C_24  and  O_27 
ROOT
HETATM    1  C   UNK N   1      33.642  13.283   2.348  0.00  0.00     0.052 C 
HETATM    2  C   UNK N   1      34.962  13.608   2.916  0.00  0.00     0.172 C 
HETATM    3  C   UNK N   1      35.023  14.250   4.247  0.00  0.00     0.058 C 
HETATM    4  C   UNK N   1      33.903  14.756   4.799  0.00  0.00    -0.062 C 
HETATM    5  C   UNK N   1      32.665  14.949   3.916  0.00  0.00     0.004 C 
HETATM    6  C   UNK N   1      32.548  13.829   2.896  0.00  0.00    -0.009 C 
HETATM    7  C   UNK N   1      34.048  15.535   6.082  0.00  0.00     0.056 C 
HETATM    8  C   UNK N   1      32.724  15.711   6.834  0.00  0.00     0.091 C 
HETATM    9  C   UNK N   1      31.608  16.176   5.879  0.00  0.00     0.017 C 
HETATM   10  C   UNK N   1      31.364  15.106   4.762  0.00  0.00     0.036 C 
HETATM   11  C   UNK N   1      30.277  16.493   6.594  0.00  0.00     0.003 C 
HETATM   12  C   UNK N   1      29.254  17.045   5.592  0.00  0.00     0.001 C 
HETATM   13  C   UNK N   1      28.899  15.932   4.609  0.00  0.00     0.045 C 
HETATM   14  C   UNK N   1      30.150  15.476   3.850  0.00  0.00     0.124 C 
HETATM   15  C   UNK N   1      30.304  17.539   7.706  0.00  0.00     0.013 C 
HETATM   16  C   UNK N   1      28.921  18.212   7.631  0.00  0.00     0.025 C 
HETATM   17  C   UNK N   1      28.118  17.496   6.522  0.00  0.00     0.131 C 
HETATM   18  O   UNK N   1      35.983  13.283   2.335  0.00  0.00    -0.289 OA
HETATM   19  C   UNK N   1      32.905  16.233   3.113  0.00  0.00     0.025 C 
HETATM   20  C   UNK N   1      29.801  18.267   4.816  0.00  0.00     0.019 C 
HETATM   21  C   UNK N   1      28.211  18.284   8.974  0.00  0.00     0.013 C 
HETATM   22 Cl   UNK N   1      32.328  14.228   7.755  0.00  0.00    -0.124 Cl
ENDROOT
BRANCH  17  23
HETATM   23  C   UNK N   1      27.094  18.388   5.844  0.00  0.00     0.185 C 
HETATM   24  O   UNK N   1      26.186  17.900   5.185  0.00  0.00    -0.292 OA
BRANCH  23  25
HETATM   25  C   UNK N   1      27.164  19.874   6.001  0.00  0.00     0.245 C 
BRANCH  25  26
HETATM   26  O   UNK N   1      26.155  20.303   6.867  0.00  0.00    -0.393 OA
HETATM   27  H   UNK N   1      25.979  20.347   7.820  0.00  0.00     0.209 HD
ENDBRANCH  25  26
ENDBRANCH  23  25
ENDBRANCH  17  23
BRANCH  17  28
HETATM   28  O   UNK N   1      27.470  16.371   7.054  0.00  0.00    -0.381 OA
HETATM   29  H   UNK N   1      26.966  15.557   7.209  0.00  0.00     0.211 HD
ENDBRANCH  17  28
BRANCH  14  30
HETATM   30  O   UNK N   1      29.800  14.403   3.028  0.00  0.00    -0.395 OA
HETATM   31  H   UNK N   1      29.339  14.265   2.185  0.00  0.00     0.210 HD
ENDBRANCH  14  30
TORSDOF 5
ENDMDL
