MODEL 1
REMARK VINA RESULT:      -8.1      0.000      0.000
REMARK  7 active torsions:
REMARK  status: ('A' for Active; 'I' for Inactive)
REMARK    1  A    between atoms: C_6  and  C_8 
REMARK    2  A    between atoms: C_8  and  O_7 
REMARK    3  A    between atoms: C_10  and  N_11 
REMARK       I    between atoms: N_11  and  C_12 
REMARK    4  A    between atoms: C_12  and  C_14 
REMARK    5  A    between atoms: C_14  and  C_18 
REMARK    6  A    between atoms: C_14  and  N_19 
REMARK       I    between atoms: N_19  and  C_25 
REMARK       I    between atoms: C_25  and  N_27 
REMARK    7  A    between atoms: N_30  and  C_35 
ROOT
HETATM    1  C   UNK N   1      34.926  11.160  11.187  0.00  0.00     0.211 C 
ENDROOT
BRANCH   1   2
HETATM    2  C   UNK N   1      35.160  12.244  10.179  0.00  0.00     0.245 C 
HETATM    3  N   UNK N   1      34.434  13.388  10.224  0.00  0.00    -0.344 N 
HETATM    4  H   UNK N   1      33.830  13.556  10.984  0.00  0.00     0.163 HD
HETATM    5  O   UNK N   1      35.988  12.069   9.296  0.00  0.00    -0.271 OA
BRANCH   3   6
HETATM    6  C   UNK N   1      34.540  14.359   9.167  0.00  0.00     0.199 A 
HETATM    7  C   UNK N   1      33.074  14.812   8.689  0.00  0.00     0.160 A 
HETATM    8  N   UNK N   1      33.378  16.116   9.178  0.00  0.00    -0.219 NA
HETATM    9  S   UNK N   1      32.789  15.012   6.901  0.00  0.00    -0.135 SA
HETATM   10  C   UNK N   1      34.547  15.762   9.663  0.00  0.00     0.227 A 
HETATM   11  C   UNK N   1      33.079  17.279   8.350  0.00  0.00     0.182 C 
HETATM   12  O   UNK N   1      35.491  16.497   9.909  0.00  0.00    -0.277 OA
HETATM   13  C   UNK N   1      32.157  16.694   7.258  0.00  0.00     0.029 C 
HETATM   14  C   UNK N   1      32.084  17.529   5.987  0.00  0.00     0.029 C 
HETATM   15  C   UNK N   1      30.742  16.576   7.804  0.00  0.00     0.029 C 
BRANCH  11  16
HETATM   16  C   UNK N   1      34.318  17.917   7.723  0.00  0.00     0.160 C 
HETATM   17  O   UNK N   1      34.715  17.567   6.620  0.00  0.00    -0.649 OA
BRANCH  16  18
HETATM   18  O   UNK N   1      34.847  19.016   8.289  0.00  0.00    -0.775 OA
HETATM   19  H   UNK N   1      34.389  19.528   8.926  0.00  0.00     0.167 HD
ENDBRANCH  16  18
ENDBRANCH  11  16
ENDBRANCH   3   6
ENDBRANCH   1   2
BRANCH   1  20
HETATM   20  C   UNK N   1      34.084   9.961  10.876  0.00  0.00    -0.026 A 
HETATM   21  C   UNK N   1      34.538   8.686  11.238  0.00  0.00     0.010 A 
HETATM   22  C   UNK N   1      33.784   7.554  10.919  0.00  0.00     0.001 A 
HETATM   23  C   UNK N   1      32.577   7.690  10.227  0.00  0.00     0.000 A 
HETATM   24  C   UNK N   1      32.124   8.959   9.856  0.00  0.00     0.001 A 
HETATM   25  C   UNK N   1      32.876  10.092  10.178  0.00  0.00     0.010 A 
ENDBRANCH   1  20
BRANCH   1  26
HETATM   26  N   UNK N   1      35.091  11.503  12.582  0.00  0.00    -0.325 N 
HETATM   27  C   UNK N   1      36.041  10.974  13.397  0.00  0.00     0.326 C 
HETATM   28  O   UNK N   1      36.854  10.180  12.946  0.00  0.00    -0.247 OA
HETATM   29  N   UNK N   1      36.055  11.279  14.736  0.00  0.00    -0.260 N 
HETATM   30  C   UNK N   1      37.023  10.611  15.597  0.00  0.00     0.157 C 
HETATM   31  C   UNK N   1      35.199  12.190  15.309  0.00  0.00     0.319 C 
HETATM   32  C   UNK N   1      36.374  10.196  16.913  0.00  0.00     0.146 C 
HETATM   33  N   UNK N   1      35.733  11.334  17.546  0.00  0.00    -0.343 N 
HETATM   34  C   UNK N   1      35.143  12.302  16.781  0.00  0.00     0.312 C 
HETATM   35  O   UNK N   1      34.536  13.227  17.303  0.00  0.00    -0.262 OA
HETATM   36  O   UNK N   1      34.464  12.895  14.629  0.00  0.00    -0.262 OA
HETATM   37  H   UNK N   1      34.472  12.166  12.967  0.00  0.00     0.165 HD
BRANCH  33  38
HETATM   38  C   UNK N   1      35.668  11.371  18.990  0.00  0.00     0.122 C 
HETATM   39  C   UNK N   1      36.412  10.187  19.591  0.00  0.00     0.026 C 
ENDBRANCH  33  38
ENDBRANCH   1  26
TORSDOF 7
ENDMDL
MODEL 2
REMARK VINA RESULT:      -8.1      7.073     12.982
REMARK  7 active torsions:
REMARK  status: ('A' for Active; 'I' for Inactive)
REMARK    1  A    between atoms: C_6  and  C_8 
REMARK    2  A    between atoms: C_8  and  O_7 
REMARK    3  A    between atoms: C_10  and  N_11 
REMARK       I    between atoms: N_11  and  C_12 
REMARK    4  A    between atoms: C_12  and  C_14 
REMARK    5  A    between atoms: C_14  and  C_18 
REMARK    6  A    between atoms: C_14  and  N_19 
REMARK       I    between atoms: N_19  and  C_25 
REMARK       I    between atoms: C_25  and  N_27 
REMARK    7  A    between atoms: N_30  and  C_35 
ROOT
HETATM    1  C   UNK N   1      27.338  16.551   4.634  0.00  0.00     0.211 C 
ENDROOT
BRANCH   1   2
HETATM    2  C   UNK N   1      28.661  17.086   5.091  0.00  0.00     0.245 C 
HETATM    3  N   UNK N   1      29.802  16.400   4.832  0.00  0.00    -0.344 N 
HETATM    4  H   UNK N   1      29.776  15.607   4.249  0.00  0.00     0.163 HD
HETATM    5  O   UNK N   1      28.695  18.129   5.727  0.00  0.00    -0.271 OA
BRANCH   3   6
HETATM    6  C   UNK N   1      31.052  16.825   5.406  0.00  0.00     0.199 A 
HETATM    7  C   UNK N   1      31.181  16.272   6.910  0.00  0.00     0.160 A 
HETATM    8  N   UNK N   1      32.280  15.480   6.464  0.00  0.00    -0.219 NA
HETATM    9  S   UNK N   1      31.863  17.395   8.171  0.00  0.00    -0.135 SA
HETATM   10  C   UNK N   1      32.148  15.840   5.208  0.00  0.00     0.227 A 
HETATM   11  C   UNK N   1      33.507  15.451   7.253  0.00  0.00     0.182 C 
HETATM   12  O   UNK N   1      33.007  15.793   4.339  0.00  0.00    -0.277 OA
HETATM   13  C   UNK N   1      33.067  16.082   8.593  0.00  0.00     0.029 C 
HETATM   14  C   UNK N   1      34.212  16.640   9.427  0.00  0.00     0.029 C 
HETATM   15  C   UNK N   1      32.364  15.030   9.438  0.00  0.00     0.029 C 
BRANCH  11  16
HETATM   16  C   UNK N   1      34.651  16.250   6.633  0.00  0.00     0.160 C 
HETATM   17  O   UNK N   1      35.642  15.687   6.190  0.00  0.00    -0.649 OA
BRANCH  16  18
HETATM   18  O   UNK N   1      34.473  17.559   6.377  0.00  0.00    -0.775 OA
HETATM   19  H   UNK N   1      34.706  17.952   5.560  0.00  0.00     0.167 HD
ENDBRANCH  16  18
ENDBRANCH  11  16
ENDBRANCH   3   6
ENDBRANCH   1   2
BRANCH   1  20
HETATM   20  C   UNK N   1      27.216  15.221   3.954  0.00  0.00    -0.026 A 
HETATM   21  C   UNK N   1      27.147  14.055   4.727  0.00  0.00     0.010 A 
HETATM   22  C   UNK N   1      27.074  12.805   4.108  0.00  0.00     0.001 A 
HETATM   23  C   UNK N   1      27.081  12.714   2.713  0.00  0.00     0.000 A 
HETATM   24  C   UNK N   1      27.158  13.874   1.938  0.00  0.00     0.001 A 
HETATM   25  C   UNK N   1      27.227  15.124   2.556  0.00  0.00     0.010 A 
ENDBRANCH   1  20
BRANCH   1  26
HETATM   26  N   UNK N   1      26.279  17.507   4.402  0.00  0.00    -0.325 N 
HETATM   27  C   UNK N   1      25.026  17.409   4.920  0.00  0.00     0.326 C 
HETATM   28  O   UNK N   1      24.751  16.484   5.671  0.00  0.00    -0.247 OA
HETATM   29  N   UNK N   1      24.053  18.308   4.559  0.00  0.00    -0.260 N 
HETATM   30  C   UNK N   1      22.697  18.109   5.053  0.00  0.00     0.157 C 
HETATM   31  C   UNK N   1      24.295  19.394   3.750  0.00  0.00     0.319 C 
HETATM   32  C   UNK N   1      21.678  18.372   3.948  0.00  0.00     0.146 C 
HETATM   33  N   UNK N   1      21.889  19.683   3.364  0.00  0.00    -0.343 N 
HETATM   34  C   UNK N   1      23.155  20.187   3.245  0.00  0.00     0.312 C 
HETATM   35  O   UNK N   1      23.352  21.257   2.687  0.00  0.00    -0.262 OA
HETATM   36  O   UNK N   1      25.432  19.707   3.420  0.00  0.00    -0.262 OA
HETATM   37  H   UNK N   1      26.479  18.283   3.828  0.00  0.00     0.165 HD
BRANCH  33  38
HETATM   38  C   UNK N   1      20.744  20.396   2.844  0.00  0.00     0.122 C 
HETATM   39  C   UNK N   1      19.554  19.459   2.688  0.00  0.00     0.026 C 
ENDBRANCH  33  38
ENDBRANCH   1  26
TORSDOF 7
ENDMDL
MODEL 3
REMARK VINA RESULT:      -8.0      2.442      5.015
REMARK  7 active torsions:
REMARK  status: ('A' for Active; 'I' for Inactive)
REMARK    1  A    between atoms: C_6  and  C_8 
REMARK    2  A    between atoms: C_8  and  O_7 
REMARK    3  A    between atoms: C_10  and  N_11 
REMARK       I    between atoms: N_11  and  C_12 
REMARK    4  A    between atoms: C_12  and  C_14 
REMARK    5  A    between atoms: C_14  and  C_18 
REMARK    6  A    between atoms: C_14  and  N_19 
REMARK       I    between atoms: N_19  and  C_25 
REMARK       I    between atoms: C_25  and  N_27 
REMARK    7  A    between atoms: N_30  and  C_35 
ROOT
HETATM    1  C   UNK N   1      35.547  12.909  13.262  0.00  0.00     0.211 C 
ENDROOT
BRANCH   1   2
HETATM    2  C   UNK N   1      35.695  13.762  12.039  0.00  0.00     0.245 C 
HETATM    3  N   UNK N   1      34.602  14.291  11.436  0.00  0.00    -0.344 N 
HETATM    4  H   UNK N   1      33.719  14.207  11.864  0.00  0.00     0.163 HD
HETATM    5  O   UNK N   1      36.810  13.947  11.572  0.00  0.00    -0.271 OA
BRANCH   3   6
HETATM    6  C   UNK N   1      34.724  14.973  10.175  0.00  0.00     0.199 A 
HETATM    7  C   UNK N   1      33.265  15.272   9.570  0.00  0.00     0.160 A 
HETATM    8  N   UNK N   1      33.546  16.661   9.729  0.00  0.00    -0.219 NA
HETATM    9  S   UNK N   1      33.020  15.021   7.782  0.00  0.00    -0.135 SA
HETATM   10  C   UNK N   1      34.706  16.454  10.309  0.00  0.00     0.227 A 
HETATM   11  C   UNK N   1      33.256  17.580   8.633  0.00  0.00     0.182 C 
HETATM   12  O   UNK N   1      35.637  17.242  10.386  0.00  0.00    -0.277 OA
HETATM   13  C   UNK N   1      32.365  16.729   7.700  0.00  0.00     0.029 C 
HETATM   14  C   UNK N   1      32.315  17.224   6.261  0.00  0.00     0.029 C 
HETATM   15  C   UNK N   1      30.939  16.729   8.229  0.00  0.00     0.029 C 
BRANCH  11  16
HETATM   16  C   UNK N   1      34.502  18.061   7.893  0.00  0.00     0.160 C 
HETATM   17  O   UNK N   1      34.797  17.607   6.797  0.00  0.00    -0.649 OA
BRANCH  16  18
HETATM   18  O   UNK N   1      35.159  19.142   8.352  0.00  0.00    -0.775 OA
HETATM   19  H   UNK N   1      35.312  19.903   7.827  0.00  0.00     0.167 HD
ENDBRANCH  16  18
ENDBRANCH  11  16
ENDBRANCH   3   6
ENDBRANCH   1   2
BRANCH   1  20
HETATM   20  C   UNK N   1      35.825  13.443  14.634  0.00  0.00    -0.026 A 
HETATM   21  C   UNK N   1      35.055  12.998  15.716  0.00  0.00     0.010 A 
HETATM   22  C   UNK N   1      35.275  13.515  16.995  0.00  0.00     0.001 A 
HETATM   23  C   UNK N   1      36.258  14.488  17.196  0.00  0.00     0.000 A 
HETATM   24  C   UNK N   1      37.024  14.941  16.119  0.00  0.00     0.001 A 
HETATM   25  C   UNK N   1      36.807  14.422  14.840  0.00  0.00     0.010 A 
ENDBRANCH   1  20
BRANCH   1  26
HETATM   26  N   UNK N   1      35.621  11.477  13.086  0.00  0.00    -0.325 N 
HETATM   27  C   UNK N   1      36.773  10.756  13.120  0.00  0.00     0.326 C 
HETATM   28  O   UNK N   1      37.834  11.318  13.354  0.00  0.00    -0.247 OA
HETATM   29  N   UNK N   1      36.760   9.412  12.836  0.00  0.00    -0.260 N 
HETATM   30  C   UNK N   1      38.028   8.696  12.780  0.00  0.00     0.157 C 
HETATM   31  C   UNK N   1      35.605   8.704  12.602  0.00  0.00     0.319 C 
HETATM   32  C   UNK N   1      38.050   7.736  11.595  0.00  0.00     0.146 C 
HETATM   33  N   UNK N   1      36.896   6.857  11.631  0.00  0.00    -0.343 N 
HETATM   34  C   UNK N   1      35.697   7.317  12.100  0.00  0.00     0.312 C 
HETATM   35  O   UNK N   1      34.700   6.611  12.067  0.00  0.00    -0.262 OA
HETATM   36  O   UNK N   1      34.500   9.203  12.776  0.00  0.00    -0.262 OA
HETATM   37  H   UNK N   1      34.779  10.989  12.930  0.00  0.00     0.165 HD
BRANCH  33  38
HETATM   38  C   UNK N   1      37.029   5.524  11.086  0.00  0.00     0.122 C 
HETATM   39  C   UNK N   1      38.321   4.876  11.564  0.00  0.00     0.026 C 
ENDBRANCH  33  38
ENDBRANCH   1  26
TORSDOF 7
ENDMDL
MODEL 4
REMARK VINA RESULT:      -7.9      6.770     11.331
REMARK  7 active torsions:
REMARK  status: ('A' for Active; 'I' for Inactive)
REMARK    1  A    between atoms: C_6  and  C_8 
REMARK    2  A    between atoms: C_8  and  O_7 
REMARK    3  A    between atoms: C_10  and  N_11 
REMARK       I    between atoms: N_11  and  C_12 
REMARK    4  A    between atoms: C_12  and  C_14 
REMARK    5  A    between atoms: C_14  and  C_18 
REMARK    6  A    between atoms: C_14  and  N_19 
REMARK       I    between atoms: N_19  and  C_25 
REMARK       I    between atoms: C_25  and  N_27 
REMARK    7  A    between atoms: N_30  and  C_35 
ROOT
HETATM    1  C   UNK N   1      27.044  17.174   5.074  0.00  0.00     0.211 C 
ENDROOT
BRANCH   1   2
HETATM    2  C   UNK N   1      28.421  17.616   5.467  0.00  0.00     0.245 C 
HETATM    3  N   UNK N   1      29.506  16.906   5.073  0.00  0.00    -0.344 N 
HETATM    4  H   UNK N   1      29.400  16.162   4.437  0.00  0.00     0.163 HD
HETATM    5  O   UNK N   1      28.551  18.606   6.174  0.00  0.00    -0.271 OA
BRANCH   3   6
HETATM    6  C   UNK N   1      30.814  17.232   5.580  0.00  0.00     0.199 A 
HETATM    7  C   UNK N   1      31.034  16.540   7.014  0.00  0.00     0.160 A 
HETATM    8  N   UNK N   1      32.061  15.754   6.413  0.00  0.00    -0.219 NA
HETATM    9  S   UNK N   1      31.858  17.518   8.310  0.00  0.00    -0.135 SA
HETATM   10  C   UNK N   1      31.849  16.232   5.208  0.00  0.00     0.227 A 
HETATM   11  C   UNK N   1      33.343  15.610   7.095  0.00  0.00     0.182 C 
HETATM   12  O   UNK N   1      32.635  16.235   4.273  0.00  0.00    -0.277 OA
HETATM   13  C   UNK N   1      33.035  16.131   8.516  0.00  0.00     0.029 C 
HETATM   14  C   UNK N   1      34.263  16.570   9.301  0.00  0.00     0.029 C 
HETATM   15  C   UNK N   1      32.355  15.031   9.318  0.00  0.00     0.029 C 
BRANCH  11  16
HETATM   16  C   UNK N   1      34.469  16.422   6.458  0.00  0.00     0.160 C 
HETATM   17  O   UNK N   1      35.447  15.869   5.975  0.00  0.00    -0.649 OA
BRANCH  16  18
HETATM   18  O   UNK N   1      34.283  17.735   6.233  0.00  0.00    -0.775 OA
HETATM   19  H   UNK N   1      34.986  18.354   6.232  0.00  0.00     0.167 HD
ENDBRANCH  16  18
ENDBRANCH  11  16
ENDBRANCH   3   6
ENDBRANCH   1   2
BRANCH   1  20
HETATM   20  C   UNK N   1      26.051  18.123   4.476  0.00  0.00    -0.026 A 
HETATM   21  C   UNK N   1      26.507  19.236   3.757  0.00  0.00     0.010 A 
HETATM   22  C   UNK N   1      25.594  20.152   3.228  0.00  0.00     0.001 A 
HETATM   23  C   UNK N   1      24.223  19.966   3.424  0.00  0.00     0.000 A 
HETATM   24  C   UNK N   1      23.764  18.862   4.148  0.00  0.00     0.001 A 
HETATM   25  C   UNK N   1      24.675  17.944   4.675  0.00  0.00     0.010 A 
ENDBRANCH   1  20
BRANCH   1  26
HETATM   26  N   UNK N   1      26.518  15.991   5.716  0.00  0.00    -0.325 N 
HETATM   27  C   UNK N   1      26.633  14.730   5.219  0.00  0.00     0.326 C 
HETATM   28  O   UNK N   1      27.251  14.542   4.181  0.00  0.00    -0.247 OA
HETATM   29  N   UNK N   1      26.009  13.679   5.844  0.00  0.00    -0.260 N 
HETATM   30  C   UNK N   1      26.067  12.361   5.223  0.00  0.00     0.157 C 
HETATM   31  C   UNK N   1      25.328  13.806   7.032  0.00  0.00     0.319 C 
HETATM   32  C   UNK N   1      24.711  11.668   5.306  0.00  0.00     0.146 C 
HETATM   33  N   UNK N   1      24.238  11.636   6.677  0.00  0.00    -0.343 N 
HETATM   34  C   UNK N   1      24.515  12.674   7.523  0.00  0.00     0.312 C 
HETATM   35  O   UNK N   1      24.060  12.694   8.658  0.00  0.00    -0.262 OA
HETATM   36  O   UNK N   1      25.362  14.843   7.682  0.00  0.00    -0.262 OA
HETATM   37  H   UNK N   1      26.044  16.105   6.572  0.00  0.00     0.165 HD
BRANCH  33  38
HETATM   38  C   UNK N   1      23.408  10.527   7.093  0.00  0.00     0.122 C 
HETATM   39  C   UNK N   1      24.166   9.213   6.966  0.00  0.00     0.026 C 
ENDBRANCH  33  38
ENDBRANCH   1  26
TORSDOF 7
ENDMDL
MODEL 5
REMARK VINA RESULT:      -7.8      4.996     11.183
REMARK  7 active torsions:
REMARK  status: ('A' for Active; 'I' for Inactive)
REMARK    1  A    between atoms: C_6  and  C_8 
REMARK    2  A    between atoms: C_8  and  O_7 
REMARK    3  A    between atoms: C_10  and  N_11 
REMARK       I    between atoms: N_11  and  C_12 
REMARK    4  A    between atoms: C_12  and  C_14 
REMARK    5  A    between atoms: C_14  and  C_18 
REMARK    6  A    between atoms: C_14  and  N_19 
REMARK       I    between atoms: N_19  and  C_25 
REMARK       I    between atoms: C_25  and  N_27 
REMARK    7  A    between atoms: N_30  and  C_35 
ROOT
HETATM    1  C   UNK N   1      29.280  17.457   6.227  0.00  0.00     0.211 C 
ENDROOT
BRANCH   1   2
HETATM    2  C   UNK N   1      30.093  17.305   7.477  0.00  0.00     0.245 C 
HETATM    3  N   UNK N   1      31.446  17.345   7.422  0.00  0.00    -0.344 N 
HETATM    4  H   UNK N   1      31.896  17.584   6.580  0.00  0.00     0.163 HD
HETATM    5  O   UNK N   1      29.521  17.111   8.540  0.00  0.00    -0.271 OA
BRANCH   3   6
HETATM    6  C   UNK N   1      32.232  17.039   8.590  0.00  0.00     0.199 A 
HETATM    7  C   UNK N   1      32.682  15.497   8.558  0.00  0.00     0.160 A 
HETATM    8  N   UNK N   1      34.029  15.951   8.442  0.00  0.00    -0.219 NA
HETATM    9  S   UNK N   1      32.613  14.561  10.120  0.00  0.00    -0.135 SA
HETATM   10  C   UNK N   1      33.692  17.219   8.373  0.00  0.00     0.227 A 
HETATM   11  C   UNK N   1      35.061  15.353   9.282  0.00  0.00     0.182 C 
HETATM   12  O   UNK N   1      34.405  18.180   8.621  0.00  0.00    -0.277 OA
HETATM   13  C   UNK N   1      34.361  14.095   9.841  0.00  0.00     0.029 C 
HETATM   14  C   UNK N   1      34.988  13.544  11.114  0.00  0.00     0.029 C 
HETATM   15  C   UNK N   1      34.409  12.988   8.797  0.00  0.00     0.029 C 
BRANCH  11  16
HETATM   16  C   UNK N   1      35.523  16.261  10.420  0.00  0.00     0.160 C 
HETATM   17  O   UNK N   1      36.713  16.450  10.630  0.00  0.00    -0.649 OA
BRANCH  16  18
HETATM   18  O   UNK N   1      34.617  17.026  11.057  0.00  0.00    -0.775 OA
HETATM   19  H   UNK N   1      34.561  17.074  11.990  0.00  0.00     0.167 HD
ENDBRANCH  16  18
ENDBRANCH  11  16
ENDBRANCH   3   6
ENDBRANCH   1   2
BRANCH   1  20
HETATM   20  C   UNK N   1      28.477  18.691   5.953  0.00  0.00    -0.026 A 
HETATM   21  C   UNK N   1      27.951  19.424   7.025  0.00  0.00     0.010 A 
HETATM   22  C   UNK N   1      27.166  20.555   6.785  0.00  0.00     0.001 A 
HETATM   23  C   UNK N   1      26.894  20.951   5.473  0.00  0.00     0.000 A 
HETATM   24  C   UNK N   1      27.409  20.219   4.400  0.00  0.00     0.001 A 
HETATM   25  C   UNK N   1      28.197  19.090   4.639  0.00  0.00     0.010 A 
ENDBRANCH   1  20
BRANCH   1  26
HETATM   26  N   UNK N   1      28.882  16.248   5.543  0.00  0.00    -0.325 N 
HETATM   27  C   UNK N   1      29.714  15.477   4.793  0.00  0.00     0.326 C 
HETATM   28  O   UNK N   1      30.897  15.774   4.701  0.00  0.00    -0.247 OA
HETATM   29  N   UNK N   1      29.223  14.404   4.092  0.00  0.00    -0.260 N 
HETATM   30  C   UNK N   1      30.125  13.667   3.217  0.00  0.00     0.157 C 
HETATM   31  C   UNK N   1      27.915  13.987   4.174  0.00  0.00     0.319 C 
HETATM   32  C   UNK N   1      29.437  13.327   1.898  0.00  0.00     0.146 C 
HETATM   33  N   UNK N   1      28.183  12.639   2.141  0.00  0.00    -0.343 N 
HETATM   34  C   UNK N   1      27.424  12.959   3.232  0.00  0.00     0.312 C 
HETATM   35  O   UNK N   1      26.331  12.440   3.407  0.00  0.00    -0.262 OA
HETATM   36  O   UNK N   1      27.140  14.462   4.995  0.00  0.00    -0.262 OA
HETATM   37  H   UNK N   1      27.942  15.963   5.625  0.00  0.00     0.165 HD
BRANCH  33  38
HETATM   38  C   UNK N   1      27.728  11.675   1.164  0.00  0.00     0.122 C 
HETATM   39  C   UNK N   1      28.898  11.149   0.344  0.00  0.00     0.026 C 
ENDBRANCH  33  38
ENDBRANCH   1  26
TORSDOF 7
ENDMDL
MODEL 6
REMARK VINA RESULT:      -7.8      6.055     11.875
REMARK  7 active torsions:
REMARK  status: ('A' for Active; 'I' for Inactive)
REMARK    1  A    between atoms: C_6  and  C_8 
REMARK    2  A    between atoms: C_8  and  O_7 
REMARK    3  A    between atoms: C_10  and  N_11 
REMARK       I    between atoms: N_11  and  C_12 
REMARK    4  A    between atoms: C_12  and  C_14 
REMARK    5  A    between atoms: C_14  and  C_18 
REMARK    6  A    between atoms: C_14  and  N_19 
REMARK       I    between atoms: N_19  and  C_25 
REMARK       I    between atoms: C_25  and  N_27 
REMARK    7  A    between atoms: N_30  and  C_35 
ROOT
HETATM    1  C   UNK N   1      28.274  17.362   5.896  0.00  0.00     0.211 C 
ENDROOT
BRANCH   1   2
HETATM    2  C   UNK N   1      29.295  17.081   6.957  0.00  0.00     0.245 C 
HETATM    3  N   UNK N   1      30.560  16.736   6.614  0.00  0.00    -0.344 N 
HETATM    4  H   UNK N   1      30.841  16.776   5.671  0.00  0.00     0.163 HD
HETATM    5  O   UNK N   1      28.964  17.134   8.133  0.00  0.00    -0.271 OA
BRANCH   3   6
HETATM    6  C   UNK N   1      31.497  16.309   7.621  0.00  0.00     0.199 A 
HETATM    7  C   UNK N   1      32.769  15.613   6.927  0.00  0.00     0.160 A 
HETATM    8  N   UNK N   1      33.559  16.691   7.425  0.00  0.00    -0.219 NA
HETATM    9  S   UNK N   1      33.442  14.110   7.705  0.00  0.00    -0.135 SA
HETATM   10  C   UNK N   1      32.530  17.334   7.927  0.00  0.00     0.227 A 
HETATM   11  C   UNK N   1      34.829  16.402   8.082  0.00  0.00     0.182 C 
HETATM   12  O   UNK N   1      32.554  18.177   8.812  0.00  0.00    -0.277 OA
HETATM   13  C   UNK N   1      35.081  14.925   7.707  0.00  0.00     0.029 C 
HETATM   14  C   UNK N   1      36.048  14.201   8.633  0.00  0.00     0.029 C 
HETATM   15  C   UNK N   1      35.661  14.855   6.302  0.00  0.00     0.029 C 
BRANCH  11  16
HETATM   16  C   UNK N   1      34.784  16.571   9.599  0.00  0.00     0.160 C 
HETATM   17  O   UNK N   1      35.464  17.421  10.158  0.00  0.00    -0.649 OA
BRANCH  16  18
HETATM   18  O   UNK N   1      33.833  15.929  10.302  0.00  0.00    -0.775 OA
HETATM   19  H   UNK N   1      32.988  16.299  10.467  0.00  0.00     0.167 HD
ENDBRANCH  16  18
ENDBRANCH  11  16
ENDBRANCH   3   6
ENDBRANCH   1   2
BRANCH   1  20
HETATM   20  C   UNK N   1      27.746  18.743   5.654  0.00  0.00    -0.026 A 
HETATM   21  C   UNK N   1      27.672  19.649   6.720  0.00  0.00     0.010 A 
HETATM   22  C   UNK N   1      27.145  20.927   6.520  0.00  0.00     0.001 A 
HETATM   23  C   UNK N   1      26.679  21.301   5.257  0.00  0.00     0.000 A 
HETATM   24  C   UNK N   1      26.743  20.398   4.192  0.00  0.00     0.001 A 
HETATM   25  C   UNK N   1      27.273  19.121   4.390  0.00  0.00     0.010 A 
ENDBRANCH   1  20
BRANCH   1  26
HETATM   26  N   UNK N   1      27.451  16.257   5.457  0.00  0.00    -0.325 N 
HETATM   27  C   UNK N   1      27.860  15.287   4.597  0.00  0.00     0.326 C 
HETATM   28  O   UNK N   1      29.009  15.294   4.176  0.00  0.00    -0.247 OA
HETATM   29  N   UNK N   1      26.976  14.336   4.152  0.00  0.00    -0.260 N 
HETATM   30  C   UNK N   1      27.423  13.377   3.150  0.00  0.00     0.157 C 
HETATM   31  C   UNK N   1      25.681  14.241   4.607  0.00  0.00     0.319 C 
HETATM   32  C   UNK N   1      26.346  13.164   2.091  0.00  0.00     0.146 C 
HETATM   33  N   UNK N   1      25.087  12.799   2.713  0.00  0.00    -0.343 N 
HETATM   34  C   UNK N   1      24.742  13.326   3.926  0.00  0.00     0.312 C 
HETATM   35  O   UNK N   1      23.652  13.085   4.425  0.00  0.00    -0.262 OA
HETATM   36  O   UNK N   1      25.282  14.914   5.549  0.00  0.00    -0.262 OA
HETATM   37  H   UNK N   1      26.531  16.204   5.805  0.00  0.00     0.165 HD
BRANCH  33  38
HETATM   38  C   UNK N   1      24.185  11.936   1.983  0.00  0.00     0.122 C 
HETATM   39  C   UNK N   1      23.921  12.491   0.590  0.00  0.00     0.026 C 
ENDBRANCH  33  38
ENDBRANCH   1  26
TORSDOF 7
ENDMDL
MODEL 7
REMARK VINA RESULT:      -7.8      3.227      6.079
REMARK  7 active torsions:
REMARK  status: ('A' for Active; 'I' for Inactive)
REMARK    1  A    between atoms: C_6  and  C_8 
REMARK    2  A    between atoms: C_8  and  O_7 
REMARK    3  A    between atoms: C_10  and  N_11 
REMARK       I    between atoms: N_11  and  C_12 
REMARK    4  A    between atoms: C_12  and  C_14 
REMARK    5  A    between atoms: C_14  and  C_18 
REMARK    6  A    between atoms: C_14  and  N_19 
REMARK       I    between atoms: N_19  and  C_25 
REMARK       I    between atoms: C_25  and  N_27 
REMARK    7  A    between atoms: N_30  and  C_35 
ROOT
HETATM    1  C   UNK N   1      36.169  10.954  15.740  0.00  0.00     0.211 C 
ENDROOT
BRANCH   1   2
HETATM    2  C   UNK N   1      36.496  11.992  14.709  0.00  0.00     0.245 C 
HETATM    3  N   UNK N   1      35.696  12.157  13.628  0.00  0.00    -0.344 N 
HETATM    4  H   UNK N   1      34.840  11.674  13.572  0.00  0.00     0.163 HD
HETATM    5  O   UNK N   1      37.510  12.663  14.839  0.00  0.00    -0.271 OA
BRANCH   3   6
HETATM    6  C   UNK N   1      36.090  13.037  12.558  0.00  0.00     0.199 A 
HETATM    7  C   UNK N   1      34.986  13.010  11.391  0.00  0.00     0.160 A 
HETATM    8  N   UNK N   1      34.719  14.379  11.687  0.00  0.00    -0.219 NA
HETATM    9  S   UNK N   1      35.575  12.986   9.667  0.00  0.00    -0.135 SA
HETATM   10  C   UNK N   1      35.547  14.414  12.706  0.00  0.00     0.227 A 
HETATM   11  C   UNK N   1      34.618  15.341  10.595  0.00  0.00     0.182 C 
HETATM   12  O   UNK N   1      36.065  15.407  13.196  0.00  0.00    -0.277 OA
HETATM   13  C   UNK N   1      34.501  14.434   9.350  0.00  0.00     0.029 C 
HETATM   14  C   UNK N   1      34.878  15.116   8.042  0.00  0.00     0.029 C 
HETATM   15  C   UNK N   1      33.064  13.954   9.212  0.00  0.00     0.029 C 
BRANCH  11  16
HETATM   16  C   UNK N   1      35.832  16.261  10.477  0.00  0.00     0.160 C 
HETATM   17  O   UNK N   1      35.697  17.474  10.414  0.00  0.00    -0.649 OA
BRANCH  16  18
HETATM   18  O   UNK N   1      37.062  15.749  10.662  0.00  0.00    -0.775 OA
HETATM   19  H   UNK N   1      37.800  16.275  10.896  0.00  0.00     0.167 HD
ENDBRANCH  16  18
ENDBRANCH  11  16
ENDBRANCH   3   6
ENDBRANCH   1   2
BRANCH   1  20
HETATM   20  C   UNK N   1      35.849  11.321  17.156  0.00  0.00    -0.026 A 
HETATM   21  C   UNK N   1      35.347  12.597  17.441  0.00  0.00     0.010 A 
HETATM   22  C   UNK N   1      35.082  12.969  18.762  0.00  0.00     0.001 A 
HETATM   23  C   UNK N   1      35.328  12.071  19.804  0.00  0.00     0.000 A 
HETATM   24  C   UNK N   1      35.837  10.800  19.526  0.00  0.00     0.001 A 
HETATM   25  C   UNK N   1      36.099  10.426  18.206  0.00  0.00     0.010 A 
ENDBRANCH   1  20
BRANCH   1  26
HETATM   26  N   UNK N   1      36.640   9.608  15.500  0.00  0.00    -0.325 N 
HETATM   27  C   UNK N   1      36.062   8.734  14.634  0.00  0.00     0.326 C 
HETATM   28  O   UNK N   1      35.101   9.087  13.966  0.00  0.00    -0.247 OA
HETATM   29  N   UNK N   1      36.514   7.440  14.550  0.00  0.00    -0.260 N 
HETATM   30  C   UNK N   1      35.803   6.504  13.689  0.00  0.00     0.157 C 
HETATM   31  C   UNK N   1      37.610   6.979  15.241  0.00  0.00     0.319 C 
HETATM   32  C   UNK N   1      35.652   5.150  14.375  0.00  0.00     0.146 C 
HETATM   33  N   UNK N   1      36.944   4.656  14.815  0.00  0.00    -0.343 N 
HETATM   34  C   UNK N   1      37.899   5.530  15.255  0.00  0.00     0.312 C 
HETATM   35  O   UNK N   1      38.963   5.122  15.697  0.00  0.00    -0.262 OA
HETATM   36  O   UNK N   1      38.341   7.739  15.864  0.00  0.00    -0.262 OA
HETATM   37  H   UNK N   1      37.433   9.304  15.998  0.00  0.00     0.165 HD
BRANCH  33  38
HETATM   38  C   UNK N   1      37.158   3.227  14.851  0.00  0.00     0.122 C 
HETATM   39  C   UNK N   1      36.903   2.612  13.482  0.00  0.00     0.026 C 
ENDBRANCH  33  38
ENDBRANCH   1  26
TORSDOF 7
ENDMDL
MODEL 8
REMARK VINA RESULT:      -7.8      8.454     11.806
REMARK  7 active torsions:
REMARK  status: ('A' for Active; 'I' for Inactive)
REMARK    1  A    between atoms: C_6  and  C_8 
REMARK    2  A    between atoms: C_8  and  O_7 
REMARK    3  A    between atoms: C_10  and  N_11 
REMARK       I    between atoms: N_11  and  C_12 
REMARK    4  A    between atoms: C_12  and  C_14 
REMARK    5  A    between atoms: C_14  and  C_18 
REMARK    6  A    between atoms: C_14  and  N_19 
REMARK       I    between atoms: N_19  and  C_25 
REMARK       I    between atoms: C_25  and  N_27 
REMARK    7  A    between atoms: N_30  and  C_35 
ROOT
HETATM    1  C   UNK N   1      24.774  15.004   4.210  0.00  0.00     0.211 C 
ENDROOT
BRANCH   1   2
HETATM    2  C   UNK N   1      25.969  15.905   4.142  0.00  0.00     0.245 C 
HETATM    3  N   UNK N   1      27.216  15.401   4.312  0.00  0.00    -0.344 N 
HETATM    4  H   UNK N   1      27.347  14.427   4.370  0.00  0.00     0.163 HD
HETATM    5  O   UNK N   1      25.804  17.104   3.965  0.00  0.00    -0.271 OA
BRANCH   3   6
HETATM    6  C   UNK N   1      28.351  16.282   4.408  0.00  0.00     0.199 A 
HETATM    7  C   UNK N   1      29.318  15.801   5.598  0.00  0.00     0.160 A 
HETATM    8  N   UNK N   1      30.306  15.524   4.608  0.00  0.00    -0.219 NA
HETATM    9  S   UNK N   1      30.043  17.082   6.672  0.00  0.00    -0.135 SA
HETATM   10  C   UNK N   1      29.514  15.823   3.603  0.00  0.00     0.227 A 
HETATM   11  C   UNK N   1      31.677  15.976   4.819  0.00  0.00     0.182 C 
HETATM   12  O   UNK N   1      29.853  16.140   2.473  0.00  0.00    -0.277 OA
HETATM   13  C   UNK N   1      31.686  16.355   6.317  0.00  0.00     0.029 C 
HETATM   14  C   UNK N   1      32.802  17.311   6.714  0.00  0.00     0.029 C 
HETATM   15  C   UNK N   1      31.851  15.094   7.153  0.00  0.00     0.029 C 
BRANCH  11  16
HETATM   16  C   UNK N   1      32.063  17.178   3.959  0.00  0.00     0.160 C 
HETATM   17  O   UNK N   1      32.977  17.104   3.149  0.00  0.00    -0.649 OA
BRANCH  16  18
HETATM   18  O   UNK N   1      31.257  18.255   3.938  0.00  0.00    -0.775 OA
HETATM   19  H   UNK N   1      30.734  18.511   4.672  0.00  0.00     0.167 HD
ENDBRANCH  16  18
ENDBRANCH  11  16
ENDBRANCH   3   6
ENDBRANCH   1   2
BRANCH   1  20
HETATM   20  C   UNK N   1      23.911  14.746   3.013  0.00  0.00    -0.026 A 
HETATM   21  C   UNK N   1      22.527  14.941   3.105  0.00  0.00     0.010 A 
HETATM   22  C   UNK N   1      21.704  14.666   2.010  0.00  0.00     0.001 A 
HETATM   23  C   UNK N   1      22.260  14.183   0.822  0.00  0.00     0.000 A 
HETATM   24  C   UNK N   1      23.639  13.979   0.728  0.00  0.00     0.001 A 
HETATM   25  C   UNK N   1      24.463  14.257   1.821  0.00  0.00     0.010 A 
ENDBRANCH   1  20
BRANCH   1  26
HETATM   26  N   UNK N   1      24.177  14.790   5.509  0.00  0.00    -0.325 N 
HETATM   27  C   UNK N   1      24.760  14.090   6.518  0.00  0.00     0.326 C 
HETATM   28  O   UNK N   1      25.883  13.629   6.367  0.00  0.00    -0.247 OA
HETATM   29  N   UNK N   1      24.073  13.846   7.682  0.00  0.00    -0.260 N 
HETATM   30  C   UNK N   1      24.691  13.003   8.697  0.00  0.00     0.157 C 
HETATM   31  C   UNK N   1      22.824  14.361   7.940  0.00  0.00     0.319 C 
HETATM   32  C   UNK N   1      23.669  12.038   9.290  0.00  0.00     0.146 C 
HETATM   33  N   UNK N   1      22.508  12.761   9.774  0.00  0.00    -0.343 N 
HETATM   34  C   UNK N   1      22.074  13.880   9.119  0.00  0.00     0.312 C 
HETATM   35  O   UNK N   1      21.055  14.455   9.472  0.00  0.00    -0.262 OA
HETATM   36  O   UNK N   1      22.308  15.191   7.202  0.00  0.00    -0.262 OA
HETATM   37  H   UNK N   1      23.286  15.177   5.674  0.00  0.00     0.165 HD
BRANCH  33  38
HETATM   38  C   UNK N   1      21.785  12.222  10.904  0.00  0.00     0.122 C 
HETATM   39  C   UNK N   1      22.736  11.918  12.053  0.00  0.00     0.026 C 
ENDBRANCH  33  38
ENDBRANCH   1  26
TORSDOF 7
ENDMDL
MODEL 9
REMARK VINA RESULT:      -7.7      3.524      6.034
REMARK  7 active torsions:
REMARK  status: ('A' for Active; 'I' for Inactive)
REMARK    1  A    between atoms: C_6  and  C_8 
REMARK    2  A    between atoms: C_8  and  O_7 
REMARK    3  A    between atoms: C_10  and  N_11 
REMARK       I    between atoms: N_11  and  C_12 
REMARK    4  A    between atoms: C_12  and  C_14 
REMARK    5  A    between atoms: C_14  and  C_18 
REMARK    6  A    between atoms: C_14  and  N_19 
REMARK       I    between atoms: N_19  and  C_25 
REMARK       I    between atoms: C_25  and  N_27 
REMARK    7  A    between atoms: N_30  and  C_35 
ROOT
HETATM    1  C   UNK N   1      34.844  15.549   7.162  0.00  0.00     0.211 C 
ENDROOT
BRANCH   1   2
HETATM    2  C   UNK N   1      33.819  16.608   6.889  0.00  0.00     0.245 C 
HETATM    3  N   UNK N   1      32.586  16.526   7.446  0.00  0.00    -0.344 N 
HETATM    4  H   UNK N   1      32.398  15.832   8.119  0.00  0.00     0.163 HD
HETATM    5  O   UNK N   1      34.097  17.526   6.131  0.00  0.00    -0.271 OA
BRANCH   3   6
HETATM    6  C   UNK N   1      31.550  17.448   7.061  0.00  0.00     0.199 A 
HETATM    7  C   UNK N   1      30.428  16.684   6.201  0.00  0.00     0.160 A 
HETATM    8  N   UNK N   1      29.514  16.949   7.263  0.00  0.00    -0.219 NA
HETATM    9  S   UNK N   1      29.749  17.539   4.743  0.00  0.00    -0.135 SA
HETATM   10  C   UNK N   1      30.425  17.499   8.032  0.00  0.00     0.227 A 
HETATM   11  C   UNK N   1      28.187  17.468   6.951  0.00  0.00     0.182 C 
HETATM   12  O   UNK N   1      30.231  18.271   8.960  0.00  0.00    -0.277 OA
HETATM   13  C   UNK N   1      28.078  17.237   5.428  0.00  0.00     0.029 C 
HETATM   14  C   UNK N   1      27.040  18.111   4.735  0.00  0.00     0.029 C 
HETATM   15  C   UNK N   1      27.698  15.788   5.164  0.00  0.00     0.029 C 
BRANCH  11  16
HETATM   16  C   UNK N   1      28.017  18.949   7.284  0.00  0.00     0.160 C 
HETATM   17  O   UNK N   1      28.245  19.811   6.448  0.00  0.00    -0.649 OA
BRANCH  16  18
HETATM   18  O   UNK N   1      27.407  19.296   8.432  0.00  0.00    -0.775 OA
HETATM   19  H   UNK N   1      26.722  19.934   8.470  0.00  0.00     0.167 HD
ENDBRANCH  16  18
ENDBRANCH  11  16
ENDBRANCH   3   6
ENDBRANCH   1   2
BRANCH   1  20
HETATM   20  C   UNK N   1      35.506  14.786   6.055  0.00  0.00    -0.026 A 
HETATM   21  C   UNK N   1      36.882  14.533   6.118  0.00  0.00     0.010 A 
HETATM   22  C   UNK N   1      37.521  13.858   5.075  0.00  0.00     0.001 A 
HETATM   23  C   UNK N   1      36.789  13.444   3.959  0.00  0.00     0.000 A 
HETATM   24  C   UNK N   1      35.418  13.701   3.887  0.00  0.00     0.001 A 
HETATM   25  C   UNK N   1      34.777  14.373   4.931  0.00  0.00     0.010 A 
ENDBRANCH   1  20
BRANCH   1  26
HETATM   26  N   UNK N   1      34.828  14.930   8.468  0.00  0.00    -0.325 N 
HETATM   27  C   UNK N   1      35.033  15.595   9.637  0.00  0.00     0.326 C 
HETATM   28  O   UNK N   1      35.205  16.805   9.624  0.00  0.00    -0.247 OA
HETATM   29  N   UNK N   1      35.106  14.907  10.823  0.00  0.00    -0.260 N 
HETATM   30  C   UNK N   1      35.430  15.640  12.039  0.00  0.00     0.157 C 
HETATM   31  C   UNK N   1      34.886  13.553  10.922  0.00  0.00     0.319 C 
HETATM   32  C   UNK N   1      36.420  14.854  12.894  0.00  0.00     0.146 C 
HETATM   33  N   UNK N   1      35.921  13.514  13.147  0.00  0.00    -0.343 N 
HETATM   34  C   UNK N   1      35.190  12.863  12.193  0.00  0.00     0.312 C 
HETATM   35  O   UNK N   1      34.827  11.707  12.364  0.00  0.00    -0.262 OA
HETATM   36  O   UNK N   1      34.467  12.900   9.974  0.00  0.00    -0.262 OA
HETATM   37  H   UNK N   1      34.659  13.961   8.515  0.00  0.00     0.165 HD
BRANCH  33  38
HETATM   38  C   UNK N   1      36.285  12.869  14.388  0.00  0.00     0.122 C 
HETATM   39  C   UNK N   1      36.773  13.893  15.403  0.00  0.00     0.026 C 
ENDBRANCH  33  38
ENDBRANCH   1  26
TORSDOF 7
ENDMDL
