MODEL 1
REMARK VINA RESULT:      -7.4      0.000      0.000
REMARK  5 active torsions:
REMARK  status: ('A' for Active; 'I' for Inactive)
REMARK    1  A    between atoms: C_3  and  C_20 
REMARK    2  A    between atoms: C_10  and  C_11 
REMARK    3  A    between atoms: C_14  and  S_17 
REMARK    4  A    between atoms: C_20  and  C_21 
REMARK    5  A    between atoms: C_21  and  O_22 
ROOT
HETATM    1  C   UNK N   1      27.407  17.551   4.629  0.00  0.00    -0.018 A 
HETATM    2  C   UNK N   1      26.214  17.573   3.760  0.00  0.00    -0.043 A 
HETATM    3  C   UNK N   1      25.484  18.667   4.041  0.00  0.00    -0.030 A 
HETATM    4  C   UNK N   1      26.128  19.392   5.141  0.00  0.00    -0.015 A 
HETATM    5  C   UNK N   1      27.278  18.727   5.503  0.00  0.00    -0.014 A 
HETATM    6  C   UNK N   1      25.725  20.561   5.786  0.00  0.00     0.055 A 
HETATM    7  C   UNK N   1      26.520  21.049   6.838  0.00  0.00     0.117 A 
HETATM    8  C   UNK N   1      27.685  20.359   7.225  0.00  0.00     0.043 A 
HETATM    9  C   UNK N   1      28.069  19.187   6.557  0.00  0.00     0.016 A 
HETATM   10  C   UNK N   1      28.399  16.642   4.530  0.00  0.00     0.024 C 
HETATM   11  F   UNK N   1      26.163  22.183   7.485  0.00  0.00    -0.206 F 
HETATM   12  C   UNK N   1      25.916  16.589   2.674  0.00  0.00     0.049 C 
ENDROOT
BRANCH  10  13
HETATM   13  C   UNK N   1      29.727  16.724   5.175  0.00  0.00    -0.035 A 
HETATM   14  C   UNK N   1      29.943  16.100   6.409  0.00  0.00     0.013 A 
HETATM   15  C   UNK N   1      31.226  16.086   6.975  0.00  0.00     0.022 A 
HETATM   16  C   UNK N   1      32.304  16.680   6.299  0.00  0.00     0.031 A 
HETATM   17  C   UNK N   1      32.091  17.264   5.048  0.00  0.00     0.022 A 
HETATM   18  C   UNK N   1      30.815  17.280   4.492  0.00  0.00     0.013 A 
BRANCH  16  19
HETATM   19  S   UNK N   1      33.977  16.631   6.971  0.00  0.00     0.045 S 
HETATM   20  O   UNK N   1      34.400  17.958   6.323  0.00  0.00    -0.253 OA
HETATM   21  C   UNK N   1      34.645  15.686   5.569  0.00  0.00     0.133 C 
ENDBRANCH  16  19
ENDBRANCH  10  13
BRANCH   3  22
HETATM   22  C   UNK N   1      24.248  19.129   3.317  0.00  0.00     0.149 C 
BRANCH  22  23
HETATM   23  C   UNK N   1      24.323  20.499   2.712  0.00  0.00     0.143 C 
HETATM   24  O   UNK N   1      25.258  20.824   1.996  0.00  0.00    -0.650 OA
BRANCH  23  25
HETATM   25  O   UNK N   1      23.341  21.383   2.966  0.00  0.00    -0.776 OA
HETATM   26  H   UNK N   1      22.552  21.133   3.407  0.00  0.00     0.167 HD
ENDBRANCH  23  25
ENDBRANCH  22  23
ENDBRANCH   3  22
TORSDOF 5
ENDMDL
MODEL 2
REMARK VINA RESULT:      -7.4      3.202      7.601
REMARK  5 active torsions:
REMARK  status: ('A' for Active; 'I' for Inactive)
REMARK    1  A    between atoms: C_3  and  C_20 
REMARK    2  A    between atoms: C_10  and  C_11 
REMARK    3  A    between atoms: C_14  and  S_17 
REMARK    4  A    between atoms: C_20  and  C_21 
REMARK    5  A    between atoms: C_21  and  O_22 
ROOT
HETATM    1  C   UNK N   1      29.789  17.687   5.565  0.00  0.00    -0.018 A 
HETATM    2  C   UNK N   1      31.230  17.369   5.528  0.00  0.00    -0.043 A 
HETATM    3  C   UNK N   1      31.641  17.044   6.767  0.00  0.00    -0.030 A 
HETATM    4  C   UNK N   1      30.509  17.181   7.688  0.00  0.00    -0.015 A 
HETATM    5  C   UNK N   1      29.397  17.571   6.978  0.00  0.00    -0.014 A 
HETATM    6  C   UNK N   1      30.462  16.981   9.068  0.00  0.00     0.055 A 
HETATM    7  C   UNK N   1      29.242  17.199   9.731  0.00  0.00     0.117 A 
HETATM    8  C   UNK N   1      28.108  17.619   9.010  0.00  0.00     0.043 A 
HETATM    9  C   UNK N   1      28.183  17.811   7.623  0.00  0.00     0.016 A 
HETATM   10  C   UNK N   1      29.044  17.950   4.471  0.00  0.00     0.024 C 
HETATM   11  F   UNK N   1      29.156  17.010  11.069  0.00  0.00    -0.206 F 
HETATM   12  C   UNK N   1      32.075  17.320   4.294  0.00  0.00     0.049 C 
ENDROOT
BRANCH  10  13
HETATM   13  C   UNK N   1      27.568  18.007   4.411  0.00  0.00    -0.035 A 
HETATM   14  C   UNK N   1      26.917  19.245   4.380  0.00  0.00     0.013 A 
HETATM   15  C   UNK N   1      25.525  19.304   4.220  0.00  0.00     0.022 A 
HETATM   16  C   UNK N   1      24.779  18.124   4.070  0.00  0.00     0.031 A 
HETATM   17  C   UNK N   1      25.439  16.893   4.059  0.00  0.00     0.022 A 
HETATM   18  C   UNK N   1      26.820  16.838   4.223  0.00  0.00     0.013 A 
BRANCH  16  19
HETATM   19  S   UNK N   1      22.996  18.166   3.805  0.00  0.00     0.045 S 
HETATM   20  O   UNK N   1      22.913  19.701   3.830  0.00  0.00    -0.253 OA
HETATM   21  C   UNK N   1      22.606  18.076   5.579  0.00  0.00     0.133 C 
ENDBRANCH  16  19
ENDBRANCH  10  13
BRANCH   3  22
HETATM   22  C   UNK N   1      33.010  16.553   7.155  0.00  0.00     0.149 C 
BRANCH  22  23
HETATM   23  C   UNK N   1      33.884  17.550   7.856  0.00  0.00     0.143 C 
HETATM   24  O   UNK N   1      34.594  18.321   7.228  0.00  0.00    -0.650 OA
BRANCH  23  25
HETATM   25  O   UNK N   1      33.883  17.592   9.201  0.00  0.00    -0.776 OA
HETATM   26  H   UNK N   1      33.094  17.498   9.699  0.00  0.00     0.167 HD
ENDBRANCH  23  25
ENDBRANCH  22  23
ENDBRANCH   3  22
TORSDOF 5
ENDMDL
MODEL 3
REMARK VINA RESULT:      -7.3      2.454      2.893
REMARK  5 active torsions:
REMARK  status: ('A' for Active; 'I' for Inactive)
REMARK    1  A    between atoms: C_3  and  C_20 
REMARK    2  A    between atoms: C_10  and  C_11 
REMARK    3  A    between atoms: C_14  and  S_17 
REMARK    4  A    between atoms: C_20  and  C_21 
REMARK    5  A    between atoms: C_21  and  O_22 
ROOT
HETATM    1  C   UNK N   1      27.219  16.907   6.296  0.00  0.00    -0.018 A 
HETATM    2  C   UNK N   1      25.953  16.210   5.994  0.00  0.00    -0.043 A 
HETATM    3  C   UNK N   1      25.312  16.867   5.011  0.00  0.00    -0.030 A 
HETATM    4  C   UNK N   1      26.094  18.055   4.653  0.00  0.00    -0.015 A 
HETATM    5  C   UNK N   1      27.235  18.090   5.422  0.00  0.00    -0.014 A 
HETATM    6  C   UNK N   1      25.815  19.046   3.712  0.00  0.00     0.055 A 
HETATM    7  C   UNK N   1      26.730  20.104   3.570  0.00  0.00     0.117 A 
HETATM    8  C   UNK N   1      27.887  20.154   4.371  0.00  0.00     0.043 A 
HETATM    9  C   UNK N   1      28.144  19.142   5.307  0.00  0.00     0.016 A 
HETATM   10  C   UNK N   1      28.148  16.448   7.161  0.00  0.00     0.024 C 
HETATM   11  F   UNK N   1      26.496  21.083   2.664  0.00  0.00    -0.206 F 
HETATM   12  C   UNK N   1      25.503  14.924   6.613  0.00  0.00     0.049 C 
ENDROOT
BRANCH  10  13
HETATM   13  C   UNK N   1      29.531  16.948   7.303  0.00  0.00    -0.035 A 
HETATM   14  C   UNK N   1      29.889  17.706   8.423  0.00  0.00     0.013 A 
HETATM   15  C   UNK N   1      31.223  18.094   8.613  0.00  0.00     0.022 A 
HETATM   16  C   UNK N   1      32.211  17.707   7.693  0.00  0.00     0.031 A 
HETATM   17  C   UNK N   1      31.856  16.914   6.600  0.00  0.00     0.022 A 
HETATM   18  C   UNK N   1      30.529  16.535   6.412  0.00  0.00     0.013 A 
BRANCH  16  19
HETATM   19  S   UNK N   1      33.945  18.140   7.937  0.00  0.00     0.045 S 
HETATM   20  O   UNK N   1      34.313  17.980   6.454  0.00  0.00    -0.253 OA
HETATM   21  C   UNK N   1      34.450  16.430   8.290  0.00  0.00     0.133 C 
ENDBRANCH  16  19
ENDBRANCH  10  13
BRANCH   3  22
HETATM   22  C   UNK N   1      24.040  16.438   4.329  0.00  0.00     0.149 C 
BRANCH  22  23
HETATM   23  C   UNK N   1      22.808  17.202   4.713  0.00  0.00     0.143 C 
HETATM   24  O   UNK N   1      21.888  17.357   3.925  0.00  0.00    -0.650 OA
BRANCH  23  25
HETATM   25  O   UNK N   1      22.720  17.726   5.950  0.00  0.00    -0.776 OA
HETATM   26  H   UNK N   1      23.448  17.727   6.540  0.00  0.00     0.167 HD
ENDBRANCH  23  25
ENDBRANCH  22  23
ENDBRANCH   3  22
TORSDOF 5
ENDMDL
MODEL 4
REMARK VINA RESULT:      -7.2      2.315      3.655
REMARK  5 active torsions:
REMARK  status: ('A' for Active; 'I' for Inactive)
REMARK    1  A    between atoms: C_3  and  C_20 
REMARK    2  A    between atoms: C_10  and  C_11 
REMARK    3  A    between atoms: C_14  and  S_17 
REMARK    4  A    between atoms: C_20  and  C_21 
REMARK    5  A    between atoms: C_21  and  O_22 
ROOT
HETATM    1  C   UNK N   1      28.175  18.454   4.423  0.00  0.00    -0.018 A 
HETATM    2  C   UNK N   1      27.042  19.391   4.552  0.00  0.00    -0.043 A 
HETATM    3  C   UNK N   1      25.957  18.854   3.966  0.00  0.00    -0.030 A 
HETATM    4  C   UNK N   1      26.331  17.564   3.378  0.00  0.00    -0.015 A 
HETATM    5  C   UNK N   1      27.659  17.319   3.642  0.00  0.00    -0.014 A 
HETATM    6  C   UNK N   1      25.551  16.664   2.651  0.00  0.00     0.055 A 
HETATM    7  C   UNK N   1      26.160  15.490   2.175  0.00  0.00     0.117 A 
HETATM    8  C   UNK N   1      27.524  15.247   2.425  0.00  0.00     0.043 A 
HETATM    9  C   UNK N   1      28.284  16.167   3.161  0.00  0.00     0.016 A 
HETATM   10  C   UNK N   1      29.382  18.642   4.995  0.00  0.00     0.024 C 
HETATM   11  F   UNK N   1      25.435  14.591   1.469  0.00  0.00    -0.206 F 
HETATM   12  C   UNK N   1      27.070  20.686   5.300  0.00  0.00     0.049 C 
ENDROOT
BRANCH  10  13
HETATM   13  C   UNK N   1      30.453  17.633   5.130  0.00  0.00    -0.035 A 
HETATM   14  C   UNK N   1      31.556  17.663   4.269  0.00  0.00     0.013 A 
HETATM   15  C   UNK N   1      32.621  16.773   4.458  0.00  0.00     0.022 A 
HETATM   16  C   UNK N   1      32.599  15.859   5.524  0.00  0.00     0.031 A 
HETATM   17  C   UNK N   1      31.516  15.861   6.406  0.00  0.00     0.022 A 
HETATM   18  C   UNK N   1      30.458  16.744   6.211  0.00  0.00     0.013 A 
BRANCH  16  19
HETATM   19  S   UNK N   1      33.979  14.738   5.831  0.00  0.00     0.045 S 
HETATM   20  O   UNK N   1      35.034  15.856   5.840  0.00  0.00    -0.253 OA
HETATM   21  C   UNK N   1      34.272  14.419   4.065  0.00  0.00     0.133 C 
ENDBRANCH  16  19
ENDBRANCH  10  13
BRANCH   3  22
HETATM   22  C   UNK N   1      24.565  19.429   3.961  0.00  0.00     0.149 C 
BRANCH  22  23
HETATM   23  C   UNK N   1      24.297  20.471   2.916  0.00  0.00     0.143 C 
HETATM   24  O   UNK N   1      25.093  20.683   2.014  0.00  0.00    -0.650 OA
BRANCH  23  25
HETATM   25  O   UNK N   1      23.157  21.183   2.978  0.00  0.00    -0.776 OA
HETATM   26  H   UNK N   1      22.426  20.999   2.420  0.00  0.00     0.167 HD
ENDBRANCH  23  25
ENDBRANCH  22  23
ENDBRANCH   3  22
TORSDOF 5
ENDMDL
MODEL 5
REMARK VINA RESULT:      -7.2      3.317      8.065
REMARK  5 active torsions:
REMARK  status: ('A' for Active; 'I' for Inactive)
REMARK    1  A    between atoms: C_3  and  C_20 
REMARK    2  A    between atoms: C_10  and  C_11 
REMARK    3  A    between atoms: C_14  and  S_17 
REMARK    4  A    between atoms: C_20  and  C_21 
REMARK    5  A    between atoms: C_21  and  O_22 
ROOT
HETATM    1  C   UNK N   1      30.039  17.296   6.651  0.00  0.00    -0.018 A 
HETATM    2  C   UNK N   1      30.997  17.007   7.736  0.00  0.00    -0.043 A 
HETATM    3  C   UNK N   1      32.189  16.691   7.198  0.00  0.00    -0.030 A 
HETATM    4  C   UNK N   1      32.064  16.704   5.738  0.00  0.00    -0.015 A 
HETATM    5  C   UNK N   1      30.778  17.061   5.401  0.00  0.00    -0.014 A 
HETATM    6  C   UNK N   1      33.021  16.416   4.765  0.00  0.00     0.055 A 
HETATM    7  C   UNK N   1      32.639  16.486   3.414  0.00  0.00     0.117 A 
HETATM    8  C   UNK N   1      31.318  16.828   3.067  0.00  0.00     0.043 A 
HETATM    9  C   UNK N   1      30.376  17.116   4.066  0.00  0.00     0.016 A 
HETATM   10  C   UNK N   1      28.783  17.746   6.851  0.00  0.00     0.024 C 
HETATM   11  F   UNK N   1      33.541  16.217   2.441  0.00  0.00    -0.206 F 
HETATM   12  C   UNK N   1      30.716  17.140   9.199  0.00  0.00     0.049 C 
ENDROOT
BRANCH  10  13
HETATM   13  C   UNK N   1      27.881  18.305   5.822  0.00  0.00    -0.035 A 
HETATM   14  C   UNK N   1      28.048  19.624   5.387  0.00  0.00     0.013 A 
HETATM   15  C   UNK N   1      27.262  20.125   4.340  0.00  0.00     0.022 A 
HETATM   16  C   UNK N   1      26.317  19.300   3.707  0.00  0.00     0.031 A 
HETATM   17  C   UNK N   1      26.184  17.972   4.117  0.00  0.00     0.022 A 
HETATM   18  C   UNK N   1      26.963  17.480   5.161  0.00  0.00     0.013 A 
BRANCH  16  19
HETATM   19  S   UNK N   1      25.330  19.894   2.320  0.00  0.00     0.045 S 
HETATM   20  O   UNK N   1      25.958  21.297   2.325  0.00  0.00    -0.253 OA
HETATM   21  C   UNK N   1      23.961  20.458   3.375  0.00  0.00     0.133 C 
ENDBRANCH  16  19
ENDBRANCH  10  13
BRANCH   3  22
HETATM   22  C   UNK N   1      33.469  16.431   7.948  0.00  0.00     0.149 C 
BRANCH  22  23
HETATM   23  C   UNK N   1      34.388  17.607   8.092  0.00  0.00     0.143 C 
HETATM   24  O   UNK N   1      34.581  18.377   7.163  0.00  0.00    -0.650 OA
BRANCH  23  25
HETATM   25  O   UNK N   1      35.010  17.813   9.267  0.00  0.00    -0.776 OA
HETATM   26  H   UNK N   1      35.206  18.675   9.579  0.00  0.00     0.167 HD
ENDBRANCH  23  25
ENDBRANCH  22  23
ENDBRANCH   3  22
TORSDOF 5
ENDMDL
MODEL 6
REMARK VINA RESULT:      -7.1     12.358     16.192
REMARK  5 active torsions:
REMARK  status: ('A' for Active; 'I' for Inactive)
REMARK    1  A    between atoms: C_3  and  C_20 
REMARK    2  A    between atoms: C_10  and  C_11 
REMARK    3  A    between atoms: C_14  and  S_17 
REMARK    4  A    between atoms: C_20  and  C_21 
REMARK    5  A    between atoms: C_21  and  O_22 
ROOT
HETATM    1  C   UNK N   1      35.553  10.008  17.201  0.00  0.00    -0.018 A 
HETATM    2  C   UNK N   1      35.465   9.455  18.566  0.00  0.00    -0.043 A 
HETATM    3  C   UNK N   1      35.281  10.462  19.439  0.00  0.00    -0.030 A 
HETATM    4  C   UNK N   1      35.290  11.729  18.702  0.00  0.00    -0.015 A 
HETATM    5  C   UNK N   1      35.459  11.468  17.361  0.00  0.00    -0.014 A 
HETATM    6  C   UNK N   1      35.164  13.033  19.182  0.00  0.00     0.055 A 
HETATM    7  C   UNK N   1      35.225  14.091  18.259  0.00  0.00     0.117 A 
HETATM    8  C   UNK N   1      35.419  13.827  16.889  0.00  0.00     0.043 A 
HETATM    9  C   UNK N   1      35.541  12.506  16.433  0.00  0.00     0.016 A 
HETATM   10  C   UNK N   1      35.633   9.256  16.083  0.00  0.00     0.024 C 
HETATM   11  F   UNK N   1      35.102  15.370  18.686  0.00  0.00    -0.206 F 
HETATM   12  C   UNK N   1      35.479   8.000  18.914  0.00  0.00     0.049 C 
ENDROOT
BRANCH  10  13
HETATM   13  C   UNK N   1      35.453   9.732  14.695  0.00  0.00    -0.035 A 
HETATM   14  C   UNK N   1      34.172  10.043  14.224  0.00  0.00     0.013 A 
HETATM   15  C   UNK N   1      34.008  10.591  12.944  0.00  0.00     0.022 A 
HETATM   16  C   UNK N   1      35.127  10.850  12.136  0.00  0.00     0.031 A 
HETATM   17  C   UNK N   1      36.406  10.577  12.628  0.00  0.00     0.022 A 
HETATM   18  C   UNK N   1      36.564  10.028  13.897  0.00  0.00     0.013 A 
BRANCH  16  19
HETATM   19  S   UNK N   1      34.956  11.608  10.508  0.00  0.00     0.045 S 
HETATM   20  O   UNK N   1      36.469  11.649  10.242  0.00  0.00    -0.253 OA
HETATM   21  C   UNK N   1      34.983  13.305  11.159  0.00  0.00     0.133 C 
ENDBRANCH  16  19
ENDBRANCH  10  13
BRANCH   3  22
HETATM   22  C   UNK N   1      35.034  10.331  20.918  0.00  0.00     0.149 C 
BRANCH  22  23
HETATM   23  C   UNK N   1      33.594  10.312  21.337  0.00  0.00     0.143 C 
HETATM   24  O   UNK N   1      32.835   9.435  20.953  0.00  0.00    -0.650 OA
BRANCH  23  25
HETATM   25  O   UNK N   1      33.135  11.281  22.150  0.00  0.00    -0.776 OA
HETATM   26  H   UNK N   1      32.532  11.100  22.845  0.00  0.00     0.167 HD
ENDBRANCH  23  25
ENDBRANCH  22  23
ENDBRANCH   3  22
TORSDOF 5
ENDMDL
MODEL 7
REMARK VINA RESULT:      -7.1     13.306     16.747
REMARK  5 active torsions:
REMARK  status: ('A' for Active; 'I' for Inactive)
REMARK    1  A    between atoms: C_3  and  C_20 
REMARK    2  A    between atoms: C_10  and  C_11 
REMARK    3  A    between atoms: C_14  and  S_17 
REMARK    4  A    between atoms: C_20  and  C_21 
REMARK    5  A    between atoms: C_21  and  O_22 
ROOT
HETATM    1  C   UNK N   1      35.289  10.521  16.626  0.00  0.00    -0.018 A 
HETATM    2  C   UNK N   1      35.733  10.714  15.232  0.00  0.00    -0.043 A 
HETATM    3  C   UNK N   1      36.092  11.998  15.058  0.00  0.00    -0.030 A 
HETATM    4  C   UNK N   1      35.856  12.726  16.309  0.00  0.00    -0.015 A 
HETATM    5  C   UNK N   1      35.369  11.850  17.252  0.00  0.00    -0.014 A 
HETATM    6  C   UNK N   1      36.052  14.076  16.597  0.00  0.00     0.055 A 
HETATM    7  C   UNK N   1      35.727  14.536  17.885  0.00  0.00     0.117 A 
HETATM    8  C   UNK N   1      35.208  13.646  18.846  0.00  0.00     0.043 A 
HETATM    9  C   UNK N   1      35.024  12.292  18.530  0.00  0.00     0.016 A 
HETATM   10  C   UNK N   1      34.961   9.324  17.158  0.00  0.00     0.024 C 
HETATM   11  F   UNK N   1      35.907  15.839  18.204  0.00  0.00    -0.206 F 
HETATM   12  C   UNK N   1      35.855   9.633  14.205  0.00  0.00     0.049 C 
ENDROOT
BRANCH  10  13
HETATM   13  C   UNK N   1      34.775   9.027  18.593  0.00  0.00    -0.035 A 
HETATM   14  C   UNK N   1      35.882   8.989  19.449  0.00  0.00     0.013 A 
HETATM   15  C   UNK N   1      35.700   8.810  20.827  0.00  0.00     0.022 A 
HETATM   16  C   UNK N   1      34.407   8.688  21.361  0.00  0.00     0.031 A 
HETATM   17  C   UNK N   1      33.303   8.769  20.508  0.00  0.00     0.022 A 
HETATM   18  C   UNK N   1      33.489   8.942  19.139  0.00  0.00     0.013 A 
BRANCH  16  19
HETATM   19  S   UNK N   1      34.134   8.514  23.135  0.00  0.00     0.045 S 
HETATM   20  O   UNK N   1      32.827   7.722  22.973  0.00  0.00    -0.253 OA
HETATM   21  C   UNK N   1      33.218  10.078  23.272  0.00  0.00     0.133 C 
ENDBRANCH  16  19
ENDBRANCH  10  13
BRANCH   3  22
HETATM   22  C   UNK N   1      36.702  12.597  13.818  0.00  0.00     0.149 C 
BRANCH  22  23
HETATM   23  C   UNK N   1      35.909  13.691  13.167  0.00  0.00     0.143 C 
HETATM   24  O   UNK N   1      34.703  13.585  13.002  0.00  0.00    -0.650 OA
BRANCH  23  25
HETATM   25  O   UNK N   1      36.541  14.805  12.758  0.00  0.00    -0.776 OA
HETATM   26  H   UNK N   1      36.914  14.877  11.900  0.00  0.00     0.167 HD
ENDBRANCH  23  25
ENDBRANCH  22  23
ENDBRANCH   3  22
TORSDOF 5
ENDMDL
MODEL 8
REMARK VINA RESULT:      -7.0     10.907     13.621
REMARK  5 active torsions:
REMARK  status: ('A' for Active; 'I' for Inactive)
REMARK    1  A    between atoms: C_3  and  C_20 
REMARK    2  A    between atoms: C_10  and  C_11 
REMARK    3  A    between atoms: C_14  and  S_17 
REMARK    4  A    between atoms: C_20  and  C_21 
REMARK    5  A    between atoms: C_21  and  O_22 
ROOT
HETATM    1  C   UNK N   1      30.163  22.369  -4.220  0.00  0.00    -0.018 A 
HETATM    2  C   UNK N   1      31.290  21.460  -3.932  0.00  0.00    -0.043 A 
HETATM    3  C   UNK N   1      31.437  20.603  -4.958  0.00  0.00    -0.030 A 
HETATM    4  C   UNK N   1      30.388  20.868  -5.947  0.00  0.00    -0.015 A 
HETATM    5  C   UNK N   1      29.617  21.921  -5.511  0.00  0.00    -0.014 A 
HETATM    6  C   UNK N   1      30.125  20.219  -7.153  0.00  0.00     0.055 A 
HETATM    7  C   UNK N   1      29.034  20.660  -7.922  0.00  0.00     0.117 A 
HETATM    8  C   UNK N   1      28.230  21.723  -7.468  0.00  0.00     0.043 A 
HETATM    9  C   UNK N   1      28.518  22.359  -6.252  0.00  0.00     0.016 A 
HETATM   10  C   UNK N   1      29.817  23.416  -3.442  0.00  0.00     0.024 C 
HETATM   11  F   UNK N   1      28.750  20.058  -9.101  0.00  0.00    -0.206 F 
HETATM   12  C   UNK N   1      32.184  21.542  -2.736  0.00  0.00     0.049 C 
ENDROOT
BRANCH  10  13
HETATM   13  C   UNK N   1      28.890  24.507  -3.807  0.00  0.00    -0.035 A 
HETATM   14  C   UNK N   1      27.542  24.433  -3.438  0.00  0.00     0.013 A 
HETATM   15  C   UNK N   1      26.682  25.511  -3.691  0.00  0.00     0.022 A 
HETATM   16  C   UNK N   1      27.172  26.679  -4.298  0.00  0.00     0.031 A 
HETATM   17  C   UNK N   1      28.527  26.765  -4.626  0.00  0.00     0.022 A 
HETATM   18  C   UNK N   1      29.376  25.690  -4.377  0.00  0.00     0.013 A 
BRANCH  16  19
HETATM   19  S   UNK N   1      26.107  28.106  -4.586  0.00  0.00     0.045 S 
HETATM   20  O   UNK N   1      25.353  27.957  -3.255  0.00  0.00    -0.253 OA
HETATM   21  C   UNK N   1      24.839  27.138  -5.459  0.00  0.00     0.133 C 
ENDBRANCH  16  19
ENDBRANCH  10  13
BRANCH   3  22
HETATM   22  C   UNK N   1      32.530  19.580  -5.119  0.00  0.00     0.149 C 
BRANCH  22  23
HETATM   23  C   UNK N   1      33.640  19.956  -6.055  0.00  0.00     0.143 C 
HETATM   24  O   UNK N   1      33.971  19.221  -6.972  0.00  0.00    -0.650 OA
BRANCH  23  25
HETATM   25  O   UNK N   1      34.280  21.126  -5.875  0.00  0.00    -0.776 OA
HETATM   26  H   UNK N   1      35.201  21.216  -6.030  0.00  0.00     0.167 HD
ENDBRANCH  23  25
ENDBRANCH  22  23
ENDBRANCH   3  22
TORSDOF 5
ENDMDL
MODEL 9
REMARK VINA RESULT:      -6.9      3.469      5.522
REMARK  5 active torsions:
REMARK  status: ('A' for Active; 'I' for Inactive)
REMARK    1  A    between atoms: C_3  and  C_20 
REMARK    2  A    between atoms: C_10  and  C_11 
REMARK    3  A    between atoms: C_14  and  S_17 
REMARK    4  A    between atoms: C_20  and  C_21 
REMARK    5  A    between atoms: C_21  and  O_22 
ROOT
HETATM    1  C   UNK N   1      30.957  17.054   7.576  0.00  0.00    -0.018 A 
HETATM    2  C   UNK N   1      29.563  17.507   7.404  0.00  0.00    -0.043 A 
HETATM    3  C   UNK N   1      29.315  17.679   6.093  0.00  0.00    -0.030 A 
HETATM    4  C   UNK N   1      30.543  17.399   5.342  0.00  0.00    -0.015 A 
HETATM    5  C   UNK N   1      31.533  17.029   6.223  0.00  0.00    -0.014 A 
HETATM    6  C   UNK N   1      30.775  17.471   3.968  0.00  0.00     0.055 A 
HETATM    7  C   UNK N   1      32.063  17.165   3.495  0.00  0.00     0.117 A 
HETATM    8  C   UNK N   1      33.084  16.807   4.396  0.00  0.00     0.043 A 
HETATM    9  C   UNK N   1      32.822  16.741   5.772  0.00  0.00     0.016 A 
HETATM   10  C   UNK N   1      31.493  16.689   8.760  0.00  0.00     0.024 C 
HETATM   11  F   UNK N   1      32.326  17.219   2.168  0.00  0.00    -0.206 F 
HETATM   12  C   UNK N   1      28.558  17.657   8.502  0.00  0.00     0.049 C 
ENDROOT
BRANCH  10  13
HETATM   13  C   UNK N   1      32.774  15.980   8.957  0.00  0.00    -0.035 A 
HETATM   14  C   UNK N   1      33.930  16.700   9.281  0.00  0.00     0.013 A 
HETATM   15  C   UNK N   1      35.123  16.024   9.570  0.00  0.00     0.022 A 
HETATM   16  C   UNK N   1      35.162  14.620   9.557  0.00  0.00     0.031 A 
HETATM   17  C   UNK N   1      33.996  13.905   9.275  0.00  0.00     0.022 A 
HETATM   18  C   UNK N   1      32.814  14.581   8.984  0.00  0.00     0.013 A 
BRANCH  16  19
HETATM   19  S   UNK N   1      36.665  13.717   9.980  0.00  0.00     0.045 S 
HETATM   20  O   UNK N   1      37.561  14.965   9.947  0.00  0.00    -0.253 OA
HETATM   21  C   UNK N   1      37.067  13.332   8.249  0.00  0.00     0.133 C 
ENDBRANCH  16  19
ENDBRANCH  10  13
BRANCH   3  22
HETATM   22  C   UNK N   1      27.990  18.032   5.471  0.00  0.00     0.149 C 
BRANCH  22  23
HETATM   23  C   UNK N   1      27.839  19.457   5.029  0.00  0.00     0.143 C 
HETATM   24  O   UNK N   1      27.655  20.355   5.837  0.00  0.00    -0.650 OA
BRANCH  23  25
HETATM   25  O   UNK N   1      27.906  19.746   3.716  0.00  0.00    -0.776 OA
HETATM   26  H   UNK N   1      28.491  20.398   3.382  0.00  0.00     0.167 HD
ENDBRANCH  23  25
ENDBRANCH  22  23
ENDBRANCH   3  22
TORSDOF 5
ENDMDL
