MODEL 1
REMARK VINA RESULT:      -8.6      0.000      0.000
REMARK  24 active torsions:
REMARK  status: ('A' for Active; 'I' for Inactive)
REMARK    1  A    between atoms: O_45  and  C_1 
REMARK    2  A    between atoms: C_9  and  O_23 
REMARK    3  A    between atoms: C_10  and  O_25 
REMARK    4  A    between atoms: C_26  and  O_37 
REMARK    5  A    between atoms: C_27  and  O_45 
REMARK    6  A    between atoms: C_28  and  O_40 
REMARK    7  A    between atoms: C_30  and  N_39 
REMARK    8  A    between atoms: C_31  and  O_41 
REMARK    9  A    between atoms: C_32  and  O_37 
REMARK   10  A    between atoms: C_33  and  C_46 
REMARK   11  A    between atoms: C_36  and  O_42 
REMARK   12  A    between atoms: C_46  and  O_47 
REMARK   13  A    between atoms: C_49  and  N_64 
REMARK   14  A    between atoms: C_56  and  C_60 
REMARK   15  A    between atoms: C_60  and  C_61 
REMARK       I    between atoms: C_61  and  N_62 
REMARK       I    between atoms: C_65  and  N_64 
REMARK   16  A    between atoms: C_66  and  C_65 
REMARK   17  A    between atoms: C_68  and  C_66 
REMARK   18  A    between atoms: C_66  and  N_69 
REMARK   19  A    between atoms: C_70  and  C_68 
REMARK   20  A    between atoms: C_81  and  O_83 
REMARK   21  A    between atoms: C_84  and  C_81 
REMARK   22  A    between atoms: O_93  and  C_88 
REMARK   23  A    between atoms: C_98  and  O_99 
REMARK   24  A    between atoms: C_100  and  O_101 
ROOT
HETATM    1  C   UNK N   1      29.050   9.423   2.905  0.00  0.00     0.139 C 
HETATM    2  C   UNK N   1      29.991   9.884   3.815  0.00  0.00     0.113 C 
HETATM    3  C   UNK N   1      28.186  10.337   2.303  0.00  0.00     0.113 C 
HETATM    4  C   UNK N   1      28.871  12.067   3.803  0.00  0.00    -0.021 C 
HETATM    5  C   UNK N   1      28.132  11.637   2.742  0.00  0.00     0.050 C 
HETATM    6  C   UNK N   1      29.828  11.222   4.332  0.00  0.00     0.050 C 
HETATM    7  O   UNK N   1      31.089   9.140   4.144  0.00  0.00    -0.306 OA
HETATM    8  O   UNK N   1      27.329   9.978   1.355  0.00  0.00    -0.306 OA
HETATM    9  C   UNK N   1      21.955  11.286   1.866  0.00  0.00     0.183 C 
HETATM   10  C   UNK N   1      33.741  12.794   6.956  0.00  0.00     0.183 C 
HETATM   11  C   UNK N   1      23.311  10.740   1.689  0.00  0.00    -0.025 A 
HETATM   12  C   UNK N   1      33.633  11.710   5.925  0.00  0.00    -0.025 C 
HETATM   13  C   UNK N   1      26.013  10.187   1.495  0.00  0.00     0.098 A 
HETATM   14  C   UNK N   1      32.205   9.815   4.522  0.00  0.00     0.098 C 
HETATM   15  C   UNK N   1      25.383  10.248   2.779  0.00  0.00     0.068 A 
HETATM   16  C   UNK N   1      32.949   9.400   5.620  0.00  0.00     0.068 C 
HETATM   17  C   UNK N   1      33.623  10.372   6.356  0.00  0.00     0.036 C 
HETATM   18  C   UNK N   1      33.139  12.034   4.668  0.00  0.00     0.012 C 
HETATM   19  C   UNK N   1      23.904  10.622   0.429  0.00  0.00     0.012 A 
HETATM   20  C   UNK N   1      25.257  10.334   0.337  0.00  0.00     0.040 A 
HETATM   21  C   UNK N   1      32.460  11.084   3.952  0.00  0.00     0.040 C 
HETATM   22 Cl   UNK N   1      32.806   7.776   6.262  0.00  0.00    -0.081 Cl
HETATM   23 Cl   UNK N   1      26.155   9.994   4.352  0.00  0.00    -0.081 Cl
HETATM   24  C   UNK N   1      24.049  10.525   2.839  0.00  0.00     0.036 A 
HETATM   25  C   UNK N   1      33.928  14.195   6.367  0.00  0.00     0.210 C 
HETATM   26  N   UNK N   1      29.337  14.182   5.218  0.00  0.00    -0.342 N 
HETATM   27  C   UNK N   1      32.768  14.916   5.723  0.00  0.00     0.244 C 
HETATM   28  C   UNK N   1      27.280  14.037   3.768  0.00  0.00     0.246 C 
HETATM   29  N   UNK N   1      31.726  15.417   6.450  0.00  0.00    -0.345 N 
HETATM   30  C   UNK N   1      28.527  13.422   4.302  0.00  0.00     0.210 C 
HETATM   31  C   UNK N   1      29.964  15.310   4.805  0.00  0.00     0.241 C 
HETATM   32  C   UNK N   1      30.681  16.179   5.784  0.00  0.00     0.185 C 
HETATM   33  O   UNK N   1      32.830  15.134   4.521  0.00  0.00    -0.271 OA
HETATM   34  O   UNK N   1      27.349  14.976   2.987  0.00  0.00    -0.271 OA
HETATM   35  O   UNK N   1      29.959  15.628   3.626  0.00  0.00    -0.271 OA
HETATM   36  C   UNK N   1      22.130  12.700   2.451  0.00  0.00     0.210 C 
HETATM   37  N   UNK N   1      26.082  13.492   4.111  0.00  0.00    -0.342 N 
HETATM   38  C   UNK N   1      24.799  14.000   3.666  0.00  0.00     0.210 C 
HETATM   39  O   UNK N   1      23.305  13.653   0.629  0.00  0.00    -0.271 OA
HETATM   40  N   UNK N   1      22.568  12.744   3.844  0.00  0.00    -0.343 N 
HETATM   41  C   UNK N   1      23.696  13.265   4.419  0.00  0.00     0.245 C 
HETATM   42  O   UNK N   1      23.797  13.196   5.635  0.00  0.00    -0.271 OA
HETATM   43  C   UNK N   1      21.031  15.372   2.778  0.00  0.00     0.217 C 
HETATM   44  N   UNK N   1      21.951  15.070   1.693  0.00  0.00    -0.341 N 
HETATM   45  C   UNK N   1      22.513  13.842   1.538  0.00  0.00     0.244 C 
HETATM   46  C   UNK N   1      23.169  17.379   3.939  0.00  0.00     0.011 A 
HETATM   47  C   UNK N   1      24.115  18.093   4.756  0.00  0.00     0.076 A 
HETATM   48  C   UNK N   1      24.658  15.453   4.028  0.00  0.00    -0.025 A 
HETATM   49  C   UNK N   1      23.512  16.080   3.624  0.00  0.00     0.025 A 
HETATM   50  C   UNK N   1      25.305  17.474   5.158  0.00  0.00     0.038 A 
HETATM   51  C   UNK N   1      25.574  16.159   4.807  0.00  0.00     0.012 A 
HETATM   52  C   UNK N   1      20.808  16.884   2.920  0.00  0.00    -0.009 A 
HETATM   53  C   UNK N   1      19.538  17.343   2.557  0.00  0.00     0.047 A 
HETATM   54  C   UNK N   1      20.113  19.598   3.081  0.00  0.00     0.074 A 
HETATM   55  C   UNK N   1      21.791  17.840   3.437  0.00  0.00     0.019 A 
HETATM   56  C   UNK N   1      19.187  18.672   2.648  0.00  0.00     0.069 A 
HETATM   57  C   UNK N   1      21.393  19.215   3.466  0.00  0.00     0.080 A 
HETATM   58  H   UNK N   1      29.436  13.879   6.149  0.00  0.00     0.163 HD
HETATM   59  H   UNK N   1      31.681  15.262   7.421  0.00  0.00     0.163 HD
HETATM   60  H   UNK N   1      26.087  12.702   4.699  0.00  0.00     0.163 HD
HETATM   61  H   UNK N   1      21.942  12.327   4.480  0.00  0.00     0.163 HD
HETATM   62  H   UNK N   1      22.175  15.779   1.049  0.00  0.00     0.163 HD
ENDROOT
BRANCH   1  63
HETATM   63  O   UNK N   1      28.955   8.092   2.629  0.00  0.00    -0.312 OA
BRANCH  63  64
HETATM   64  C   UNK N   1      28.393   7.657   1.442  0.00  0.00     0.298 C 
HETATM   65  C   UNK N   1      29.401   7.286   0.383  0.00  0.00     0.211 C 
HETATM   66  C   UNK N   1      29.090   5.878  -0.187  0.00  0.00     0.183 C 
HETATM   67  C   UNK N   1      27.640   5.875  -0.685  0.00  0.00     0.180 C 
HETATM   68  C   UNK N   1      26.737   6.681   0.271  0.00  0.00     0.179 C 
HETATM   69  O   UNK N   1      27.298   6.756   1.572  0.00  0.00    -0.348 OA
BRANCH  65  70
HETATM   70  O   UNK N   1      30.719   7.653   0.738  0.00  0.00    -0.348 OA
BRANCH  70  71
HETATM   71  C   UNK N   1      31.117   8.676  -0.116  0.00  0.00     0.263 C 
HETATM   72  C   UNK N   1      31.834   9.837   0.575  0.00  0.00     0.093 C 
HETATM   73  C   UNK N   1      31.833  11.134  -0.285  0.00  0.00     0.052 C 
HETATM   74  C   UNK N   1      31.168  12.186   0.591  0.00  0.00     0.041 C 
HETATM   75  C   UNK N   1      31.118  11.030  -1.685  0.00  0.00     0.174 C 
HETATM   76  C   UNK N   1      30.627   9.613  -1.967  0.00  0.00     0.151 C 
HETATM   77  O   UNK N   1      30.015   9.125  -0.826  0.00  0.00    -0.354 OA
HETATM   78  C   UNK N   1      29.719   9.463  -3.172  0.00  0.00     0.042 C 
BRANCH  73  79
HETATM   79  N   UNK N   1      33.203  11.553  -0.509  0.00  0.00    -0.420 N 
HETATM   80  H   UNK N   1      33.941  11.621  -1.210  0.00  0.00     0.150 HD
HETATM   81  H   UNK N   1      33.569  11.920   0.370  0.00  0.00     0.150 HD
ENDBRANCH  73  79
BRANCH  75  82
HETATM   82  O   UNK N   1      30.063  11.937  -1.813  0.00  0.00    -0.391 OA
HETATM   83  H   UNK N   1      29.395  12.139  -1.137  0.00  0.00     0.210 HD
ENDBRANCH  75  82
ENDBRANCH  70  71
ENDBRANCH  65  70
BRANCH  66  84
HETATM   84  O   UNK N   1      29.169   4.919   0.831  0.00  0.00    -0.390 OA
HETATM   85  H   UNK N   1      29.600   4.518   1.601  0.00  0.00     0.210 HD
ENDBRANCH  66  84
BRANCH  67  86
HETATM   86  O   UNK N   1      27.573   6.442  -1.958  0.00  0.00    -0.390 OA
HETATM   87  H   UNK N   1      28.101   6.709  -2.726  0.00  0.00     0.210 HD
ENDBRANCH  67  86
BRANCH  68  88
HETATM   88  C   UNK N   1      25.299   6.180   0.259  0.00  0.00     0.198 C 
BRANCH  88  89
HETATM   89  O   UNK N   1      24.637   6.658  -0.877  0.00  0.00    -0.398 OA
HETATM   90  H   UNK N   1      23.696   6.878  -0.957  0.00  0.00     0.209 HD
ENDBRANCH  88  89
ENDBRANCH  68  88
ENDBRANCH  63  64
ENDBRANCH   1  63
BRANCH  10  91
HETATM   91  O   UNK N   1      34.723  12.475   7.894  0.00  0.00    -0.388 OA
HETATM   92  H   UNK N   1      34.708  12.651   8.847  0.00  0.00     0.210 HD
ENDBRANCH  10  91
BRANCH  32  93
HETATM   93  C   UNK N   1      29.685  16.840   6.738  0.00  0.00     0.137 C 
BRANCH  93  94
HETATM   94  C   UNK N   1      30.384  17.304   7.999  0.00  0.00     0.217 C 
HETATM   95  O   UNK N   1      31.497  17.799   7.930  0.00  0.00    -0.274 OA
HETATM   96  N   UNK N   1      29.785  17.188   9.202  0.00  0.00    -0.370 N 
HETATM   97  H   UNK N   1      28.851  17.252   9.508  0.00  0.00     0.159 HD
HETATM   98  H   UNK N   1      30.418  16.997   9.932  0.00  0.00     0.159 HD
ENDBRANCH  93  94
ENDBRANCH  32  93
BRANCH   9  99
HETATM   99  O   UNK N   1      21.256  11.334   0.657  0.00  0.00    -0.388 OA
HETATM  100  H   UNK N   1      20.339  11.173   0.385  0.00  0.00     0.210 HD
ENDBRANCH   9  99
BRANCH  25 101
HETATM  101  N   UNK N   1      34.606  15.065   7.267  0.00  0.00    -0.343 N 
HETATM  102  C   UNK N   1      34.077  15.311   8.483  0.00  0.00     0.240 C 
HETATM  103  O   UNK N   1      33.033  14.776   8.832  0.00  0.00    -0.271 OA
HETATM  104  H   UNK N   1      35.457  15.486   7.005  0.00  0.00     0.163 HD
BRANCH 102 105
HETATM  105  C   UNK N   1      34.791  16.220   9.418  0.00  0.00     0.169 C 
BRANCH 105 106
HETATM  106  C   UNK N   1      34.723  15.615  10.811  0.00  0.00     0.038 C 
BRANCH 106 107
HETATM  107  C   UNK N   1      36.134  15.396  11.331  0.00  0.00    -0.020 C 
HETATM  108  C   UNK N   1      36.063  14.690  12.668  0.00  0.00     0.009 C 
HETATM  109  C   UNK N   1      36.934  14.562  10.353  0.00  0.00     0.009 C 
ENDBRANCH 106 107
ENDBRANCH 105 106
BRANCH 105 110
HETATM  110  N   UNK N   1      34.150  17.531   9.412  0.00  0.00    -0.413 N 
HETATM  111  C   UNK N   1      34.704  18.312   8.313  0.00  0.00     0.140 C 
HETATM  112  H   UNK N   1      33.435  17.848  10.066  0.00  0.00     0.153 HD
ENDBRANCH 105 110
ENDBRANCH 102 105
ENDBRANCH  25 101
BRANCH  47 113
HETATM  113  O   UNK N   1      23.904  19.325   5.223  0.00  0.00    -0.360 OA
HETATM  114  H   UNK N   1      23.546  19.988   4.665  0.00  0.00     0.217 HD
ENDBRANCH  47 113
BRANCH  43 115
HETATM  115  C   UNK N   1      19.778  14.540   2.629  0.00  0.00     0.168 C 
HETATM  116  O   UNK N   1      19.359  13.902   3.581  0.00  0.00    -0.648 OA
BRANCH 115 117
HETATM  117  O   UNK N   1      19.152  14.455   1.440  0.00  0.00    -0.775 OA
HETATM  118  H   UNK N   1      18.250  14.512   1.188  0.00  0.00     0.167 HD
ENDBRANCH 115 117
ENDBRANCH  43 115
BRANCH  57 119
HETATM  119  O   UNK N   1      22.221  20.200   3.824  0.00  0.00    -0.360 OA
HETATM  120  H   UNK N   1      22.590  20.227   4.685  0.00  0.00     0.217 HD
ENDBRANCH  57 119
BRANCH  56 121
HETATM  121  O   UNK N   1      17.951  19.062   2.306  0.00  0.00    -0.361 OA
HETATM  122  H   UNK N   1      17.205  18.652   2.696  0.00  0.00     0.217 HD
ENDBRANCH  56 121
TORSDOF 24
ENDMDL
MODEL 2
REMARK VINA RESULT:      -8.5      1.735      3.018
REMARK  24 active torsions:
REMARK  status: ('A' for Active; 'I' for Inactive)
REMARK    1  A    between atoms: O_45  and  C_1 
REMARK    2  A    between atoms: C_9  and  O_23 
REMARK    3  A    between atoms: C_10  and  O_25 
REMARK    4  A    between atoms: C_26  and  O_37 
REMARK    5  A    between atoms: C_27  and  O_45 
REMARK    6  A    between atoms: C_28  and  O_40 
REMARK    7  A    between atoms: C_30  and  N_39 
REMARK    8  A    between atoms: C_31  and  O_41 
REMARK    9  A    between atoms: C_32  and  O_37 
REMARK   10  A    between atoms: C_33  and  C_46 
REMARK   11  A    between atoms: C_36  and  O_42 
REMARK   12  A    between atoms: C_46  and  O_47 
REMARK   13  A    between atoms: C_49  and  N_64 
REMARK   14  A    between atoms: C_56  and  C_60 
REMARK   15  A    between atoms: C_60  and  C_61 
REMARK       I    between atoms: C_61  and  N_62 
REMARK       I    between atoms: C_65  and  N_64 
REMARK   16  A    between atoms: C_66  and  C_65 
REMARK   17  A    between atoms: C_68  and  C_66 
REMARK   18  A    between atoms: C_66  and  N_69 
REMARK   19  A    between atoms: C_70  and  C_68 
REMARK   20  A    between atoms: C_81  and  O_83 
REMARK   21  A    between atoms: C_84  and  C_81 
REMARK   22  A    between atoms: O_93  and  C_88 
REMARK   23  A    between atoms: C_98  and  O_99 
REMARK   24  A    between atoms: C_100  and  O_101 
ROOT
HETATM    1  C   UNK N   1      28.787   9.190   3.079  0.00  0.00     0.139 C 
HETATM    2  C   UNK N   1      29.736   9.639   3.985  0.00  0.00     0.113 C 
HETATM    3  C   UNK N   1      27.950  10.118   2.459  0.00  0.00     0.113 C 
HETATM    4  C   UNK N   1      28.679  11.852   3.933  0.00  0.00    -0.021 C 
HETATM    5  C   UNK N   1      27.932  11.426   2.876  0.00  0.00     0.050 C 
HETATM    6  C   UNK N   1      29.610  10.989   4.480  0.00  0.00     0.050 C 
HETATM    7  O   UNK N   1      30.812   8.870   4.331  0.00  0.00    -0.306 OA
HETATM    8  O   UNK N   1      27.087   9.768   1.514  0.00  0.00    -0.306 OA
HETATM    9  C   UNK N   1      21.750  11.235   1.983  0.00  0.00     0.183 C 
HETATM   10  C   UNK N   1      33.557  12.493   7.093  0.00  0.00     0.183 C 
HETATM   11  C   UNK N   1      23.091  10.648   1.820  0.00  0.00    -0.025 A 
HETATM   12  C   UNK N   1      33.422  11.396   6.079  0.00  0.00    -0.025 C 
HETATM   13  C   UNK N   1      25.777  10.016   1.645  0.00  0.00     0.098 A 
HETATM   14  C   UNK N   1      31.946   9.520   4.702  0.00  0.00     0.098 C 
HETATM   15  C   UNK N   1      25.144  10.116   2.926  0.00  0.00     0.068 A 
HETATM   16  C   UNK N   1      32.674   9.101   5.809  0.00  0.00     0.068 C 
HETATM   17  C   UNK N   1      33.373  10.066   6.531  0.00  0.00     0.036 C 
HETATM   18  C   UNK N   1      32.942  11.713   4.814  0.00  0.00     0.012 C 
HETATM   19  C   UNK N   1      23.684  10.493   0.564  0.00  0.00     0.012 A 
HETATM   20  C   UNK N   1      25.029  10.165   0.482  0.00  0.00     0.040 A 
HETATM   21  C   UNK N   1      32.238  10.771   4.112  0.00  0.00     0.040 C 
HETATM   22 Cl   UNK N   1      32.483   7.493   6.476  0.00  0.00    -0.081 Cl
HETATM   23 Cl   UNK N   1      25.904   9.865   4.505  0.00  0.00    -0.081 Cl
HETATM   24  C   UNK N   1      23.819  10.432   2.976  0.00  0.00     0.036 A 
HETATM   25  C   UNK N   1      33.785  13.879   6.481  0.00  0.00     0.210 C 
HETATM   26  N   UNK N   1      29.200  13.976   5.315  0.00  0.00    -0.342 N 
HETATM   27  C   UNK N   1      32.648  14.621   5.821  0.00  0.00     0.244 C 
HETATM   28  C   UNK N   1      27.144  13.866   3.860  0.00  0.00     0.246 C 
HETATM   29  N   UNK N   1      31.618  15.163   6.536  0.00  0.00    -0.345 N 
HETATM   30  C   UNK N   1      28.371  13.224   4.408  0.00  0.00     0.210 C 
HETATM   31  C   UNK N   1      29.859  15.080   4.886  0.00  0.00     0.241 C 
HETATM   32  C   UNK N   1      30.598  15.943   5.854  0.00  0.00     0.185 C 
HETATM   33  O   UNK N   1      32.721  14.818   4.616  0.00  0.00    -0.271 OA
HETATM   34  O   UNK N   1      27.242  14.789   3.065  0.00  0.00    -0.271 OA
HETATM   35  O   UNK N   1      29.868  15.378   3.702  0.00  0.00    -0.271 OA
HETATM   36  C   UNK N   1      21.963  12.652   2.546  0.00  0.00     0.210 C 
HETATM   37  N   UNK N   1      25.930  13.360   4.207  0.00  0.00    -0.342 N 
HETATM   38  C   UNK N   1      24.663  13.897   3.749  0.00  0.00     0.210 C 
HETATM   39  O   UNK N   1      23.170  13.543   0.712  0.00  0.00    -0.271 OA
HETATM   40  N   UNK N   1      22.397  12.707   3.939  0.00  0.00    -0.343 N 
HETATM   41  C   UNK N   1      23.538  13.205   4.511  0.00  0.00     0.245 C 
HETATM   42  O   UNK N   1      23.633  13.154   5.727  0.00  0.00    -0.271 OA
HETATM   43  C   UNK N   1      20.939  15.359   2.825  0.00  0.00     0.217 C 
HETATM   44  N   UNK N   1      21.854  15.014   1.748  0.00  0.00    -0.341 N 
HETATM   45  C   UNK N   1      22.381  13.768   1.616  0.00  0.00     0.244 C 
HETATM   46  C   UNK N   1      23.129  17.324   3.961  0.00  0.00     0.011 A 
HETATM   47  C   UNK N   1      24.092  18.025   4.770  0.00  0.00     0.076 A 
HETATM   48  C   UNK N   1      24.563  15.359   4.087  0.00  0.00    -0.025 A 
HETATM   49  C   UNK N   1      23.436  16.011   3.668  0.00  0.00     0.025 A 
HETATM   50  C   UNK N   1      25.262  17.378   5.187  0.00  0.00     0.038 A 
HETATM   51  C   UNK N   1      25.495  16.052   4.858  0.00  0.00     0.012 A 
HETATM   52  C   UNK N   1      20.759  16.879   2.941  0.00  0.00    -0.009 A 
HETATM   53  C   UNK N   1      19.503  17.368   2.566  0.00  0.00     0.047 A 
HETATM   54  C   UNK N   1      20.139  19.614   3.056  0.00  0.00     0.074 A 
HETATM   55  C   UNK N   1      21.766  17.816   3.447  0.00  0.00     0.019 A 
HETATM   56  C   UNK N   1      19.190  18.708   2.634  0.00  0.00     0.069 A 
HETATM   57  C   UNK N   1      21.407  19.202   3.452  0.00  0.00     0.080 A 
HETATM   58  H   UNK N   1      29.287  13.686   6.252  0.00  0.00     0.163 HD
HETATM   59  H   UNK N   1      31.566  15.025   7.510  0.00  0.00     0.163 HD
HETATM   60  H   UNK N   1      25.911  12.580   4.808  0.00  0.00     0.163 HD
HETATM   61  H   UNK N   1      21.758  12.318   4.579  0.00  0.00     0.163 HD
HETATM   62  H   UNK N   1      22.099  15.706   1.093  0.00  0.00     0.163 HD
ENDROOT
BRANCH   1  63
HETATM   63  O   UNK N   1      28.655   7.858   2.824  0.00  0.00    -0.312 OA
BRANCH  63  64
HETATM   64  C   UNK N   1      27.623   7.131   3.392  0.00  0.00     0.298 C 
HETATM   65  C   UNK N   1      26.915   6.211   2.427  0.00  0.00     0.211 C 
HETATM   66  C   UNK N   1      26.829   4.779   3.016  0.00  0.00     0.183 C 
HETATM   67  C   UNK N   1      26.158   4.868   4.391  0.00  0.00     0.180 C 
HETATM   68  C   UNK N   1      26.635   6.125   5.146  0.00  0.00     0.179 C 
HETATM   69  O   UNK N   1      27.896   6.567   4.670  0.00  0.00    -0.348 OA
BRANCH  65  70
HETATM   70  O   UNK N   1      27.309   6.425   1.087  0.00  0.00    -0.348 OA
BRANCH  70  71
HETATM   71  C   UNK N   1      26.221   6.123   0.274  0.00  0.00     0.263 C 
HETATM   72  C   UNK N   1      26.414   6.478  -1.201  0.00  0.00     0.093 C 
HETATM   73  C   UNK N   1      25.065   6.581  -1.970  0.00  0.00     0.052 C 
HETATM   74  C   UNK N   1      25.049   7.988  -2.549  0.00  0.00     0.041 C 
HETATM   75  C   UNK N   1      23.767   6.303  -1.121  0.00  0.00     0.174 C 
HETATM   76  C   UNK N   1      24.103   5.894   0.310  0.00  0.00     0.151 C 
HETATM   77  O   UNK N   1      25.091   6.737   0.789  0.00  0.00    -0.354 OA
HETATM   78  C   UNK N   1      22.928   5.841   1.269  0.00  0.00     0.042 C 
BRANCH  73  79
HETATM   79  N   UNK N   1      25.083   5.649  -3.082  0.00  0.00    -0.420 N 
HETATM   80  H   UNK N   1      25.549   4.823  -3.459  0.00  0.00     0.150 HD
HETATM   81  H   UNK N   1      24.350   5.924  -3.735  0.00  0.00     0.150 HD
ENDBRANCH  73  79
BRANCH  75  82
HETATM   82  O   UNK N   1      22.892   7.394  -1.115  0.00  0.00    -0.391 OA
HETATM   83  H   UNK N   1      22.294   7.652  -1.833  0.00  0.00     0.210 HD
ENDBRANCH  75  82
ENDBRANCH  70  71
ENDBRANCH  65  70
BRANCH  66  84
HETATM   84  O   UNK N   1      28.116   4.267   3.226  0.00  0.00    -0.390 OA
HETATM   85  H   UNK N   1      28.800   3.590   3.112  0.00  0.00     0.210 HD
ENDBRANCH  66  84
BRANCH  67  86
HETATM   86  O   UNK N   1      24.772   4.927   4.241  0.00  0.00    -0.390 OA
HETATM   87  H   UNK N   1      24.046   5.444   3.861  0.00  0.00     0.210 HD
ENDBRANCH  67  86
BRANCH  68  88
HETATM   88  C   UNK N   1      26.588   5.938   6.656  0.00  0.00     0.198 C 
BRANCH  88  89
HETATM   89  O   UNK N   1      25.974   7.043   7.255  0.00  0.00    -0.398 OA
HETATM   90  H   UNK N   1      25.703   7.132   8.182  0.00  0.00     0.209 HD
ENDBRANCH  88  89
ENDBRANCH  68  88
ENDBRANCH  63  64
ENDBRANCH   1  63
BRANCH  10  91
HETATM   91  O   UNK N   1      34.527  12.162   8.039  0.00  0.00    -0.388 OA
HETATM   92  H   UNK N   1      35.428  12.514   8.109  0.00  0.00     0.210 HD
ENDBRANCH  10  91
BRANCH  32  93
HETATM   93  C   UNK N   1      29.618  16.648   6.794  0.00  0.00     0.137 C 
BRANCH  93  94
HETATM   94  C   UNK N   1      30.337  17.167   8.021  0.00  0.00     0.217 C 
HETATM   95  O   UNK N   1      31.464  17.623   7.917  0.00  0.00    -0.274 OA
HETATM   96  N   UNK N   1      29.741  17.144   9.231  0.00  0.00    -0.370 N 
HETATM   97  H   UNK N   1      28.812  17.256   9.535  0.00  0.00     0.159 HD
HETATM   98  H   UNK N   1      30.373  16.980   9.969  0.00  0.00     0.159 HD
ENDBRANCH  93  94
ENDBRANCH  32  93
BRANCH   9  99
HETATM   99  O   UNK N   1      21.057  11.282   0.770  0.00  0.00    -0.388 OA
HETATM  100  H   UNK N   1      20.153  11.078   0.486  0.00  0.00     0.210 HD
ENDBRANCH   9  99
BRANCH  25 101
HETATM  101  N   UNK N   1      34.485  14.744   7.370  0.00  0.00    -0.343 N 
HETATM  102  C   UNK N   1      33.955  15.030   8.577  0.00  0.00     0.240 C 
HETATM  103  O   UNK N   1      32.891  14.536   8.927  0.00  0.00    -0.271 OA
HETATM  104  H   UNK N   1      35.351  15.131   7.106  0.00  0.00     0.163 HD
BRANCH 102 105
HETATM  105  C   UNK N   1      34.691  15.934   9.499  0.00  0.00     0.169 C 
BRANCH 105 106
HETATM  106  C   UNK N   1      34.632  15.336  10.896  0.00  0.00     0.038 C 
BRANCH 106 107
HETATM  107  C   UNK N   1      36.040  15.236  11.458  0.00  0.00    -0.020 C 
HETATM  108  C   UNK N   1      35.990  14.518  12.789  0.00  0.00     0.009 C 
HETATM  109  C   UNK N   1      36.939  14.480  10.502  0.00  0.00     0.009 C 
ENDBRANCH 106 107
ENDBRANCH 105 106
BRANCH 105 110
HETATM  110  N   UNK N   1      34.067  17.253   9.495  0.00  0.00    -0.413 N 
HETATM  111  C   UNK N   1      34.632  18.029   8.398  0.00  0.00     0.140 C 
HETATM  112  H   UNK N   1      33.356  17.578  10.149  0.00  0.00     0.153 HD
ENDBRANCH 105 110
ENDBRANCH 102 105
ENDBRANCH  25 101
BRANCH  47 113
HETATM  113  O   UNK N   1      23.914  19.270   5.217  0.00  0.00    -0.360 OA
HETATM  114  H   UNK N   1      24.643  19.769   5.530  0.00  0.00     0.217 HD
ENDBRANCH  47 113
BRANCH  43 115
HETATM  115  C   UNK N   1      19.664  14.560   2.684  0.00  0.00     0.168 C 
HETATM  116  O   UNK N   1      19.205  13.978   3.653  0.00  0.00    -0.648 OA
BRANCH 115 117
HETATM  117  O   UNK N   1      19.059  14.444   1.487  0.00  0.00    -0.775 OA
HETATM  118  H   UNK N   1      18.189  14.628   1.191  0.00  0.00     0.167 HD
ENDBRANCH 115 117
ENDBRANCH  43 115
BRANCH  57 119
HETATM  119  O   UNK N   1      22.261  20.168   3.797  0.00  0.00    -0.360 OA
HETATM  120  H   UNK N   1      23.089  20.252   3.365  0.00  0.00     0.217 HD
ENDBRANCH  57 119
BRANCH  56 121
HETATM  121  O   UNK N   1      17.966  19.127   2.281  0.00  0.00    -0.361 OA
HETATM  122  H   UNK N   1      17.493  18.680   1.608  0.00  0.00     0.217 HD
ENDBRANCH  56 121
TORSDOF 24
ENDMDL
MODEL 3
REMARK VINA RESULT:      -8.3      2.668      4.491
REMARK  24 active torsions:
REMARK  status: ('A' for Active; 'I' for Inactive)
REMARK    1  A    between atoms: O_45  and  C_1 
REMARK    2  A    between atoms: C_9  and  O_23 
REMARK    3  A    between atoms: C_10  and  O_25 
REMARK    4  A    between atoms: C_26  and  O_37 
REMARK    5  A    between atoms: C_27  and  O_45 
REMARK    6  A    between atoms: C_28  and  O_40 
REMARK    7  A    between atoms: C_30  and  N_39 
REMARK    8  A    between atoms: C_31  and  O_41 
REMARK    9  A    between atoms: C_32  and  O_37 
REMARK   10  A    between atoms: C_33  and  C_46 
REMARK   11  A    between atoms: C_36  and  O_42 
REMARK   12  A    between atoms: C_46  and  O_47 
REMARK   13  A    between atoms: C_49  and  N_64 
REMARK   14  A    between atoms: C_56  and  C_60 
REMARK   15  A    between atoms: C_60  and  C_61 
REMARK       I    between atoms: C_61  and  N_62 
REMARK       I    between atoms: C_65  and  N_64 
REMARK   16  A    between atoms: C_66  and  C_65 
REMARK   17  A    between atoms: C_68  and  C_66 
REMARK   18  A    between atoms: C_66  and  N_69 
REMARK   19  A    between atoms: C_70  and  C_68 
REMARK   20  A    between atoms: C_81  and  O_83 
REMARK   21  A    between atoms: C_84  and  C_81 
REMARK   22  A    between atoms: O_93  and  C_88 
REMARK   23  A    between atoms: C_98  and  O_99 
REMARK   24  A    between atoms: C_100  and  O_101 
ROOT
HETATM    1  C   UNK N   1      27.774   8.344   3.971  0.00  0.00     0.139 C 
HETATM    2  C   UNK N   1      28.880   8.800   4.673  0.00  0.00     0.113 C 
HETATM    3  C   UNK N   1      26.986   9.263   3.279  0.00  0.00     0.113 C 
HETATM    4  C   UNK N   1      28.107  11.100   4.318  0.00  0.00    -0.021 C 
HETATM    5  C   UNK N   1      27.183  10.612   3.443  0.00  0.00     0.050 C 
HETATM    6  C   UNK N   1      28.986  10.219   4.917  0.00  0.00     0.050 C 
HETATM    7  O   UNK N   1      29.888   7.954   5.044  0.00  0.00    -0.306 OA
HETATM    8  O   UNK N   1      25.972   8.884   2.511  0.00  0.00    -0.306 OA
HETATM    9  C   UNK N   1      20.962  11.168   3.247  0.00  0.00     0.183 C 
HETATM   10  C   UNK N   1      33.392  11.562   6.777  0.00  0.00     0.183 C 
HETATM   11  C   UNK N   1      22.188  10.374   3.060  0.00  0.00    -0.025 A 
HETATM   12  C   UNK N   1      32.993  10.338   6.007  0.00  0.00    -0.025 C 
HETATM   13  C   UNK N   1      24.731   9.339   2.729  0.00  0.00     0.098 A 
HETATM   14  C   UNK N   1      31.132   8.487   5.167  0.00  0.00     0.098 C 
HETATM   15  C   UNK N   1      24.284   9.748   4.026  0.00  0.00     0.068 A 
HETATM   16  C   UNK N   1      31.939   8.164   6.251  0.00  0.00     0.068 C 
HETATM   17  C   UNK N   1      32.838   9.127   6.703  0.00  0.00     0.036 C 
HETATM   18  C   UNK N   1      32.397  10.499   4.762  0.00  0.00     0.012 C 
HETATM   19  C   UNK N   1      22.591   9.921   1.801  0.00  0.00     0.012 A 
HETATM   20  C   UNK N   1      23.864   9.393   1.642  0.00  0.00     0.040 A 
HETATM   21  C   UNK N   1      31.498   9.562   4.326  0.00  0.00     0.040 C 
HETATM   22 Cl   UNK N   1      31.637   6.739   7.224  0.00  0.00    -0.081 Cl
HETATM   23 Cl   UNK N   1      25.204   9.665   5.537  0.00  0.00    -0.081 Cl
HETATM   24  C   UNK N   1      23.026  10.256   4.154  0.00  0.00     0.036 A 
HETATM   25  C   UNK N   1      33.709  12.774   5.896  0.00  0.00     0.210 C 
HETATM   26  N   UNK N   1      29.059  13.332   5.215  0.00  0.00    -0.342 N 
HETATM   27  C   UNK N   1      32.597  13.548   5.230  0.00  0.00     0.244 C 
HETATM   28  C   UNK N   1      26.836  13.272   4.028  0.00  0.00     0.246 C 
HETATM   29  N   UNK N   1      31.742  14.348   5.934  0.00  0.00    -0.345 N 
HETATM   30  C   UNK N   1      28.035  12.564   4.556  0.00  0.00     0.210 C 
HETATM   31  C   UNK N   1      29.789  14.238   4.520  0.00  0.00     0.241 C 
HETATM   32  C   UNK N   1      30.747  15.139   5.227  0.00  0.00     0.185 C 
HETATM   33  O   UNK N   1      32.538  13.522   4.009  0.00  0.00    -0.271 OA
HETATM   34  O   UNK N   1      26.945  14.022   3.067  0.00  0.00    -0.271 OA
HETATM   35  O   UNK N   1      29.682  14.325   3.307  0.00  0.00    -0.271 OA
HETATM   36  C   UNK N   1      21.419  12.615   3.510  0.00  0.00     0.210 C 
HETATM   37  N   UNK N   1      25.623  13.015   4.588  0.00  0.00    -0.342 N 
HETATM   38  C   UNK N   1      24.385  13.643   4.171  0.00  0.00     0.210 C 
HETATM   39  O   UNK N   1      22.482  12.992   1.426  0.00  0.00    -0.271 OA
HETATM   40  N   UNK N   1      22.032  12.844   4.815  0.00  0.00    -0.343 N 
HETATM   41  C   UNK N   1      23.289  13.263   5.161  0.00  0.00     0.245 C 
HETATM   42  O   UNK N   1      23.532  13.408   6.350  0.00  0.00    -0.271 OA
HETATM   43  C   UNK N   1      20.782  15.448   3.381  0.00  0.00     0.217 C 
HETATM   44  N   UNK N   1      21.501  14.795   2.299  0.00  0.00    -0.341 N 
HETATM   45  C   UNK N   1      21.849  13.481   2.348  0.00  0.00     0.244 C 
HETATM   46  C   UNK N   1      23.325  17.241   3.894  0.00  0.00     0.011 A 
HETATM   47  C   UNK N   1      24.463  17.923   4.453  0.00  0.00     0.076 A 
HETATM   48  C   UNK N   1      24.509  15.140   4.237  0.00  0.00    -0.025 A 
HETATM   49  C   UNK N   1      23.428  15.867   3.823  0.00  0.00     0.025 A 
HETATM   50  C   UNK N   1      25.588  17.196   4.860  0.00  0.00     0.038 A 
HETATM   51  C   UNK N   1      25.612  15.813   4.763  0.00  0.00     0.012 A 
HETATM   52  C   UNK N   1      20.807  16.976   3.228  0.00  0.00    -0.009 A 
HETATM   53  C   UNK N   1      19.584  17.570   2.900  0.00  0.00     0.047 A 
HETATM   54  C   UNK N   1      20.551  19.750   2.891  0.00  0.00     0.074 A 
HETATM   55  C   UNK N   1      21.979  17.830   3.442  0.00  0.00     0.019 A 
HETATM   56  C   UNK N   1      19.450  18.932   2.748  0.00  0.00     0.069 A 
HETATM   57  C   UNK N   1      21.798  19.233   3.224  0.00  0.00     0.080 A 
HETATM   58  H   UNK N   1      29.229  13.198   6.175  0.00  0.00     0.163 HD
HETATM   59  H   UNK N   1      31.798  14.389   6.916  0.00  0.00     0.163 HD
HETATM   60  H   UNK N   1      25.585  12.361   5.323  0.00  0.00     0.163 HD
HETATM   61  H   UNK N   1      21.437  12.668   5.580  0.00  0.00     0.163 HD
HETATM   62  H   UNK N   1      21.744  15.321   1.504  0.00  0.00     0.163 HD
ENDROOT
BRANCH   1  63
HETATM   63  O   UNK N   1      27.447   7.021   3.986  0.00  0.00    -0.312 OA
BRANCH  63  64
HETATM   64  C   UNK N   1      26.827   6.461   5.089  0.00  0.00     0.298 C 
HETATM   65  C   UNK N   1      25.529   5.758   4.775  0.00  0.00     0.211 C 
HETATM   66  C   UNK N   1      25.531   4.330   5.379  0.00  0.00     0.183 C 
HETATM   67  C   UNK N   1      25.824   4.447   6.879  0.00  0.00     0.180 C 
HETATM   68  C   UNK N   1      26.881   5.538   7.141  0.00  0.00     0.179 C 
HETATM   69  O   UNK N   1      27.681   5.770   5.993  0.00  0.00    -0.348 OA
BRANCH  65  70
HETATM   70  O   UNK N   1      25.097   5.988   3.449  0.00  0.00    -0.348 OA
BRANCH  70  71
HETATM   71  C   UNK N   1      23.735   5.707   3.395  0.00  0.00     0.263 C 
HETATM   72  C   UNK N   1      23.225   5.305   2.010  0.00  0.00     0.093 C 
HETATM   73  C   UNK N   1      21.684   5.467   1.873  0.00  0.00     0.052 C 
HETATM   74  C   UNK N   1      21.490   6.411   0.696  0.00  0.00     0.041 C 
HETATM   75  C   UNK N   1      20.932   5.996   3.153  0.00  0.00     0.174 C 
HETATM   76  C   UNK N   1      21.880   6.172   4.335  0.00  0.00     0.151 C 
HETATM   77  O   UNK N   1      23.032   6.795   3.887  0.00  0.00    -0.354 OA
HETATM   78  C   UNK N   1      21.304   6.902   5.533  0.00  0.00     0.042 C 
BRANCH  73  79
HETATM   79  N   UNK N   1      21.105   4.187   1.509  0.00  0.00    -0.420 N 
HETATM   80  H   UNK N   1      20.835   3.271   1.869  0.00  0.00     0.150 HD
HETATM   81  H   UNK N   1      20.884   4.213   0.514  0.00  0.00     0.150 HD
ENDBRANCH  73  79
BRANCH  75  82
HETATM   82  O   UNK N   1      20.243   7.189   2.910  0.00  0.00    -0.391 OA
HETATM   83  H   UNK N   1      19.313   7.366   3.122  0.00  0.00     0.210 HD
ENDBRANCH  75  82
ENDBRANCH  70  71
ENDBRANCH  65  70
BRANCH  66  84
HETATM   84  O   UNK N   1      26.571   3.574   4.822  0.00  0.00    -0.390 OA
HETATM   85  H   UNK N   1      27.350   3.001   4.892  0.00  0.00     0.210 HD
ENDBRANCH  66  84
BRANCH  67  86
HETATM   86  O   UNK N   1      24.655   4.772   7.567  0.00  0.00    -0.390 OA
HETATM   87  H   UNK N   1      23.707   4.947   7.464  0.00  0.00     0.210 HD
ENDBRANCH  67  86
BRANCH  68  88
HETATM   88  C   UNK N   1      27.692   5.259   8.400  0.00  0.00     0.198 C 
BRANCH  88  89
HETATM   89  O   UNK N   1      27.713   6.395   9.215  0.00  0.00    -0.398 OA
HETATM   90  H   UNK N   1      27.131   6.588   9.966  0.00  0.00     0.209 HD
ENDBRANCH  88  89
ENDBRANCH  68  88
ENDBRANCH  63  64
ENDBRANCH   1  63
BRANCH  10  91
HETATM   91  O   UNK N   1      34.426  11.261   7.663  0.00  0.00    -0.388 OA
HETATM   92  H   UNK N   1      35.286  10.864   7.453  0.00  0.00     0.210 HD
ENDBRANCH  10  91
BRANCH  32  93
HETATM   93  C   UNK N   1      29.990  16.129   6.115  0.00  0.00     0.137 C 
BRANCH  93  94
HETATM   94  C   UNK N   1      30.935  16.800   7.089  0.00  0.00     0.217 C 
HETATM   95  O   UNK N   1      32.075  17.066   6.744  0.00  0.00    -0.274 OA
HETATM   96  N   UNK N   1      30.528  17.122   8.334  0.00  0.00    -0.370 N 
HETATM   97  H   UNK N   1      29.672  17.422   8.715  0.00  0.00     0.159 HD
HETATM   98  H   UNK N   1      31.242  17.038   9.007  0.00  0.00     0.159 HD
ENDBRANCH  93  94
ENDBRANCH  32  93
BRANCH   9  99
HETATM   99  O   UNK N   1      20.130  11.106   2.126  0.00  0.00    -0.388 OA
HETATM  100  H   UNK N   1      19.321  11.559   1.844  0.00  0.00     0.210 HD
ENDBRANCH   9  99
BRANCH  25 101
HETATM  101  N   UNK N   1      34.618  13.668   6.529  0.00  0.00    -0.343 N 
HETATM  102  C   UNK N   1      34.293  14.219   7.717  0.00  0.00     0.240 C 
HETATM  103  O   UNK N   1      33.237  13.941   8.269  0.00  0.00    -0.271 OA
HETATM  104  H   UNK N   1      35.479  13.884   6.103  0.00  0.00     0.163 HD
BRANCH 102 105
HETATM  105  C   UNK N   1      35.248  15.151   8.372  0.00  0.00     0.169 C 
BRANCH 105 106
HETATM  106  C   UNK N   1      35.199  14.904   9.871  0.00  0.00     0.038 C 
BRANCH 106 107
HETATM  107  C   UNK N   1      36.253  13.876  10.244  0.00  0.00    -0.020 C 
HETATM  108  C   UNK N   1      37.557  14.240   9.568  0.00  0.00     0.009 C 
HETATM  109  C   UNK N   1      36.447  13.838  11.745  0.00  0.00     0.009 C 
ENDBRANCH 106 107
ENDBRANCH 105 106
BRANCH 105 110
HETATM  110  N   UNK N   1      34.866  16.530   8.081  0.00  0.00    -0.413 N 
HETATM  111  C   UNK N   1      34.530  17.192   9.335  0.00  0.00     0.140 C 
HETATM  112  H   UNK N   1      34.839  16.958   7.156  0.00  0.00     0.153 HD
ENDBRANCH 105 110
ENDBRANCH 102 105
ENDBRANCH  25 101
BRANCH  47 113
HETATM  113  O   UNK N   1      24.499  19.239   4.674  0.00  0.00    -0.360 OA
HETATM  114  H   UNK N   1      25.231  19.625   5.115  0.00  0.00     0.217 HD
ENDBRANCH  47 113
BRANCH  43 115
HETATM  115  C   UNK N   1      19.410  14.831   3.526  0.00  0.00     0.168 C 
HETATM  116  O   UNK N   1      18.921  14.698   4.636  0.00  0.00    -0.648 OA
BRANCH 115 117
HETATM  117  O   UNK N   1      18.746  14.378   2.445  0.00  0.00    -0.775 OA
HETATM  118  H   UNK N   1      18.529  13.518   2.144  0.00  0.00     0.167 HD
ENDBRANCH 115 117
ENDBRANCH  43 115
BRANCH  57 119
HETATM  119  O   UNK N   1      22.802  20.110   3.290  0.00  0.00    -0.360 OA
HETATM  120  H   UNK N   1      22.645  21.001   3.533  0.00  0.00     0.217 HD
ENDBRANCH  57 119
BRANCH  56 121
HETATM  121  O   UNK N   1      18.253  19.457   2.452  0.00  0.00    -0.361 OA
HETATM  122  H   UNK N   1      17.553  19.409   3.073  0.00  0.00     0.217 HD
ENDBRANCH  56 121
TORSDOF 24
ENDMDL
MODEL 4
REMARK VINA RESULT:      -8.1      2.529      4.232
REMARK  24 active torsions:
REMARK  status: ('A' for Active; 'I' for Inactive)
REMARK    1  A    between atoms: O_45  and  C_1 
REMARK    2  A    between atoms: C_9  and  O_23 
REMARK    3  A    between atoms: C_10  and  O_25 
REMARK    4  A    between atoms: C_26  and  O_37 
REMARK    5  A    between atoms: C_27  and  O_45 
REMARK    6  A    between atoms: C_28  and  O_40 
REMARK    7  A    between atoms: C_30  and  N_39 
REMARK    8  A    between atoms: C_31  and  O_41 
REMARK    9  A    between atoms: C_32  and  O_37 
REMARK   10  A    between atoms: C_33  and  C_46 
REMARK   11  A    between atoms: C_36  and  O_42 
REMARK   12  A    between atoms: C_46  and  O_47 
REMARK   13  A    between atoms: C_49  and  N_64 
REMARK   14  A    between atoms: C_56  and  C_60 
REMARK   15  A    between atoms: C_60  and  C_61 
REMARK       I    between atoms: C_61  and  N_62 
REMARK       I    between atoms: C_65  and  N_64 
REMARK   16  A    between atoms: C_66  and  C_65 
REMARK   17  A    between atoms: C_68  and  C_66 
REMARK   18  A    between atoms: C_66  and  N_69 
REMARK   19  A    between atoms: C_70  and  C_68 
REMARK   20  A    between atoms: C_81  and  O_83 
REMARK   21  A    between atoms: C_84  and  C_81 
REMARK   22  A    between atoms: O_93  and  C_88 
REMARK   23  A    between atoms: C_98  and  O_99 
REMARK   24  A    between atoms: C_100  and  O_101 
ROOT
HETATM    1  C   UNK N   1      28.893   9.090   3.218  0.00  0.00     0.139 C 
HETATM    2  C   UNK N   1      29.861   9.569   4.088  0.00  0.00     0.113 C 
HETATM    3  C   UNK N   1      28.045   9.998   2.583  0.00  0.00     0.113 C 
HETATM    4  C   UNK N   1      28.806  11.781   3.982  0.00  0.00    -0.021 C 
HETATM    5  C   UNK N   1      28.037  11.320   2.955  0.00  0.00     0.050 C 
HETATM    6  C   UNK N   1      29.746  10.935   4.539  0.00  0.00     0.050 C 
HETATM    7  O   UNK N   1      30.943   8.810   4.439  0.00  0.00    -0.306 OA
HETATM    8  O   UNK N   1      27.163   9.618   1.668  0.00  0.00    -0.306 OA
HETATM    9  C   UNK N   1      21.838  11.111   2.194  0.00  0.00     0.183 C 
HETATM   10  C   UNK N   1      33.748  12.521   7.018  0.00  0.00     0.183 C 
HETATM   11  C   UNK N   1      23.175  10.516   2.025  0.00  0.00    -0.025 A 
HETATM   12  C   UNK N   1      33.591  11.390   6.046  0.00  0.00    -0.025 C 
HETATM   13  C   UNK N   1      25.856   9.873   1.818  0.00  0.00     0.098 A 
HETATM   14  C   UNK N   1      32.085   9.470   4.764  0.00  0.00     0.098 C 
HETATM   15  C   UNK N   1      25.249  10.018   3.106  0.00  0.00     0.068 A 
HETATM   16  C   UNK N   1      32.835   9.088   5.870  0.00  0.00     0.068 C 
HETATM   17  C   UNK N   1      33.549  10.076   6.545  0.00  0.00     0.036 C 
HETATM   18  C   UNK N   1      33.085  11.663   4.781  0.00  0.00     0.012 C 
HETATM   19  C   UNK N   1      23.742  10.317   0.763  0.00  0.00     0.012 A 
HETATM   20  C   UNK N   1      25.085   9.984   0.665  0.00  0.00     0.040 A 
HETATM   21  C   UNK N   1      32.366  10.699   4.126  0.00  0.00     0.040 C 
HETATM   22 Cl   UNK N   1      32.654   7.504   6.596  0.00  0.00    -0.081 Cl
HETATM   23 Cl   UNK N   1      26.040   9.821   4.678  0.00  0.00    -0.081 Cl
HETATM   24  C   UNK N   1      23.925  10.338   3.172  0.00  0.00     0.036 A 
HETATM   25  C   UNK N   1      33.965  13.884   6.355  0.00  0.00     0.210 C 
HETATM   26  N   UNK N   1      29.357  13.950   5.279  0.00  0.00    -0.342 N 
HETATM   27  C   UNK N   1      32.816  14.605   5.693  0.00  0.00     0.244 C 
HETATM   28  C   UNK N   1      27.272  13.794   3.870  0.00  0.00     0.246 C 
HETATM   29  N   UNK N   1      31.801  15.173   6.409  0.00  0.00    -0.345 N 
HETATM   30  C   UNK N   1      28.510  13.169   4.416  0.00  0.00     0.210 C 
HETATM   31  C   UNK N   1      30.009  15.037   4.799  0.00  0.00     0.241 C 
HETATM   32  C   UNK N   1      30.768  15.932   5.722  0.00  0.00     0.185 C 
HETATM   33  O   UNK N   1      32.864  14.760   4.481  0.00  0.00    -0.271 OA
HETATM   34  O   UNK N   1      27.356  14.689   3.042  0.00  0.00    -0.271 OA
HETATM   35  O   UNK N   1      29.994  15.295   3.606  0.00  0.00    -0.271 OA
HETATM   36  C   UNK N   1      22.064  12.546   2.703  0.00  0.00     0.210 C 
HETATM   37  N   UNK N   1      26.065  13.302   4.259  0.00  0.00    -0.342 N 
HETATM   38  C   UNK N   1      24.790  13.826   3.809  0.00  0.00     0.210 C 
HETATM   39  O   UNK N   1      23.235  13.371   0.816  0.00  0.00    -0.271 OA
HETATM   40  N   UNK N   1      22.526  12.648   4.085  0.00  0.00    -0.343 N 
HETATM   41  C   UNK N   1      23.679  13.163   4.616  0.00  0.00     0.245 C 
HETATM   42  O   UNK N   1      23.798  13.153   5.832  0.00  0.00    -0.271 OA
HETATM   43  C   UNK N   1      21.050  15.263   2.910  0.00  0.00     0.217 C 
HETATM   44  N   UNK N   1      21.942  14.879   1.827  0.00  0.00    -0.341 N 
HETATM   45  C   UNK N   1      22.465  13.628   1.727  0.00  0.00     0.244 C 
HETATM   46  C   UNK N   1      23.264  17.261   3.933  0.00  0.00     0.011 A 
HETATM   47  C   UNK N   1      24.244  17.988   4.698  0.00  0.00     0.076 A 
HETATM   48  C   UNK N   1      24.698  15.299   4.098  0.00  0.00    -0.025 A 
HETATM   49  C   UNK N   1      23.564  15.939   3.680  0.00  0.00     0.025 A 
HETATM   50  C   UNK N   1      25.422  17.354   5.113  0.00  0.00     0.038 A 
HETATM   51  C   UNK N   1      25.647  16.016   4.825  0.00  0.00     0.012 A 
HETATM   52  C   UNK N   1      20.873  16.786   2.977  0.00  0.00    -0.009 A 
HETATM   53  C   UNK N   1      19.611  17.265   2.611  0.00  0.00     0.047 A 
HETATM   54  C   UNK N   1      20.260  19.525   3.010  0.00  0.00     0.074 A 
HETATM   55  C   UNK N   1      21.892  17.738   3.430  0.00  0.00     0.019 A 
HETATM   56  C   UNK N   1      19.301  18.606   2.639  0.00  0.00     0.069 A 
HETATM   57  C   UNK N   1      21.535  19.124   3.395  0.00  0.00     0.080 A 
HETATM   58  H   UNK N   1      29.463  13.692   6.224  0.00  0.00     0.163 HD
HETATM   59  H   UNK N   1      31.768  15.070   7.388  0.00  0.00     0.163 HD
HETATM   60  H   UNK N   1      26.057  12.544   4.887  0.00  0.00     0.163 HD
HETATM   61  H   UNK N   1      21.900  12.283   4.751  0.00  0.00     0.163 HD
HETATM   62  H   UNK N   1      22.175  15.548   1.144  0.00  0.00     0.163 HD
ENDROOT
BRANCH   1  63
HETATM   63  O   UNK N   1      28.754   7.751   3.012  0.00  0.00    -0.312 OA
BRANCH  63  64
HETATM   64  C   UNK N   1      29.297   6.841   3.902  0.00  0.00     0.298 C 
HETATM   65  C   UNK N   1      28.296   6.245   4.861  0.00  0.00     0.211 C 
HETATM   66  C   UNK N   1      28.405   4.698   4.859  0.00  0.00     0.183 C 
HETATM   67  C   UNK N   1      29.858   4.322   5.169  0.00  0.00     0.180 C 
HETATM   68  C   UNK N   1      30.830   5.295   4.471  0.00  0.00     0.179 C 
HETATM   69  O   UNK N   1      30.225   5.914   3.348  0.00  0.00    -0.348 OA
BRANCH  65  70
HETATM   70  O   UNK N   1      27.039   6.887   4.798  0.00  0.00    -0.348 OA
BRANCH  70  71
HETATM   71  C   UNK N   1      26.122   6.085   5.471  0.00  0.00     0.263 C 
HETATM   72  C   UNK N   1      24.740   6.018   4.819  0.00  0.00     0.093 C 
HETATM   73  C   UNK N   1      23.639   5.535   5.806  0.00  0.00     0.052 C 
HETATM   74  C   UNK N   1      22.603   6.649   5.815  0.00  0.00     0.041 C 
HETATM   75  C   UNK N   1      24.124   5.201   7.268  0.00  0.00     0.174 C 
HETATM   76  C   UNK N   1      25.637   5.341   7.408  0.00  0.00     0.151 C 
HETATM   77  O   UNK N   1      26.030   6.513   6.785  0.00  0.00    -0.354 OA
HETATM   78  C   UNK N   1      26.171   5.278   8.826  0.00  0.00     0.042 C 
BRANCH  73  79
HETATM   79  N   UNK N   1      23.004   4.350   5.262  0.00  0.00    -0.420 N 
HETATM   80  H   UNK N   1      23.159   3.519   4.690  0.00  0.00     0.150 HD
HETATM   81  H   UNK N   1      22.031   4.345   5.567  0.00  0.00     0.150 HD
ENDBRANCH  73  79
BRANCH  75  82
HETATM   82  O   UNK N   1      23.479   5.979   8.233  0.00  0.00    -0.391 OA
HETATM   83  H   UNK N   1      22.611   6.403   8.141  0.00  0.00     0.210 HD
ENDBRANCH  75  82
ENDBRANCH  70  71
ENDBRANCH  65  70
BRANCH  66  84
HETATM   84  O   UNK N   1      28.121   4.198   3.581  0.00  0.00    -0.390 OA
HETATM   85  H   UNK N   1      28.112   4.267   2.614  0.00  0.00     0.210 HD
ENDBRANCH  66  84
BRANCH  67  86
HETATM   86  O   UNK N   1      30.079   4.369   6.545  0.00  0.00    -0.390 OA
HETATM   87  H   UNK N   1      29.935   4.898   7.344  0.00  0.00     0.210 HD
ENDBRANCH  67  86
BRANCH  68  88
HETATM   88  C   UNK N   1      32.168   4.639   4.154  0.00  0.00     0.198 C 
BRANCH  88  89
HETATM   89  O   UNK N   1      31.978   3.571   3.271  0.00  0.00    -0.398 OA
HETATM   90  H   UNK N   1      32.118   3.573   2.312  0.00  0.00     0.209 HD
ENDBRANCH  88  89
ENDBRANCH  68  88
ENDBRANCH  63  64
ENDBRANCH   1  63
BRANCH  10  91
HETATM   91  O   UNK N   1      34.736  12.220   7.956  0.00  0.00    -0.388 OA
HETATM   92  H   UNK N   1      35.696  12.209   7.819  0.00  0.00     0.210 HD
ENDBRANCH  10  91
BRANCH  32  93
HETATM   93  C   UNK N   1      29.808  16.671   6.656  0.00  0.00     0.137 C 
BRANCH  93  94
HETATM   94  C   UNK N   1      29.176  17.849   5.946  0.00  0.00     0.217 C 
HETATM   95  O   UNK N   1      28.380  18.560   6.538  0.00  0.00    -0.274 OA
HETATM   96  N   UNK N   1      29.490  18.132   4.665  0.00  0.00    -0.370 N 
HETATM   97  H   UNK N   1      30.314  18.052   4.132  0.00  0.00     0.159 HD
HETATM   98  H   UNK N   1      28.733  18.499   4.154  0.00  0.00     0.159 HD
ENDBRANCH  93  94
ENDBRANCH  32  93
BRANCH   9  99
HETATM   99  O   UNK N   1      21.120  11.118   0.995  0.00  0.00    -0.388 OA
HETATM  100  H   UNK N   1      20.181  11.105   0.755  0.00  0.00     0.210 HD
ENDBRANCH   9  99
BRANCH  25 101
HETATM  101  N   UNK N   1      34.684  14.778   7.199  0.00  0.00    -0.343 N 
HETATM  102  C   UNK N   1      34.185  15.096   8.411  0.00  0.00     0.240 C 
HETATM  103  O   UNK N   1      33.134  14.608   8.805  0.00  0.00    -0.271 OA
HETATM  104  H   UNK N   1      35.540  15.161   6.901  0.00  0.00     0.163 HD
BRANCH 102 105
HETATM  105  C   UNK N   1      34.941  16.030   9.287  0.00  0.00     0.169 C 
BRANCH 105 106
HETATM  106  C   UNK N   1      35.129  15.362  10.640  0.00  0.00     0.038 C 
BRANCH 106 107
HETATM  107  C   UNK N   1      35.930  14.084  10.461  0.00  0.00    -0.020 C 
HETATM  108  C   UNK N   1      37.372  14.442  10.170  0.00  0.00     0.009 C 
HETATM  109  C   UNK N   1      35.856  13.233  11.711  0.00  0.00     0.009 C 
ENDBRANCH 106 107
ENDBRANCH 105 106
BRANCH 105 110
HETATM  110  N   UNK N   1      34.190  17.272   9.444  0.00  0.00    -0.413 N 
HETATM  111  C   UNK N   1      34.510  18.151   8.326  0.00  0.00     0.140 C 
HETATM  112  H   UNK N   1      33.550  17.489  10.207  0.00  0.00     0.153 HD
ENDBRANCH 105 110
ENDBRANCH 102 105
ENDBRANCH  25 101
BRANCH  47 113
HETATM  113  O   UNK N   1      24.077  19.248   5.105  0.00  0.00    -0.360 OA
HETATM  114  H   UNK N   1      24.767  19.874   5.002  0.00  0.00     0.217 HD
ENDBRANCH  47 113
BRANCH  43 115
HETATM  115  C   UNK N   1      19.770  14.462   2.822  0.00  0.00     0.168 C 
HETATM  116  O   UNK N   1      19.354  13.879   3.810  0.00  0.00    -0.648 OA
BRANCH 115 117
HETATM  117  O   UNK N   1      19.116  14.345   1.651  0.00  0.00    -0.775 OA
HETATM  118  H   UNK N   1      18.301  14.686   1.339  0.00  0.00     0.167 HD
ENDBRANCH 115 117
ENDBRANCH  43 115
BRANCH  57 119
HETATM  119  O   UNK N   1      22.397  20.100   3.688  0.00  0.00    -0.360 OA
HETATM  120  H   UNK N   1      22.234  20.982   3.416  0.00  0.00     0.217 HD
ENDBRANCH  57 119
BRANCH  56 121
HETATM  121  O   UNK N   1      18.071  19.016   2.297  0.00  0.00    -0.361 OA
HETATM  122  H   UNK N   1      17.895  19.288   1.418  0.00  0.00     0.217 HD
ENDBRANCH  56 121
TORSDOF 24
ENDMDL
MODEL 5
REMARK VINA RESULT:      -8.1      3.075     12.764
REMARK  24 active torsions:
REMARK  status: ('A' for Active; 'I' for Inactive)
REMARK    1  A    between atoms: O_45  and  C_1 
REMARK    2  A    between atoms: C_9  and  O_23 
REMARK    3  A    between atoms: C_10  and  O_25 
REMARK    4  A    between atoms: C_26  and  O_37 
REMARK    5  A    between atoms: C_27  and  O_45 
REMARK    6  A    between atoms: C_28  and  O_40 
REMARK    7  A    between atoms: C_30  and  N_39 
REMARK    8  A    between atoms: C_31  and  O_41 
REMARK    9  A    between atoms: C_32  and  O_37 
REMARK   10  A    between atoms: C_33  and  C_46 
REMARK   11  A    between atoms: C_36  and  O_42 
REMARK   12  A    between atoms: C_46  and  O_47 
REMARK   13  A    between atoms: C_49  and  N_64 
REMARK   14  A    between atoms: C_56  and  C_60 
REMARK   15  A    between atoms: C_60  and  C_61 
REMARK       I    between atoms: C_61  and  N_62 
REMARK       I    between atoms: C_65  and  N_64 
REMARK   16  A    between atoms: C_66  and  C_65 
REMARK   17  A    between atoms: C_68  and  C_66 
REMARK   18  A    between atoms: C_66  and  N_69 
REMARK   19  A    between atoms: C_70  and  C_68 
REMARK   20  A    between atoms: C_81  and  O_83 
REMARK   21  A    between atoms: C_84  and  C_81 
REMARK   22  A    between atoms: O_93  and  C_88 
REMARK   23  A    between atoms: C_98  and  O_99 
REMARK   24  A    between atoms: C_100  and  O_101 
ROOT
HETATM    1  C   UNK N   1      31.406  15.256   4.126  0.00  0.00     0.139 C 
HETATM    2  C   UNK N   1      30.045  15.371   4.369  0.00  0.00     0.113 C 
HETATM    3  C   UNK N   1      31.866  14.207   3.331  0.00  0.00     0.113 C 
HETATM    4  C   UNK N   1      29.723  13.150   3.379  0.00  0.00    -0.021 C 
HETATM    5  C   UNK N   1      31.017  13.196   2.953  0.00  0.00     0.050 C 
HETATM    6  C   UNK N   1      29.207  14.237   4.057  0.00  0.00     0.050 C 
HETATM    7  O   UNK N   1      29.494  16.545   4.799  0.00  0.00    -0.306 OA
HETATM    8  O   UNK N   1      33.141  14.094   2.981  0.00  0.00    -0.306 OA
HETATM    9  C   UNK N   1      35.826   9.315   3.878  0.00  0.00     0.183 C 
HETATM   10  C   UNK N   1      24.354  15.255   4.341  0.00  0.00     0.183 C 
HETATM   11  C   UNK N   1      35.281  10.676   3.736  0.00  0.00    -0.025 A 
HETATM   12  C   UNK N   1      25.531  16.168   4.166  0.00  0.00    -0.025 C 
HETATM   13  C   UNK N   1      33.845  12.993   3.276  0.00  0.00     0.098 A 
HETATM   14  C   UNK N   1      28.201  16.786   4.458  0.00  0.00     0.098 C 
HETATM   15  C   UNK N   1      33.533  12.165   4.402  0.00  0.00     0.068 A 
HETATM   16  C   UNK N   1      27.302  17.289   5.391  0.00  0.00     0.068 C 
HETATM   17  C   UNK N   1      25.963  16.927   5.267  0.00  0.00     0.036 C 
HETATM   18  C   UNK N   1      26.395  15.944   3.101  0.00  0.00     0.012 C 
HETATM   19  C   UNK N   1      35.635  11.507   2.670  0.00  0.00     0.012 A 
HETATM   20  C   UNK N   1      34.918  12.674   2.450  0.00  0.00     0.040 A 
HETATM   21  C   UNK N   1      27.715  16.282   3.229  0.00  0.00     0.040 C 
HETATM   22 Cl   UNK N   1      27.850  18.085   6.852  0.00  0.00    -0.081 Cl
HETATM   23 Cl   UNK N   1      32.274  12.456   5.613  0.00  0.00    -0.081 Cl
HETATM   24  C   UNK N   1      34.259  11.029   4.598  0.00  0.00     0.036 A 
HETATM   25  C   UNK N   1      23.859  14.621   3.038  0.00  0.00     0.210 C 
HETATM   26  N   UNK N   1      27.584  11.707   3.192  0.00  0.00    -0.342 N 
HETATM   27  C   UNK N   1      24.636  13.503   2.387  0.00  0.00     0.244 C 
HETATM   28  C   UNK N   1      29.837  10.742   2.599  0.00  0.00     0.246 C 
HETATM   29  N   UNK N   1      24.689  12.245   2.917  0.00  0.00    -0.345 N 
HETATM   30  C   UNK N   1      29.010  11.882   3.084  0.00  0.00     0.210 C 
HETATM   31  C   UNK N   1      26.831  11.515   2.081  0.00  0.00     0.241 C 
HETATM   32  C   UNK N   1      25.380  11.187   2.198  0.00  0.00     0.185 C 
HETATM   33  O   UNK N   1      25.148  13.724   1.298  0.00  0.00    -0.271 OA
HETATM   34  O   UNK N   1      29.755  10.381   1.434  0.00  0.00    -0.271 OA
HETATM   35  O   UNK N   1      27.326  11.618   0.969  0.00  0.00    -0.271 OA
HETATM   36  C   UNK N   1      34.686   8.351   3.500  0.00  0.00     0.210 C 
HETATM   37  N   UNK N   1      30.724  10.167   3.455  0.00  0.00    -0.342 N 
HETATM   38  C   UNK N   1      31.579   9.048   3.110  0.00  0.00     0.210 C 
HETATM   39  O   UNK N   1      34.427   9.037   1.247  0.00  0.00    -0.271 OA
HETATM   40  N   UNK N   1      33.604   8.257   4.476  0.00  0.00    -0.343 N 
HETATM   41  C   UNK N   1      32.270   8.554   4.376  0.00  0.00     0.245 C 
HETATM   42  O   UNK N   1      31.568   8.345   5.354  0.00  0.00    -0.271 OA
HETATM   43  C   UNK N   1      33.921   5.731   2.496  0.00  0.00     0.217 C 
HETATM   44  N   UNK N   1      34.050   6.867   1.597  0.00  0.00    -0.341 N 
HETATM   45  C   UNK N   1      34.366   8.113   2.042  0.00  0.00     0.244 C 
HETATM   46  C   UNK N   1      30.852   5.604   1.785  0.00  0.00     0.011 A 
HETATM   47  C   UNK N   1      29.413   5.581   1.809  0.00  0.00     0.076 A 
HETATM   48  C   UNK N   1      30.755   7.896   2.605  0.00  0.00    -0.025 A 
HETATM   49  C   UNK N   1      31.438   6.784   2.193  0.00  0.00     0.025 A 
HETATM   50  C   UNK N   1      28.698   6.718   2.205  0.00  0.00     0.038 A 
HETATM   51  C   UNK N   1      29.361   7.867   2.610  0.00  0.00     0.012 A 
HETATM   52  C   UNK N   1      33.245   4.541   1.802  0.00  0.00    -0.009 A 
HETATM   53  C   UNK N   1      34.071   3.442   1.546  0.00  0.00     0.047 A 
HETATM   54  C   UNK N   1      32.279   2.222   0.550  0.00  0.00     0.074 A 
HETATM   55  C   UNK N   1      31.825   4.465   1.443  0.00  0.00     0.019 A 
HETATM   56  C   UNK N   1      33.599   2.296   0.945  0.00  0.00     0.069 A 
HETATM   57  C   UNK N   1      31.396   3.272   0.778  0.00  0.00     0.080 A 
HETATM   58  H   UNK N   1      27.155  11.726   4.078  0.00  0.00     0.163 HD
HETATM   59  H   UNK N   1      24.261  12.056   3.784  0.00  0.00     0.163 HD
HETATM   60  H   UNK N   1      30.788  10.532   4.367  0.00  0.00     0.163 HD
HETATM   61  H   UNK N   1      33.880   7.922   5.359  0.00  0.00     0.163 HD
HETATM   62  H   UNK N   1      33.903   6.730   0.634  0.00  0.00     0.163 HD
ENDROOT
BRANCH   1  63
HETATM   63  O   UNK N   1      32.281  16.139   4.685  0.00  0.00    -0.312 OA
BRANCH  63  64
HETATM   64  C   UNK N   1      32.360  16.280   6.059  0.00  0.00     0.298 C 
HETATM   65  C   UNK N   1      33.684  15.858   6.646  0.00  0.00     0.211 C 
HETATM   66  C   UNK N   1      34.244  16.975   7.566  0.00  0.00     0.183 C 
HETATM   67  C   UNK N   1      33.178  17.306   8.617  0.00  0.00     0.180 C 
HETATM   68  C   UNK N   1      31.771  17.277   7.988  0.00  0.00     0.179 C 
HETATM   69  O   UNK N   1      31.825  17.489   6.587  0.00  0.00    -0.348 OA
BRANCH  65  70
HETATM   70  O   UNK N   1      34.512  15.208   5.704  0.00  0.00    -0.348 OA
BRANCH  70  71
HETATM   71  C   UNK N   1      35.672  14.813   6.362  0.00  0.00     0.263 C 
HETATM   72  C   UNK N   1      36.842  14.473   5.437  0.00  0.00     0.093 C 
HETATM   73  C   UNK N   1      37.922  13.602   6.140  0.00  0.00     0.052 C 
HETATM   74  C   UNK N   1      38.036  12.350   5.283  0.00  0.00     0.041 C 
HETATM   75  C   UNK N   1      37.637  13.234   7.645  0.00  0.00     0.174 C 
HETATM   76  C   UNK N   1      36.360  13.894   8.157  0.00  0.00     0.151 C 
HETATM   77  O   UNK N   1      35.374  13.749   7.197  0.00  0.00    -0.354 OA
HETATM   78  C   UNK N   1      35.872  13.412   9.510  0.00  0.00     0.042 C 
BRANCH  73  79
HETATM   79  N   UNK N   1      39.197  14.292   6.079  0.00  0.00    -0.420 N 
HETATM   80  H   UNK N   1      40.203  14.158   5.974  0.00  0.00     0.150 HD
HETATM   81  H   UNK N   1      39.021  15.291   6.180  0.00  0.00     0.150 HD
ENDBRANCH  73  79
BRANCH  75  82
HETATM   82  O   UNK N   1      37.579  11.853   7.854  0.00  0.00    -0.391 OA
HETATM   83  H   UNK N   1      37.820  11.166   7.211  0.00  0.00     0.210 HD
ENDBRANCH  75  82
ENDBRANCH  70  71
ENDBRANCH  65  70
BRANCH  66  84
HETATM   84  O   UNK N   1      34.459  18.144   6.825  0.00  0.00    -0.390 OA
HETATM   85  H   UNK N   1      34.959  18.948   6.613  0.00  0.00     0.210 HD
ENDBRANCH  66  84
BRANCH  67  86
HETATM   86  O   UNK N   1      33.231  16.377   9.656  0.00  0.00    -0.390 OA
HETATM   87  H   UNK N   1      32.993  15.473   9.912  0.00  0.00     0.210 HD
ENDBRANCH  67  86
BRANCH  68  88
HETATM   88  C   UNK N   1      30.804  18.210   8.706  0.00  0.00     0.198 C 
BRANCH  88  89
HETATM   89  O   UNK N   1      30.276  17.574   9.833  0.00  0.00    -0.398 OA
HETATM   90  H   UNK N   1      30.593  17.643  10.747  0.00  0.00     0.209 HD
ENDBRANCH  88  89
ENDBRANCH  68  88
ENDBRANCH  63  64
ENDBRANCH   1  63
BRANCH  10  91
HETATM   91  O   UNK N   1      23.336  15.905   5.039  0.00  0.00    -0.388 OA
HETATM   92  H   UNK N   1      23.150  16.857   5.061  0.00  0.00     0.210 HD
ENDBRANCH  10  91
BRANCH  32  93
HETATM   93  C   UNK N   1      25.197   9.795   2.807  0.00  0.00     0.137 C 
BRANCH  93  94
HETATM   94  C   UNK N   1      24.694   9.899   4.231  0.00  0.00     0.217 C 
HETATM   95  O   UNK N   1      25.377  10.451   5.079  0.00  0.00    -0.274 OA
HETATM   96  N   UNK N   1      23.488   9.400   4.575  0.00  0.00    -0.370 N 
HETATM   97  H   UNK N   1      22.625   9.322   4.109  0.00  0.00     0.159 HD
HETATM   98  H   UNK N   1      23.468   9.036   5.490  0.00  0.00     0.159 HD
ENDBRANCH  93  94
ENDBRANCH  32  93
BRANCH   9  99
HETATM   99  O   UNK N   1      36.938   9.115   3.056  0.00  0.00    -0.388 OA
HETATM  100  H   UNK N   1      37.409   9.644   2.394  0.00  0.00     0.210 HD
ENDBRANCH   9  99
BRANCH  25 101
HETATM  101  N   UNK N   1      22.476  14.285   3.101  0.00  0.00    -0.343 N 
HETATM  102  C   UNK N   1      21.663  14.616   2.077  0.00  0.00     0.240 C 
HETATM  103  O   UNK N   1      22.103  15.181   1.085  0.00  0.00    -0.271 OA
HETATM  104  H   UNK N   1      22.116  13.814   3.886  0.00  0.00     0.163 HD
BRANCH 102 105
HETATM  105  C   UNK N   1      20.221  14.262   2.150  0.00  0.00     0.169 C 
BRANCH 105 106
HETATM  106  C   UNK N   1      19.655  14.292   0.739  0.00  0.00     0.038 C 
BRANCH 106 107
HETATM  107  C   UNK N   1      18.433  13.393   0.671  0.00  0.00    -0.020 C 
HETATM  108  C   UNK N   1      17.396  14.036  -0.226  0.00  0.00     0.009 C 
HETATM  109  C   UNK N   1      18.808  12.031   0.124  0.00  0.00     0.009 C 
ENDBRANCH 106 107
ENDBRANCH 105 106
BRANCH 105 110
HETATM  110  N   UNK N   1      19.520  15.228   2.990  0.00  0.00    -0.413 N 
HETATM  111  C   UNK N   1      19.127  14.566   4.228  0.00  0.00     0.140 C 
HETATM  112  H   UNK N   1      19.336  16.202   2.751  0.00  0.00     0.153 HD
ENDBRANCH 105 110
ENDBRANCH 102 105
ENDBRANCH  25 101
BRANCH  47 113
HETATM  113  O   UNK N   1      28.687   4.496   1.528  0.00  0.00    -0.360 OA
HETATM  114  H   UNK N   1      29.058   3.641   1.628  0.00  0.00     0.217 HD
ENDBRANCH  47 113
BRANCH  43 115
HETATM  115  C   UNK N   1      35.258   5.437   3.137  0.00  0.00     0.168 C 
HETATM  116  O   UNK N   1      35.308   5.125   4.316  0.00  0.00    -0.648 OA
BRANCH 115 117
HETATM  117  O   UNK N   1      36.398   5.568   2.433  0.00  0.00    -0.775 OA
HETATM  118  H   UNK N   1      37.209   5.097   2.437  0.00  0.00     0.167 HD
ENDBRANCH 115 117
ENDBRANCH  43 115
BRANCH  57 119
HETATM  119  O   UNK N   1      30.156   3.111   0.312  0.00  0.00    -0.360 OA
HETATM  120  H   UNK N   1      29.490   3.746   0.492  0.00  0.00     0.217 HD
ENDBRANCH  57 119
BRANCH  56 121
HETATM  121  O   UNK N   1      34.424   1.261   0.737  0.00  0.00    -0.361 OA
HETATM  122  H   UNK N   1      34.133   0.521   0.242  0.00  0.00     0.217 HD
ENDBRANCH  56 121
TORSDOF 24
ENDMDL
MODEL 6
REMARK VINA RESULT:      -7.9      2.385      3.594
REMARK  24 active torsions:
REMARK  status: ('A' for Active; 'I' for Inactive)
REMARK    1  A    between atoms: O_45  and  C_1 
REMARK    2  A    between atoms: C_9  and  O_23 
REMARK    3  A    between atoms: C_10  and  O_25 
REMARK    4  A    between atoms: C_26  and  O_37 
REMARK    5  A    between atoms: C_27  and  O_45 
REMARK    6  A    between atoms: C_28  and  O_40 
REMARK    7  A    between atoms: C_30  and  N_39 
REMARK    8  A    between atoms: C_31  and  O_41 
REMARK    9  A    between atoms: C_32  and  O_37 
REMARK   10  A    between atoms: C_33  and  C_46 
REMARK   11  A    between atoms: C_36  and  O_42 
REMARK   12  A    between atoms: C_46  and  O_47 
REMARK   13  A    between atoms: C_49  and  N_64 
REMARK   14  A    between atoms: C_56  and  C_60 
REMARK   15  A    between atoms: C_60  and  C_61 
REMARK       I    between atoms: C_61  and  N_62 
REMARK       I    between atoms: C_65  and  N_64 
REMARK   16  A    between atoms: C_66  and  C_65 
REMARK   17  A    between atoms: C_68  and  C_66 
REMARK   18  A    between atoms: C_66  and  N_69 
REMARK   19  A    between atoms: C_70  and  C_68 
REMARK   20  A    between atoms: C_81  and  O_83 
REMARK   21  A    between atoms: C_84  and  C_81 
REMARK   22  A    between atoms: O_93  and  C_88 
REMARK   23  A    between atoms: C_98  and  O_99 
REMARK   24  A    between atoms: C_100  and  O_101 
ROOT
HETATM    1  C   UNK N   1      28.974   9.282   3.140  0.00  0.00     0.139 C 
HETATM    2  C   UNK N   1      29.918   9.748   4.044  0.00  0.00     0.113 C 
HETATM    3  C   UNK N   1      28.126  10.197   2.516  0.00  0.00     0.113 C 
HETATM    4  C   UNK N   1      28.834  11.947   3.982  0.00  0.00    -0.021 C 
HETATM    5  C   UNK N   1      28.091  11.507   2.927  0.00  0.00     0.050 C 
HETATM    6  C   UNK N   1      29.775  11.099   4.533  0.00  0.00     0.050 C 
HETATM    7  O   UNK N   1      31.003   8.994   4.393  0.00  0.00    -0.306 OA
HETATM    8  O   UNK N   1      27.267   9.832   1.573  0.00  0.00    -0.306 OA
HETATM    9  C   UNK N   1      21.913  11.236   2.035  0.00  0.00     0.183 C 
HETATM   10  C   UNK N   1      33.703  12.664   7.138  0.00  0.00     0.183 C 
HETATM   11  C   UNK N   1      23.261  10.665   1.876  0.00  0.00    -0.025 A 
HETATM   12  C   UNK N   1      33.582  11.560   6.130  0.00  0.00    -0.025 C 
HETATM   13  C   UNK N   1      25.954  10.065   1.703  0.00  0.00     0.098 A 
HETATM   14  C   UNK N   1      32.129   9.659   4.761  0.00  0.00     0.098 C 
HETATM   15  C   UNK N   1      25.320  10.163   2.983  0.00  0.00     0.068 A 
HETATM   16  C   UNK N   1      32.862   9.255   5.870  0.00  0.00     0.068 C 
HETATM   17  C   UNK N   1      33.549  10.232   6.588  0.00  0.00     0.036 C 
HETATM   18  C   UNK N   1      33.097  11.865   4.864  0.00  0.00     0.012 C 
HETATM   19  C   UNK N   1      23.855  10.511   0.620  0.00  0.00     0.012 A 
HETATM   20  C   UNK N   1      25.204  10.199   0.540  0.00  0.00     0.040 A 
HETATM   21  C   UNK N   1      32.405  10.911   4.166  0.00  0.00     0.040 C 
HETATM   22 Cl   UNK N   1      32.691   7.648   6.545  0.00  0.00    -0.081 Cl
HETATM   23 Cl   UNK N   1      26.083   9.929   4.564  0.00  0.00    -0.081 Cl
HETATM   24  C   UNK N   1      23.991  10.462   3.032  0.00  0.00     0.036 A 
HETATM   25  C   UNK N   1      33.914  14.049   6.520  0.00  0.00     0.210 C 
HETATM   26  N   UNK N   1      29.328  14.084   5.354  0.00  0.00    -0.342 N 
HETATM   27  C   UNK N   1      32.768  14.774   5.857  0.00  0.00     0.244 C 
HETATM   28  C   UNK N   1      27.273  13.941   3.899  0.00  0.00     0.246 C 
HETATM   29  N   UNK N   1      31.731  15.306   6.569  0.00  0.00    -0.345 N 
HETATM   30  C   UNK N   1      28.509  13.318   4.451  0.00  0.00     0.210 C 
HETATM   31  C   UNK N   1      29.974  15.194   4.920  0.00  0.00     0.241 C 
HETATM   32  C   UNK N   1      30.701  16.071   5.883  0.00  0.00     0.185 C 
HETATM   33  O   UNK N   1      32.838  14.966   4.651  0.00  0.00    -0.271 OA
HETATM   34  O   UNK N   1      27.360  14.863   3.100  0.00  0.00    -0.271 OA
HETATM   35  O   UNK N   1      29.978  15.487   3.734  0.00  0.00    -0.271 OA
HETATM   36  C   UNK N   1      22.108  12.658   2.592  0.00  0.00     0.210 C 
HETATM   37  N   UNK N   1      26.066  13.422   4.249  0.00  0.00    -0.342 N 
HETATM   38  C   UNK N   1      24.793  13.942   3.789  0.00  0.00     0.210 C 
HETATM   39  O   UNK N   1      23.304  13.555   0.754  0.00  0.00    -0.271 OA
HETATM   40  N   UNK N   1      22.541  12.725   3.985  0.00  0.00    -0.343 N 
HETATM   41  C   UNK N   1      23.676  13.240   4.554  0.00  0.00     0.245 C 
HETATM   42  O   UNK N   1      23.771  13.195   5.771  0.00  0.00    -0.271 OA
HETATM   43  C   UNK N   1      21.051  15.353   2.858  0.00  0.00     0.217 C 
HETATM   44  N   UNK N   1      21.969  15.014   1.783  0.00  0.00    -0.341 N 
HETATM   45  C   UNK N   1      22.512  13.774   1.656  0.00  0.00     0.244 C 
HETATM   46  C   UNK N   1      23.216  17.350   3.985  0.00  0.00     0.011 A 
HETATM   47  C   UNK N   1      24.170  18.067   4.791  0.00  0.00     0.076 A 
HETATM   48  C   UNK N   1      24.674  15.404   4.120  0.00  0.00    -0.025 A 
HETATM   49  C   UNK N   1      23.539  16.040   3.698  0.00  0.00     0.025 A 
HETATM   50  C   UNK N   1      25.348  17.437   5.210  0.00  0.00     0.038 A 
HETATM   51  C   UNK N   1      25.598  16.112   4.887  0.00  0.00     0.012 A 
HETATM   52  C   UNK N   1      20.851  16.871   2.967  0.00  0.00    -0.009 A 
HETATM   53  C   UNK N   1      19.589  17.343   2.590  0.00  0.00     0.047 A 
HETATM   54  C   UNK N   1      20.198  19.599   3.070  0.00  0.00     0.074 A 
HETATM   55  C   UNK N   1      21.847  17.823   3.469  0.00  0.00     0.019 A 
HETATM   56  C   UNK N   1      19.260  18.679   2.652  0.00  0.00     0.069 A 
HETATM   57  C   UNK N   1      21.471  19.205   3.467  0.00  0.00     0.080 A 
HETATM   58  H   UNK N   1      29.419  13.800   6.292  0.00  0.00     0.163 HD
HETATM   59  H   UNK N   1      31.681  15.173   7.543  0.00  0.00     0.163 HD
HETATM   60  H   UNK N   1      26.056  12.645   4.854  0.00  0.00     0.163 HD
HETATM   61  H   UNK N   1      21.907  12.331   4.627  0.00  0.00     0.163 HD
HETATM   62  H   UNK N   1      22.206  15.706   1.125  0.00  0.00     0.163 HD
ENDROOT
BRANCH   1  63
HETATM   63  O   UNK N   1      28.858   7.948   2.892  0.00  0.00    -0.312 OA
BRANCH  63  64
HETATM   64  C   UNK N   1      28.308   7.100   3.837  0.00  0.00     0.298 C 
HETATM   65  C   UNK N   1      29.274   6.079   4.385  0.00  0.00     0.211 C 
HETATM   66  C   UNK N   1      29.251   6.095   5.936  0.00  0.00     0.183 C 
HETATM   67  C   UNK N   1      27.803   5.885   6.393  0.00  0.00     0.180 C 
HETATM   68  C   UNK N   1      26.828   6.641   5.469  0.00  0.00     0.179 C 
HETATM   69  O   UNK N   1      27.471   7.719   4.808  0.00  0.00    -0.348 OA
BRANCH  65  70
HETATM   70  O   UNK N   1      30.496   6.055   3.676  0.00  0.00    -0.348 OA
BRANCH  70  71
HETATM   71  C   UNK N   1      30.771   4.729   3.354  0.00  0.00     0.263 C 
HETATM   72  C   UNK N   1      29.533   3.845   3.196  0.00  0.00     0.093 C 
HETATM   73  C   UNK N   1      29.865   2.330   3.315  0.00  0.00     0.052 C 
HETATM   74  C   UNK N   1      28.991   1.824   4.453  0.00  0.00     0.041 C 
HETATM   75  C   UNK N   1      31.380   1.975   3.566  0.00  0.00     0.174 C 
HETATM   76  C   UNK N   1      32.262   3.220   3.558  0.00  0.00     0.151 C 
HETATM   77  O   UNK N   1      31.637   4.207   4.300  0.00  0.00    -0.354 OA
HETATM   78  C   UNK N   1      33.689   3.015   4.027  0.00  0.00     0.042 C 
BRANCH  73  79
HETATM   79  N   UNK N   1      29.440   1.656   2.103  0.00  0.00    -0.420 N 
HETATM   80  H   UNK N   1      28.658   1.176   1.656  0.00  0.00     0.150 HD
HETATM   81  H   UNK N   1      30.221   1.666   1.446  0.00  0.00     0.150 HD
ENDBRANCH  73  79
BRANCH  75  82
HETATM   82  O   UNK N   1      31.571   1.261   4.752  0.00  0.00    -0.391 OA
HETATM   83  H   UNK N   1      30.944   1.200   5.491  0.00  0.00     0.210 HD
ENDBRANCH  75  82
ENDBRANCH  70  71
ENDBRANCH  65  70
BRANCH  66  84
HETATM   84  O   UNK N   1      29.645   7.353   6.409  0.00  0.00    -0.390 OA
HETATM   85  H   UNK N   1      30.077   8.215   6.303  0.00  0.00     0.210 HD
ENDBRANCH  66  84
BRANCH  67  86
HETATM   86  O   UNK N   1      27.489   4.526   6.369  0.00  0.00    -0.390 OA
HETATM   87  H   UNK N   1      27.696   3.666   6.766  0.00  0.00     0.210 HD
ENDBRANCH  67  86
BRANCH  68  88
HETATM   88  C   UNK N   1      25.552   7.049   6.194  0.00  0.00     0.198 C 
BRANCH  88  89
HETATM   89  O   UNK N   1      25.746   6.979   7.577  0.00  0.00    -0.398 OA
HETATM   90  H   UNK N   1      26.517   6.619   8.042  0.00  0.00     0.209 HD
ENDBRANCH  88  89
ENDBRANCH  68  88
ENDBRANCH  63  64
ENDBRANCH   1  63
BRANCH  10  91
HETATM   91  O   UNK N   1      34.677  12.349   8.086  0.00  0.00    -0.388 OA
HETATM   92  H   UNK N   1      35.066  12.939   8.750  0.00  0.00     0.210 HD
ENDBRANCH  10  91
BRANCH  32  93
HETATM   93  C   UNK N   1      29.713  16.768   6.820  0.00  0.00     0.137 C 
BRANCH  93  94
HETATM   94  C   UNK N   1      30.409  17.223   8.085  0.00  0.00     0.217 C 
HETATM   95  O   UNK N   1      31.514  17.735   8.020  0.00  0.00    -0.274 OA
HETATM   96  N   UNK N   1      29.815  17.082   9.288  0.00  0.00    -0.370 N 
HETATM   97  H   UNK N   1      28.882  17.130   9.597  0.00  0.00     0.159 HD
HETATM   98  H   UNK N   1      30.453  16.890  10.013  0.00  0.00     0.159 HD
ENDBRANCH  93  94
ENDBRANCH  32  93
BRANCH   9  99
HETATM   99  O   UNK N   1      21.218  11.269   0.823  0.00  0.00    -0.388 OA
HETATM  100  H   UNK N   1      21.077  11.930   0.128  0.00  0.00     0.210 HD
ENDBRANCH   9  99
BRANCH  25 101
HETATM  101  N   UNK N   1      34.603  14.927   7.405  0.00  0.00    -0.343 N 
HETATM  102  C   UNK N   1      34.079  15.198   8.618  0.00  0.00     0.240 C 
HETATM  103  O   UNK N   1      33.030  14.679   8.977  0.00  0.00    -0.271 OA
HETATM  104  H   UNK N   1      35.457  15.334   7.133  0.00  0.00     0.163 HD
BRANCH 102 105
HETATM  105  C   UNK N   1      34.804  16.115   9.535  0.00  0.00     0.169 C 
BRANCH 105 106
HETATM  106  C   UNK N   1      34.746  15.526  10.936  0.00  0.00     0.038 C 
BRANCH 106 107
HETATM  107  C   UNK N   1      36.160  15.271  11.431  0.00  0.00    -0.020 C 
HETATM  108  C   UNK N   1      36.095  14.655  12.812  0.00  0.00     0.009 C 
HETATM  109  C   UNK N   1      36.890  14.339  10.488  0.00  0.00     0.009 C 
ENDBRANCH 106 107
ENDBRANCH 105 106
BRANCH 105 110
HETATM  110  N   UNK N   1      34.168  17.428   9.520  0.00  0.00    -0.413 N 
HETATM  111  C   UNK N   1      34.725  18.200   8.416  0.00  0.00     0.140 C 
HETATM  112  H   UNK N   1      33.454  17.752  10.171  0.00  0.00     0.153 HD
ENDBRANCH 105 110
ENDBRANCH 102 105
ENDBRANCH  25 101
BRANCH  47 113
HETATM  113  O   UNK N   1      23.977  19.311   5.231  0.00  0.00    -0.360 OA
HETATM  114  H   UNK N   1      23.416  19.898   4.762  0.00  0.00     0.217 HD
ENDBRANCH  47 113
BRANCH  43 115
HETATM  115  C   UNK N   1      19.785  14.538   2.721  0.00  0.00     0.168 C 
HETATM  116  O   UNK N   1      19.356  13.922   3.683  0.00  0.00    -0.648 OA
BRANCH 115 117
HETATM  117  O   UNK N   1      19.157  14.444   1.534  0.00  0.00    -0.775 OA
HETATM  118  H   UNK N   1      18.381  14.841   1.189  0.00  0.00     0.167 HD
ENDBRANCH 115 117
ENDBRANCH  43 115
BRANCH  57 119
HETATM  119  O   UNK N   1      22.313  20.183   3.807  0.00  0.00    -0.360 OA
HETATM  120  H   UNK N   1      22.057  20.845   4.419  0.00  0.00     0.217 HD
ENDBRANCH  57 119
BRANCH  56 121
HETATM  121  O   UNK N   1      18.031  19.082   2.297  0.00  0.00    -0.361 OA
HETATM  122  H   UNK N   1      17.525  19.611   2.881  0.00  0.00     0.217 HD
ENDBRANCH  56 121
TORSDOF 24
ENDMDL
MODEL 7
REMARK VINA RESULT:      -7.9      4.796     12.604
REMARK  24 active torsions:
REMARK  status: ('A' for Active; 'I' for Inactive)
REMARK    1  A    between atoms: O_45  and  C_1 
REMARK    2  A    between atoms: C_9  and  O_23 
REMARK    3  A    between atoms: C_10  and  O_25 
REMARK    4  A    between atoms: C_26  and  O_37 
REMARK    5  A    between atoms: C_27  and  O_45 
REMARK    6  A    between atoms: C_28  and  O_40 
REMARK    7  A    between atoms: C_30  and  N_39 
REMARK    8  A    between atoms: C_31  and  O_41 
REMARK    9  A    between atoms: C_32  and  O_37 
REMARK   10  A    between atoms: C_33  and  C_46 
REMARK   11  A    between atoms: C_36  and  O_42 
REMARK   12  A    between atoms: C_46  and  O_47 
REMARK   13  A    between atoms: C_49  and  N_64 
REMARK   14  A    between atoms: C_56  and  C_60 
REMARK   15  A    between atoms: C_60  and  C_61 
REMARK       I    between atoms: C_61  and  N_62 
REMARK       I    between atoms: C_65  and  N_64 
REMARK   16  A    between atoms: C_66  and  C_65 
REMARK   17  A    between atoms: C_68  and  C_66 
REMARK   18  A    between atoms: C_66  and  N_69 
REMARK   19  A    between atoms: C_70  and  C_68 
REMARK   20  A    between atoms: C_81  and  O_83 
REMARK   21  A    between atoms: C_84  and  C_81 
REMARK   22  A    between atoms: O_93  and  C_88 
REMARK   23  A    between atoms: C_98  and  O_99 
REMARK   24  A    between atoms: C_100  and  O_101 
ROOT
HETATM    1  C   UNK N   1      36.480  14.253   6.762  0.00  0.00     0.139 C 
HETATM    2  C   UNK N   1      35.209  14.689   7.109  0.00  0.00     0.113 C 
HETATM    3  C   UNK N   1      36.785  14.059   5.415  0.00  0.00     0.113 C 
HETATM    4  C   UNK N   1      34.488  14.296   4.798  0.00  0.00    -0.021 C 
HETATM    5  C   UNK N   1      35.796  14.110   4.463  0.00  0.00     0.050 C 
HETATM    6  C   UNK N   1      34.175  14.619   6.104  0.00  0.00     0.050 C 
HETATM    7  O   UNK N   1      34.957  15.256   8.327  0.00  0.00    -0.306 OA
HETATM    8  O   UNK N   1      38.006  13.736   5.008  0.00  0.00    -0.306 OA
HETATM    9  C   UNK N   1      38.728   9.335   1.697  0.00  0.00     0.183 C 
HETATM   10  C   UNK N   1      29.988  16.934   7.440  0.00  0.00     0.183 C 
HETATM   11  C   UNK N   1      38.692  10.418   2.695  0.00  0.00    -0.025 A 
HETATM   12  C   UNK N   1      31.393  17.098   7.940  0.00  0.00    -0.025 C 
HETATM   13  C   UNK N   1      38.226  12.624   4.294  0.00  0.00     0.098 A 
HETATM   14  C   UNK N   1      33.943  16.157   8.395  0.00  0.00     0.098 C 
HETATM   15  C   UNK N   1      37.384  11.471   4.397  0.00  0.00     0.068 A 
HETATM   16  C   UNK N   1      33.032  16.123   9.443  0.00  0.00     0.068 C 
HETATM   17  C   UNK N   1      31.730  16.549   9.189  0.00  0.00     0.036 C 
HETATM   18  C   UNK N   1      32.395  17.398   7.025  0.00  0.00     0.012 C 
HETATM   19  C   UNK N   1      39.558  11.513   2.630  0.00  0.00     0.012 A 
HETATM   20  C   UNK N   1      39.326  12.613   3.442  0.00  0.00     0.040 A 
HETATM   21  C   UNK N   1      33.671  16.962   7.265  0.00  0.00     0.040 C 
HETATM   22 Cl   UNK N   1      33.390  15.288  10.941  0.00  0.00    -0.081 Cl
HETATM   23 Cl   UNK N   1      36.004  11.262   5.486  0.00  0.00    -0.081 Cl
HETATM   24  C   UNK N   1      37.641  10.401   3.592  0.00  0.00     0.036 A 
HETATM   25  C   UNK N   1      29.687  17.724   6.164  0.00  0.00     0.210 C 
HETATM   26  N   UNK N   1      32.137  14.486   3.734  0.00  0.00    -0.342 N 
HETATM   27  C   UNK N   1      30.221  17.259   4.830  0.00  0.00     0.244 C 
HETATM   28  C   UNK N   1      34.049  13.470   2.443  0.00  0.00     0.246 C 
HETATM   29  N   UNK N   1      29.737  16.151   4.197  0.00  0.00    -0.345 N 
HETATM   30  C   UNK N   1      33.520  14.088   3.690  0.00  0.00     0.210 C 
HETATM   31  C   UNK N   1      31.686  15.487   2.940  0.00  0.00     0.241 C 
HETATM   32  C   UNK N   1      30.229  15.802   2.873  0.00  0.00     0.185 C 
HETATM   33  O   UNK N   1      31.046  17.967   4.270  0.00  0.00    -0.271 OA
HETATM   34  O   UNK N   1      34.172  14.146   1.432  0.00  0.00    -0.271 OA
HETATM   35  O   UNK N   1      32.465  16.152   2.275  0.00  0.00    -0.271 OA
HETATM   36  C   UNK N   1      37.488   9.530   0.803  0.00  0.00     0.210 C 
HETATM   37  N   UNK N   1      34.451  12.171   2.476  0.00  0.00    -0.342 N 
HETATM   38  C   UNK N   1      34.975  11.452   1.331  0.00  0.00     0.210 C 
HETATM   39  O   UNK N   1      38.066  11.651  -0.080  0.00  0.00    -0.271 OA
HETATM   40  N   UNK N   1      36.212   9.205   1.434  0.00  0.00    -0.343 N 
HETATM   41  C   UNK N   1      35.115   9.980   1.702  0.00  0.00     0.245 C 
HETATM   42  O   UNK N   1      34.148   9.437   2.216  0.00  0.00    -0.271 OA
HETATM   43  C   UNK N   1      36.243   9.102  -1.789  0.00  0.00     0.217 C 
HETATM   44  N   UNK N   1      36.953  10.337  -1.496  0.00  0.00    -0.341 N 
HETATM   45  C   UNK N   1      37.510  10.583  -0.281  0.00  0.00     0.244 C 
HETATM   46  C   UNK N   1      33.593  10.781  -2.102  0.00  0.00     0.011 A 
HETATM   47  C   UNK N   1      32.266  11.330  -1.994  0.00  0.00     0.076 A 
HETATM   48  C   UNK N   1      34.000  11.506   0.188  0.00  0.00    -0.025 A 
HETATM   49  C   UNK N   1      34.386  10.909  -0.981  0.00  0.00     0.025 A 
HETATM   50  C   UNK N   1      31.863  11.966  -0.813  0.00  0.00     0.038 A 
HETATM   51  C   UNK N   1      32.717  12.047   0.276  0.00  0.00     0.012 A 
HETATM   52  C   UNK N   1      35.440   9.212  -3.092  0.00  0.00    -0.009 A 
HETATM   53  C   UNK N   1      35.919   8.451  -4.163  0.00  0.00     0.047 A 
HETATM   54  C   UNK N   1      34.170   9.212  -5.596  0.00  0.00     0.074 A 
HETATM   55  C   UNK N   1      34.217  10.001  -3.270  0.00  0.00     0.019 A 
HETATM   56  C   UNK N   1      35.292   8.437  -5.389  0.00  0.00     0.069 A 
HETATM   57  C   UNK N   1      33.631   9.989  -4.576  0.00  0.00     0.080 A 
HETATM   58  H   UNK N   1      31.516  14.027   4.345  0.00  0.00     0.163 HD
HETATM   59  H   UNK N   1      29.057  15.588   4.634  0.00  0.00     0.163 HD
HETATM   60  H   UNK N   1      34.381  11.688   3.331  0.00  0.00     0.163 HD
HETATM   61  H   UNK N   1      36.125   8.266   1.716  0.00  0.00     0.163 HD
HETATM   62  H   UNK N   1      37.033  11.018  -2.202  0.00  0.00     0.163 HD
ENDROOT
BRANCH   1  63
HETATM   63  O   UNK N   1      37.404  13.990   7.727  0.00  0.00    -0.312 OA
BRANCH  63  64
HETATM   64  C   UNK N   1      37.335  12.824   8.469  0.00  0.00     0.298 C 
HETATM   65  C   UNK N   1      38.680  12.235   8.816  0.00  0.00     0.211 C 
HETATM   66  C   UNK N   1      38.763  11.941  10.337  0.00  0.00     0.183 C 
HETATM   67  C   UNK N   1      37.578  11.043  10.714  0.00  0.00     0.180 C 
HETATM   68  C   UNK N   1      36.311  11.468   9.945  0.00  0.00     0.179 C 
HETATM   69  O   UNK N   1      36.386  12.822   9.530  0.00  0.00    -0.348 OA
BRANCH  65  70
HETATM   70  O   UNK N   1      39.742  12.876   8.140  0.00  0.00    -0.348 OA
BRANCH  70  71
HETATM   71  C   UNK N   1      40.520  11.888   7.542  0.00  0.00     0.263 C 
HETATM   72  C   UNK N   1      39.727  10.701   6.994  0.00  0.00     0.093 C 
HETATM   73  C   UNK N   1      40.614   9.441   6.781  0.00  0.00     0.052 C 
HETATM   74  C   UNK N   1      39.958   8.353   7.620  0.00  0.00     0.041 C 
HETATM   75  C   UNK N   1      42.137   9.601   7.151  0.00  0.00     0.174 C 
HETATM   76  C   UNK N   1      42.469  11.027   7.579  0.00  0.00     0.151 C 
HETATM   77  O   UNK N   1      41.483  11.468   8.445  0.00  0.00    -0.354 OA
HETATM   78  C   UNK N   1      43.846  11.225   8.183  0.00  0.00     0.042 C 
BRANCH  73  79
HETATM   79  N   UNK N   1      40.529   9.033   5.392  0.00  0.00    -0.420 N 
HETATM   80  H   UNK N   1      41.054   8.626   4.618  0.00  0.00     0.150 HD
HETATM   81  H   UNK N   1      39.583   9.227   5.063  0.00  0.00     0.150 HD
ENDBRANCH  73  79
BRANCH  75  82
HETATM   82  O   UNK N   1      42.542   8.698   8.139  0.00  0.00    -0.391 OA
HETATM   83  H   UNK N   1      41.961   8.220   8.752  0.00  0.00     0.210 HD
ENDBRANCH  75  82
ENDBRANCH  70  71
ENDBRANCH  65  70
BRANCH  66  84
HETATM   84  O   UNK N   1      38.617  13.129  11.064  0.00  0.00    -0.390 OA
HETATM   85  H   UNK N   1      38.401  14.072  11.136  0.00  0.00     0.210 HD
ENDBRANCH  66  84
BRANCH  67  86
HETATM   86  O   UNK N   1      37.872   9.715  10.407  0.00  0.00    -0.390 OA
HETATM   87  H   UNK N   1      38.137   9.115   9.693  0.00  0.00     0.210 HD
ENDBRANCH  67  86
BRANCH  68  88
HETATM   88  C   UNK N   1      35.038  11.138  10.713  0.00  0.00     0.198 C 
BRANCH  88  89
HETATM   89  O   UNK N   1      34.620  12.255  11.445  0.00  0.00    -0.398 OA
HETATM   90  H   UNK N   1      33.778  12.366  11.912  0.00  0.00     0.209 HD
ENDBRANCH  88  89
ENDBRANCH  68  88
ENDBRANCH  63  64
ENDBRANCH   1  63
BRANCH  10  91
HETATM   91  O   UNK N   1      29.076  17.202   8.461  0.00  0.00    -0.388 OA
HETATM   92  H   UNK N   1      29.262  17.582   9.333  0.00  0.00     0.210 HD
ENDBRANCH  10  91
BRANCH  32  93
HETATM   93  C   UNK N   1      29.466  14.657   2.204  0.00  0.00     0.137 C 
BRANCH  93  94
HETATM   94  C   UNK N   1      28.652  13.891   3.226  0.00  0.00     0.217 C 
HETATM   95  O   UNK N   1      29.214  13.317   4.144  0.00  0.00    -0.274 OA
HETATM   96  N   UNK N   1      27.307  13.845   3.142  0.00  0.00    -0.370 N 
HETATM   97  H   UNK N   1      26.620  14.485   2.841  0.00  0.00     0.159 HD
HETATM   98  H   UNK N   1      26.930  12.988   3.446  0.00  0.00     0.159 HD
ENDBRANCH  93  94
ENDBRANCH  32  93
BRANCH   9  99
HETATM   99  O   UNK N   1      39.899   9.373   0.935  0.00  0.00    -0.388 OA
HETATM  100  H   UNK N   1      40.786   8.990   1.017  0.00  0.00     0.210 HD
ENDBRANCH   9  99
BRANCH  25 101
HETATM  101  N   UNK N   1      28.304  18.047   6.052  0.00  0.00    -0.343 N 
HETATM  102  C   UNK N   1      27.935  19.194   5.445  0.00  0.00     0.240 C 
HETATM  103  O   UNK N   1      28.772  19.949   4.968  0.00  0.00    -0.271 OA
HETATM  104  H   UNK N   1      27.622  17.438   6.414  0.00  0.00     0.163 HD
BRANCH 102 105
HETATM  105  C   UNK N   1      26.490  19.524   5.331  0.00  0.00     0.169 C 
BRANCH 105 106
HETATM  106  C   UNK N   1      26.311  20.468   4.153  0.00  0.00     0.038 C 
BRANCH 106 107
HETATM  107  C   UNK N   1      25.392  19.824   3.129  0.00  0.00    -0.020 C 
HETATM  108  C   UNK N   1      25.197  18.367   3.491  0.00  0.00     0.009 C 
HETATM  109  C   UNK N   1      24.053  20.529   3.103  0.00  0.00     0.009 C 
ENDBRANCH 106 107
ENDBRANCH 105 106
BRANCH 105 110
HETATM  110  N   UNK N   1      26.036  20.168   6.560  0.00  0.00    -0.413 N 
HETATM  111  C   UNK N   1      26.333  21.592   6.473  0.00  0.00     0.140 C 
HETATM  112  H   UNK N   1      25.585  19.701   7.346  0.00  0.00     0.153 HD
ENDBRANCH 105 110
ENDBRANCH 102 105
ENDBRANCH  25 101
BRANCH  47 113
HETATM  113  O   UNK N   1      31.341  11.219  -2.950  0.00  0.00    -0.360 OA
HETATM  114  H   UNK N   1      31.594  11.029  -3.832  0.00  0.00     0.217 HD
ENDBRANCH  47 113
BRANCH  43 115
HETATM  115  C   UNK N   1      37.200   7.934  -1.711  0.00  0.00     0.168 C 
HETATM  116  O   UNK N   1      38.329   8.048  -2.159  0.00  0.00    -0.648 OA
BRANCH 115 117
HETATM  117  O   UNK N   1      36.801   6.755  -1.198  0.00  0.00    -0.775 OA
HETATM  118  H   UNK N   1      36.092   6.512  -0.635  0.00  0.00     0.167 HD
ENDBRANCH 115 117
ENDBRANCH  43 115
BRANCH  57 119
HETATM  119  O   UNK N   1      32.573  10.737  -4.900  0.00  0.00    -0.360 OA
HETATM  120  H   UNK N   1      32.041  11.127  -4.235  0.00  0.00     0.217 HD
ENDBRANCH  57 119
BRANCH  56 121
HETATM  121  O   UNK N   1      35.778   7.677  -6.381  0.00  0.00    -0.361 OA
HETATM  122  H   UNK N   1      35.452   7.779  -7.253  0.00  0.00     0.217 HD
ENDBRANCH  56 121
TORSDOF 24
ENDMDL
MODEL 8
REMARK VINA RESULT:      -7.8      3.054      9.414
REMARK  24 active torsions:
REMARK  status: ('A' for Active; 'I' for Inactive)
REMARK    1  A    between atoms: O_45  and  C_1 
REMARK    2  A    between atoms: C_9  and  O_23 
REMARK    3  A    between atoms: C_10  and  O_25 
REMARK    4  A    between atoms: C_26  and  O_37 
REMARK    5  A    between atoms: C_27  and  O_45 
REMARK    6  A    between atoms: C_28  and  O_40 
REMARK    7  A    between atoms: C_30  and  N_39 
REMARK    8  A    between atoms: C_31  and  O_41 
REMARK    9  A    between atoms: C_32  and  O_37 
REMARK   10  A    between atoms: C_33  and  C_46 
REMARK   11  A    between atoms: C_36  and  O_42 
REMARK   12  A    between atoms: C_46  and  O_47 
REMARK   13  A    between atoms: C_49  and  N_64 
REMARK   14  A    between atoms: C_56  and  C_60 
REMARK   15  A    between atoms: C_60  and  C_61 
REMARK       I    between atoms: C_61  and  N_62 
REMARK       I    between atoms: C_65  and  N_64 
REMARK   16  A    between atoms: C_66  and  C_65 
REMARK   17  A    between atoms: C_68  and  C_66 
REMARK   18  A    between atoms: C_66  and  N_69 
REMARK   19  A    between atoms: C_70  and  C_68 
REMARK   20  A    between atoms: C_81  and  O_83 
REMARK   21  A    between atoms: C_84  and  C_81 
REMARK   22  A    between atoms: O_93  and  C_88 
REMARK   23  A    between atoms: C_98  and  O_99 
REMARK   24  A    between atoms: C_100  and  O_101 
ROOT
HETATM    1  C   UNK N   1      31.469  14.722   3.833  0.00  0.00     0.139 C 
HETATM    2  C   UNK N   1      32.092  14.037   2.801  0.00  0.00     0.113 C 
HETATM    3  C   UNK N   1      30.236  14.267   4.300  0.00  0.00     0.113 C 
HETATM    4  C   UNK N   1      30.032  12.749   2.465  0.00  0.00    -0.021 C 
HETATM    5  C   UNK N   1      29.559  13.279   3.629  0.00  0.00     0.050 C 
HETATM    6  C   UNK N   1      31.306  13.086   2.051  0.00  0.00     0.050 C 
HETATM    7  O   UNK N   1      33.429  14.179   2.555  0.00  0.00    -0.306 OA
HETATM    8  O   UNK N   1      29.632  14.818   5.346  0.00  0.00    -0.306 OA
HETATM    9  C   UNK N   1      24.354  16.494   4.903  0.00  0.00     0.183 C 
HETATM   10  C   UNK N   1      34.022  10.303  -1.039  0.00  0.00     0.183 C 
HETATM   11  C   UNK N   1      25.792  16.244   5.102  0.00  0.00    -0.025 A 
HETATM   12  C   UNK N   1      34.424  11.077   0.182  0.00  0.00    -0.025 C 
HETATM   13  C   UNK N   1      28.396  15.325   5.243  0.00  0.00     0.098 A 
HETATM   14  C   UNK N   1      34.074  13.123   1.994  0.00  0.00     0.098 C 
HETATM   15  C   UNK N   1      27.879  15.833   4.009  0.00  0.00     0.068 A 
HETATM   16  C   UNK N   1      34.976  13.312   0.954  0.00  0.00     0.068 C 
HETATM   17  C   UNK N   1      35.106  12.294   0.012  0.00  0.00     0.036 C 
HETATM   18  C   UNK N   1      33.777  10.810   1.382  0.00  0.00     0.012 C 
HETATM   19  C   UNK N   1      26.305  15.808   6.326  0.00  0.00     0.012 A 
HETATM   20  C   UNK N   1      27.615  15.358   6.394  0.00  0.00     0.040 A 
HETATM   21  C   UNK N   1      33.633  11.815   2.301  0.00  0.00     0.040 C 
HETATM   22 Cl   UNK N   1      35.694  14.878   0.638  0.00  0.00    -0.081 Cl
HETATM   23 Cl   UNK N   1      28.747  15.963   2.470  0.00  0.00    -0.081 Cl
HETATM   24  C   UNK N   1      26.590  16.277   3.973  0.00  0.00     0.036 A 
HETATM   25  C   UNK N   1      33.455   8.914  -0.735  0.00  0.00     0.210 C 
HETATM   26  N   UNK N   1      29.440  10.999   0.654  0.00  0.00    -0.342 N 
HETATM   27  C   UNK N   1      32.062   8.761  -0.173  0.00  0.00     0.244 C 
HETATM   28  C   UNK N   1      27.668  11.872   2.220  0.00  0.00     0.246 C 
HETATM   29  N   UNK N   1      30.944   8.997  -0.921  0.00  0.00    -0.345 N 
HETATM   30  C   UNK N   1      29.078  11.871   1.741  0.00  0.00     0.210 C 
HETATM   31  C   UNK N   1      29.398   9.654   0.812  0.00  0.00     0.241 C 
HETATM   32  C   UNK N   1      29.628   8.748  -0.352  0.00  0.00     0.185 C 
HETATM   33  O   UNK N   1      31.951   8.316   0.961  0.00  0.00    -0.271 OA
HETATM   34  O   UNK N   1      27.221  10.896   2.804  0.00  0.00    -0.271 OA
HETATM   35  O   UNK N   1      29.180   9.162   1.908  0.00  0.00    -0.271 OA
HETATM   36  C   UNK N   1      23.825  15.324   4.053  0.00  0.00     0.210 C 
HETATM   37  N   UNK N   1      26.921  12.997   2.054  0.00  0.00    -0.342 N 
HETATM   38  C   UNK N   1      25.537  13.124   2.467  0.00  0.00     0.210 C 
HETATM   39  O   UNK N   1      24.279  13.584   5.595  0.00  0.00    -0.271 OA
HETATM   40  N   UNK N   1      24.245  15.334   2.655  0.00  0.00    -0.343 N 
HETATM   41  C   UNK N   1      24.986  14.440   1.929  0.00  0.00     0.245 C 
HETATM   42  O   UNK N   1      25.164  14.679   0.744  0.00  0.00    -0.271 OA
HETATM   43  C   UNK N   1      21.553  13.678   3.293  0.00  0.00     0.217 C 
HETATM   44  N   UNK N   1      22.449  13.266   4.362  0.00  0.00    -0.341 N 
HETATM   45  C   UNK N   1      23.542  13.994   4.713  0.00  0.00     0.244 C 
HETATM   46  C   UNK N   1      22.449  11.135   1.657  0.00  0.00     0.011 A 
HETATM   47  C   UNK N   1      22.947  10.215   0.667  0.00  0.00     0.076 A 
HETATM   48  C   UNK N   1      24.705  12.035   1.847  0.00  0.00    -0.025 A 
HETATM   49  C   UNK N   1      23.381  12.001   2.190  0.00  0.00     0.025 A 
HETATM   50  C   UNK N   1      24.304  10.221   0.322  0.00  0.00     0.038 A 
HETATM   51  C   UNK N   1      25.178  11.129   0.899  0.00  0.00     0.012 A 
HETATM   52  C   UNK N   1      20.609  12.538   2.882  0.00  0.00    -0.009 A 
HETATM   53  C   UNK N   1      19.264  12.716   3.223  0.00  0.00     0.047 A 
HETATM   54  C   UNK N   1      18.657  10.623   2.253  0.00  0.00     0.074 A 
HETATM   55  C   UNK N   1      21.004  11.338   2.139  0.00  0.00     0.019 A 
HETATM   56  C   UNK N   1      18.301  11.785   2.905  0.00  0.00     0.069 A 
HETATM   57  C   UNK N   1      19.973  10.380   1.875  0.00  0.00     0.080 A 
HETATM   58  H   UNK N   1      29.720  11.383  -0.208  0.00  0.00     0.163 HD
HETATM   59  H   UNK N   1      31.027   9.336  -1.842  0.00  0.00     0.163 HD
HETATM   60  H   UNK N   1      27.348  13.774   1.625  0.00  0.00     0.163 HD
HETATM   61  H   UNK N   1      23.943  16.120   2.145  0.00  0.00     0.163 HD
HETATM   62  H   UNK N   1      22.257  12.432   4.847  0.00  0.00     0.163 HD
ENDROOT
BRANCH   1  63
HETATM   63  O   UNK N   1      32.040  15.842   4.359  0.00  0.00    -0.312 OA
BRANCH  63  64
HETATM   64  C   UNK N   1      32.203  15.974   5.726  0.00  0.00     0.298 C 
HETATM   65  C   UNK N   1      33.613  15.734   6.205  0.00  0.00     0.211 C 
HETATM   66  C   UNK N   1      34.082  16.906   7.107  0.00  0.00     0.183 C 
HETATM   67  C   UNK N   1      33.064  17.071   8.241  0.00  0.00     0.180 C 
HETATM   68  C   UNK N   1      31.630  16.854   7.717  0.00  0.00     0.179 C 
HETATM   69  O   UNK N   1      31.547  17.089   6.321  0.00  0.00    -0.348 OA
BRANCH  65  70
HETATM   70  O   UNK N   1      34.449  15.219   5.189  0.00  0.00    -0.348 OA
BRANCH  70  71
HETATM   71  C   UNK N   1      35.049  14.064   5.681  0.00  0.00     0.263 C 
HETATM   72  C   UNK N   1      36.390  13.719   5.030  0.00  0.00     0.093 C 
HETATM   73  C   UNK N   1      36.786  12.229   5.238  0.00  0.00     0.052 C 
HETATM   74  C   UNK N   1      36.969  11.671   3.834  0.00  0.00     0.041 C 
HETATM   75  C   UNK N   1      35.768  11.356   6.066  0.00  0.00     0.174 C 
HETATM   76  C   UNK N   1      34.601  12.188   6.588  0.00  0.00     0.151 C 
HETATM   77  O   UNK N   1      34.156  13.010   5.567  0.00  0.00    -0.354 OA
HETATM   78  C   UNK N   1      33.451  11.400   7.186  0.00  0.00     0.042 C 
BRANCH  73  79
HETATM   79  N   UNK N   1      38.073  12.171   5.904  0.00  0.00    -0.420 N 
HETATM   80  H   UNK N   1      38.538  11.949   6.785  0.00  0.00     0.150 HD
HETATM   81  H   UNK N   1      38.787  12.465   5.237  0.00  0.00     0.150 HD
ENDBRANCH  73  79
BRANCH  75  82
HETATM   82  O   UNK N   1      35.290  10.263   5.338  0.00  0.00    -0.391 OA
HETATM   83  H   UNK N   1      35.051  10.261   4.397  0.00  0.00     0.210 HD
ENDBRANCH  75  82
ENDBRANCH  70  71
ENDBRANCH  65  70
BRANCH  66  84
HETATM   84  O   UNK N   1      34.076  18.104   6.380  0.00  0.00    -0.390 OA
HETATM   85  H   UNK N   1      33.780  18.660   5.644  0.00  0.00     0.210 HD
ENDBRANCH  66  84
BRANCH  67  86
HETATM   86  O   UNK N   1      33.323  16.145   9.251  0.00  0.00    -0.390 OA
HETATM   87  H   UNK N   1      33.743  16.026  10.117  0.00  0.00     0.210 HD
ENDBRANCH  67  86
BRANCH  68  88
HETATM   88  C   UNK N   1      30.601  17.634   8.526  0.00  0.00     0.198 C 
BRANCH  88  89
HETATM   89  O   UNK N   1      30.381  17.001   9.753  0.00  0.00    -0.398 OA
HETATM   90  H   UNK N   1      29.637  17.141  10.359  0.00  0.00     0.209 HD
ENDBRANCH  88  89
ENDBRANCH  68  88
ENDBRANCH  63  64
ENDBRANCH   1  63
BRANCH  10  91
HETATM   91  O   UNK N   1      35.074  10.261  -1.954  0.00  0.00    -0.388 OA
HETATM   92  H   UNK N   1      35.533  11.013  -2.360  0.00  0.00     0.210 HD
ENDBRANCH  10  91
BRANCH  32  93
HETATM   93  C   UNK N   1      28.480   8.869  -1.356  0.00  0.00     0.137 C 
BRANCH  93  94
HETATM   94  C   UNK N   1      28.909   8.365  -2.718  0.00  0.00     0.217 C 
HETATM   95  O   UNK N   1      29.517   7.311  -2.812  0.00  0.00    -0.274 OA
HETATM   96  N   UNK N   1      28.616   9.062  -3.835  0.00  0.00    -0.370 N 
HETATM   97  H   UNK N   1      27.854   9.623  -4.109  0.00  0.00     0.159 HD
HETATM   98  H   UNK N   1      29.314   8.995  -4.526  0.00  0.00     0.159 HD
ENDBRANCH  93  94
ENDBRANCH  32  93
BRANCH   9  99
HETATM   99  O   UNK N   1      23.671  16.573   6.119  0.00  0.00    -0.388 OA
HETATM  100  H   UNK N   1      23.568  17.246   6.809  0.00  0.00     0.210 HD
ENDBRANCH   9  99
BRANCH  25 101
HETATM  101  N   UNK N   1      33.647   8.011  -1.820  0.00  0.00    -0.343 N 
HETATM  102  C   UNK N   1      34.340   6.870  -1.622  0.00  0.00     0.240 C 
HETATM  103  O   UNK N   1      34.784   6.590  -0.517  0.00  0.00    -0.271 OA
HETATM  104  H   UNK N   1      33.277   8.218  -2.708  0.00  0.00     0.163 HD
BRANCH 102 105
HETATM  105  C   UNK N   1      34.536   5.933  -2.759  0.00  0.00     0.169 C 
BRANCH 105 106
HETATM  106  C   UNK N   1      34.057   6.621  -4.028  0.00  0.00     0.038 C 
BRANCH 106 107
HETATM  107  C   UNK N   1      35.240   6.841  -4.955  0.00  0.00    -0.020 C 
HETATM  108  C   UNK N   1      35.652   8.296  -4.891  0.00  0.00     0.009 C 
HETATM  109  C   UNK N   1      36.403   5.961  -4.547  0.00  0.00     0.009 C 
ENDBRANCH 106 107
ENDBRANCH 105 106
BRANCH 105 110
HETATM  110  N   UNK N   1      33.763   4.716  -2.530  0.00  0.00    -0.413 N 
HETATM  111  C   UNK N   1      32.514   4.813  -3.276  0.00  0.00     0.140 C 
HETATM  112  H   UNK N   1      34.049   3.929  -1.948  0.00  0.00     0.153 HD
ENDBRANCH 105 110
ENDBRANCH 102 105
ENDBRANCH  25 101
BRANCH  47 113
HETATM  113  O   UNK N   1      22.169   9.368  -0.010  0.00  0.00    -0.360 OA
HETATM  114  H   UNK N   1      22.541   8.618  -0.432  0.00  0.00     0.217 HD
ENDBRANCH  47 113
BRANCH  43 115
HETATM  115  C   UNK N   1      20.879  14.978   3.667  0.00  0.00     0.168 C 
HETATM  116  O   UNK N   1      20.811  15.880   2.848  0.00  0.00    -0.648 OA
BRANCH 115 117
HETATM  117  O   UNK N   1      20.401  15.167   4.911  0.00  0.00    -0.775 OA
HETATM  118  H   UNK N   1      20.684  15.700   5.629  0.00  0.00     0.167 HD
ENDBRANCH 115 117
ENDBRANCH  43 115
BRANCH  57 119
HETATM  119  O   UNK N   1      20.212   9.203   1.293  0.00  0.00    -0.360 OA
HETATM  120  H   UNK N   1      19.507   8.632   1.059  0.00  0.00     0.217 HD
ENDBRANCH  57 119
BRANCH  56 121
HETATM  121  O   UNK N   1      17.021  12.007   3.236  0.00  0.00    -0.361 OA
HETATM  122  H   UNK N   1      16.476  11.295   3.505  0.00  0.00     0.217 HD
ENDBRANCH  56 121
TORSDOF 24
ENDMDL
MODEL 9
REMARK VINA RESULT:      -7.7      3.231      5.331
REMARK  24 active torsions:
REMARK  status: ('A' for Active; 'I' for Inactive)
REMARK    1  A    between atoms: O_45  and  C_1 
REMARK    2  A    between atoms: C_9  and  O_23 
REMARK    3  A    between atoms: C_10  and  O_25 
REMARK    4  A    between atoms: C_26  and  O_37 
REMARK    5  A    between atoms: C_27  and  O_45 
REMARK    6  A    between atoms: C_28  and  O_40 
REMARK    7  A    between atoms: C_30  and  N_39 
REMARK    8  A    between atoms: C_31  and  O_41 
REMARK    9  A    between atoms: C_32  and  O_37 
REMARK   10  A    between atoms: C_33  and  C_46 
REMARK   11  A    between atoms: C_36  and  O_42 
REMARK   12  A    between atoms: C_46  and  O_47 
REMARK   13  A    between atoms: C_49  and  N_64 
REMARK   14  A    between atoms: C_56  and  C_60 
REMARK   15  A    between atoms: C_60  and  C_61 
REMARK       I    between atoms: C_61  and  N_62 
REMARK       I    between atoms: C_65  and  N_64 
REMARK   16  A    between atoms: C_66  and  C_65 
REMARK   17  A    between atoms: C_68  and  C_66 
REMARK   18  A    between atoms: C_66  and  N_69 
REMARK   19  A    between atoms: C_70  and  C_68 
REMARK   20  A    between atoms: C_81  and  O_83 
REMARK   21  A    between atoms: C_84  and  C_81 
REMARK   22  A    between atoms: O_93  and  C_88 
REMARK   23  A    between atoms: C_98  and  O_99 
REMARK   24  A    between atoms: C_100  and  O_101 
ROOT
HETATM    1  C   UNK N   1      27.196   8.135   3.975  0.00  0.00     0.139 C 
HETATM    2  C   UNK N   1      28.441   8.298   4.566  0.00  0.00     0.113 C 
HETATM    3  C   UNK N   1      26.614   9.216   3.313  0.00  0.00     0.113 C 
HETATM    4  C   UNK N   1      28.261  10.714   4.182  0.00  0.00    -0.021 C 
HETATM    5  C   UNK N   1      27.167  10.469   3.406  0.00  0.00     0.050 C 
HETATM    6  C   UNK N   1      28.931   9.645   4.743  0.00  0.00     0.050 C 
HETATM    7  O   UNK N   1      29.224   7.225   4.886  0.00  0.00    -0.306 OA
HETATM    8  O   UNK N   1      25.472   9.102   2.646  0.00  0.00    -0.306 OA
HETATM    9  C   UNK N   1      21.311  12.628   3.697  0.00  0.00     0.183 C 
HETATM   10  C   UNK N   1      33.682   9.822   6.181  0.00  0.00     0.183 C 
HETATM   11  C   UNK N   1      22.268  11.538   3.442  0.00  0.00    -0.025 A 
HETATM   12  C   UNK N   1      32.913   8.732   5.496  0.00  0.00    -0.025 C 
HETATM   13  C   UNK N   1      24.416   9.869   2.946  0.00  0.00     0.098 A 
HETATM   14  C   UNK N   1      30.569   7.417   4.886  0.00  0.00     0.098 C 
HETATM   15  C   UNK N   1      24.208  10.403   4.259  0.00  0.00     0.068 A 
HETATM   16  C   UNK N   1      31.359   6.913   5.913  0.00  0.00     0.068 C 
HETATM   17  C   UNK N   1      32.514   7.615   6.251  0.00  0.00     0.036 C 
HETATM   18  C   UNK N   1      32.271   9.021   4.298  0.00  0.00     0.012 C 
HETATM   19  C   UNK N   1      22.426  10.973   2.173  0.00  0.00     0.012 A 
HETATM   20  C   UNK N   1      23.498  10.128   1.933  0.00  0.00     0.040 A 
HETATM   21  C   UNK N   1      31.125   8.344   3.975  0.00  0.00     0.040 C 
HETATM   22 Cl   UNK N   1      30.787   5.634   6.964  0.00  0.00    -0.081 Cl
HETATM   23 Cl   UNK N   1      25.206  10.109   5.692  0.00  0.00    -0.081 Cl
HETATM   24  C   UNK N   1      23.140  11.224   4.468  0.00  0.00     0.036 A 
HETATM   25  C   UNK N   1      34.222  10.893   5.229  0.00  0.00     0.210 C 
HETATM   26  N   UNK N   1      29.834  12.635   4.908  0.00  0.00    -0.342 N 
HETATM   27  C   UNK N   1      33.294  11.920   4.626  0.00  0.00     0.244 C 
HETATM   28  C   UNK N   1      27.574  13.138   3.909  0.00  0.00     0.246 C 
HETATM   29  N   UNK N   1      32.742  12.927   5.364  0.00  0.00    -0.345 N 
HETATM   30  C   UNK N   1      28.591  12.150   4.367  0.00  0.00     0.210 C 
HETATM   31  C   UNK N   1      30.709  13.307   4.120  0.00  0.00     0.241 C 
HETATM   32  C   UNK N   1      31.926  13.939   4.709  0.00  0.00     0.185 C 
HETATM   33  O   UNK N   1      33.122  11.889   3.415  0.00  0.00    -0.271 OA
HETATM   34  O   UNK N   1      27.787  13.816   2.914  0.00  0.00    -0.271 OA
HETATM   35  O   UNK N   1      30.520  13.397   2.917  0.00  0.00    -0.271 OA
HETATM   36  C   UNK N   1      22.148  13.909   3.863  0.00  0.00     0.210 C 
HETATM   37  N   UNK N   1      26.391  13.216   4.577  0.00  0.00    -0.342 N 
HETATM   38  C   UNK N   1      25.325  14.138   4.238  0.00  0.00     0.210 C 
HETATM   39  O   UNK N   1      23.081  13.960   1.686  0.00  0.00    -0.271 OA
HETATM   40  N   UNK N   1      22.913  13.994   5.104  0.00  0.00    -0.343 N 
HETATM   41  C   UNK N   1      24.262  14.075   5.329  0.00  0.00     0.245 C 
HETATM   42  O   UNK N   1      24.639  14.173   6.487  0.00  0.00    -0.271 OA
HETATM   43  C   UNK N   1      22.257  16.808   3.673  0.00  0.00     0.217 C 
HETATM   44  N   UNK N   1      22.682  15.970   2.563  0.00  0.00    -0.341 N 
HETATM   45  C   UNK N   1      22.682  14.613   2.636  0.00  0.00     0.244 C 
HETATM   46  C   UNK N   1      25.213  17.883   3.904  0.00  0.00     0.011 A 
HETATM   47  C   UNK N   1      26.534  18.254   4.340  0.00  0.00     0.076 A 
HETATM   48  C   UNK N   1      25.839  15.552   4.233  0.00  0.00    -0.025 A 
HETATM   49  C   UNK N   1      24.949  16.529   3.880  0.00  0.00     0.025 A 
HETATM   50  C   UNK N   1      27.464  17.265   4.683  0.00  0.00     0.038 A 
HETATM   51  C   UNK N   1      27.120  15.922   4.640  0.00  0.00     0.012 A 
HETATM   52  C   UNK N   1      22.663  18.273   3.457  0.00  0.00    -0.009 A 
HETATM   53  C   UNK N   1      21.610  19.160   3.206  0.00  0.00     0.047 A 
HETATM   54  C   UNK N   1      23.104  21.012   3.031  0.00  0.00     0.074 A 
HETATM   55  C   UNK N   1      24.030  18.795   3.539  0.00  0.00     0.019 A 
HETATM   56  C   UNK N   1      21.820  20.507   3.011  0.00  0.00     0.069 A 
HETATM   57  C   UNK N   1      24.199  20.193   3.281  0.00  0.00     0.080 A 
HETATM   58  H   UNK N   1      30.049  12.478   5.856  0.00  0.00     0.163 HD
HETATM   59  H   UNK N   1      32.894  12.970   6.336  0.00  0.00     0.163 HD
HETATM   60  H   UNK N   1      26.251  12.608   5.339  0.00  0.00     0.163 HD
HETATM   61  H   UNK N   1      22.364  13.992   5.921  0.00  0.00     0.163 HD
HETATM   62  H   UNK N   1      22.982  16.401   1.730  0.00  0.00     0.163 HD
ENDROOT
BRANCH   1  63
HETATM   63  O   UNK N   1      26.540   6.945   4.070  0.00  0.00    -0.312 OA
BRANCH  63  64
HETATM   64  C   UNK N   1      25.750   6.661   5.170  0.00  0.00     0.298 C 
HETATM   65  C   UNK N   1      24.396   6.091   4.824  0.00  0.00     0.211 C 
HETATM   66  C   UNK N   1      24.136   4.794   5.635  0.00  0.00     0.183 C 
HETATM   67  C   UNK N   1      24.308   5.120   7.123  0.00  0.00     0.180 C 
HETATM   68  C   UNK N   1      25.486   6.093   7.331  0.00  0.00     0.179 C 
HETATM   69  O   UNK N   1      26.410   6.025   6.258  0.00  0.00    -0.348 OA
BRANCH  65  70
HETATM   70  O   UNK N   1      24.122   6.151   3.439  0.00  0.00    -0.348 OA
BRANCH  70  71
HETATM   71  C   UNK N   1      22.796   6.545   3.288  0.00  0.00     0.263 C 
HETATM   72  C   UNK N   1      22.266   7.436   4.413  0.00  0.00     0.093 C 
HETATM   73  C   UNK N   1      20.712   7.459   4.472  0.00  0.00     0.052 C 
HETATM   74  C   UNK N   1      20.365   6.993   5.879  0.00  0.00     0.041 C 
HETATM   75  C   UNK N   1      19.969   6.589   3.389  0.00  0.00     0.174 C 
HETATM   76  C   UNK N   1      20.948   5.942   2.414  0.00  0.00     0.151 C 
HETATM   77  O   UNK N   1      22.006   5.417   3.135  0.00  0.00    -0.354 OA
HETATM   78  C   UNK N   1      20.356   4.897   1.487  0.00  0.00     0.042 C 
BRANCH  73  79
HETATM   79  N   UNK N   1      20.255   8.829   4.339  0.00  0.00    -0.420 N 
HETATM   80  H   UNK N   1      20.403   9.784   4.667  0.00  0.00     0.150 HD
HETATM   81  H   UNK N   1      19.496   8.844   3.658  0.00  0.00     0.150 HD
ENDBRANCH  73  79
BRANCH  75  82
HETATM   82  O   UNK N   1      19.149   5.612   3.962  0.00  0.00    -0.391 OA
HETATM   83  H   UNK N   1      18.432   5.767   4.598  0.00  0.00     0.210 HD
ENDBRANCH  75  82
ENDBRANCH  70  71
ENDBRANCH  65  70
BRANCH  66  84
HETATM   84  O   UNK N   1      25.100   3.828   5.318  0.00  0.00    -0.390 OA
HETATM   85  H   UNK N   1      26.007   3.488   5.317  0.00  0.00     0.210 HD
ENDBRANCH  66  84
BRANCH  67  86
HETATM   86  O   UNK N   1      23.143   5.705   7.619  0.00  0.00    -0.390 OA
HETATM   87  H   UNK N   1      22.748   6.128   8.397  0.00  0.00     0.210 HD
ENDBRANCH  67  86
BRANCH  68  88
HETATM   88  C   UNK N   1      26.132   5.924   8.700  0.00  0.00     0.198 C 
BRANCH  88  89
HETATM   89  O   UNK N   1      25.370   5.051   9.482  0.00  0.00    -0.398 OA
HETATM   90  H   UNK N   1      25.534   4.107   9.635  0.00  0.00     0.209 HD
ENDBRANCH  88  89
ENDBRANCH  68  88
ENDBRANCH  63  64
ENDBRANCH   1  63
BRANCH  10  91
HETATM   91  O   UNK N   1      34.679   9.277   6.991  0.00  0.00    -0.388 OA
HETATM   92  H   UNK N   1      34.906   9.531   7.899  0.00  0.00     0.210 HD
ENDBRANCH  10  91
BRANCH  32  93
HETATM   93  C   UNK N   1      31.534  15.108   5.615  0.00  0.00     0.137 C 
BRANCH  93  94
HETATM   94  C   UNK N   1      32.289  15.041   6.926  0.00  0.00     0.217 C 
HETATM   95  O   UNK N   1      32.000  14.191   7.751  0.00  0.00    -0.274 OA
HETATM   96  N   UNK N   1      33.290  15.906   7.190  0.00  0.00    -0.370 N 
HETATM   97  H   UNK N   1      33.976  16.344   6.636  0.00  0.00     0.159 HD
HETATM   98  H   UNK N   1      33.347  16.152   8.141  0.00  0.00     0.159 HD
ENDBRANCH  93  94
ENDBRANCH  32  93
BRANCH   9  99
HETATM   99  O   UNK N   1      20.394  12.766   2.651  0.00  0.00    -0.388 OA
HETATM  100  H   UNK N   1      20.261  13.403   1.933  0.00  0.00     0.210 HD
ENDBRANCH   9  99
BRANCH  25 101
HETATM  101  N   UNK N   1      35.385  11.530   5.749  0.00  0.00    -0.343 N 
HETATM  102  C   UNK N   1      36.545  11.460   5.065  0.00  0.00     0.240 C 
HETATM  103  O   UNK N   1      36.605  10.877   3.991  0.00  0.00    -0.271 OA
HETATM  104  H   UNK N   1      35.343  12.019   6.602  0.00  0.00     0.163 HD
BRANCH 102 105
HETATM  105  C   UNK N   1      37.755  12.128   5.613  0.00  0.00     0.169 C 
BRANCH 105 106
HETATM  106  C   UNK N   1      37.365  12.824   6.908  0.00  0.00     0.038 C 
BRANCH 106 107
HETATM  107  C   UNK N   1      38.040  12.124   8.075  0.00  0.00    -0.020 C 
HETATM  108  C   UNK N   1      38.974  13.098   8.761  0.00  0.00     0.009 C 
HETATM  109  C   UNK N   1      37.006  11.625   9.062  0.00  0.00     0.009 C 
ENDBRANCH 106 107
ENDBRANCH 105 106
BRANCH 105 110
HETATM  110  N   UNK N   1      38.254  13.106   4.652  0.00  0.00    -0.413 N 
HETATM  111  C   UNK N   1      38.159  14.433   5.250  0.00  0.00     0.140 C 
HETATM  112  H   UNK N   1      38.610  12.898   3.720  0.00  0.00     0.153 HD
ENDBRANCH 105 110
ENDBRANCH 102 105
ENDBRANCH  25 101
BRANCH  47 113
HETATM  113  O   UNK N   1      26.929  19.518   4.504  0.00  0.00    -0.360 OA
HETATM  114  H   UNK N   1      27.021  19.877   5.365  0.00  0.00     0.217 HD
ENDBRANCH  47 113
BRANCH  43 115
HETATM  115  C   UNK N   1      20.790  16.573   3.954  0.00  0.00     0.168 C 
HETATM  116  O   UNK N   1      20.399  16.509   5.107  0.00  0.00    -0.648 OA
BRANCH 115 117
HETATM  117  O   UNK N   1      19.922  16.382   2.942  0.00  0.00    -0.775 OA
HETATM  118  H   UNK N   1      18.987  16.408   2.891  0.00  0.00     0.167 HD
ENDBRANCH 115 117
ENDBRANCH  43 115
BRANCH  57 119
HETATM  119  O   UNK N   1      25.398  20.778   3.230  0.00  0.00    -0.360 OA
HETATM  120  H   UNK N   1      26.003  20.572   2.544  0.00  0.00     0.217 HD
ENDBRANCH  57 119
BRANCH  56 121
HETATM  121  O   UNK N   1      20.778  21.322   2.792  0.00  0.00    -0.361 OA
HETATM  122  H   UNK N   1      19.905  21.016   2.941  0.00  0.00     0.217 HD
ENDBRANCH  56 121
TORSDOF 24
ENDMDL
