MODEL 1
REMARK VINA RESULT:      -5.1      0.000      0.000
REMARK  7 active torsions:
REMARK  status: ('A' for Active; 'I' for Inactive)
REMARK    1  A    between atoms: O_3  and  C_2 
REMARK    2  A    between atoms: C_4  and  C_2 
REMARK    3  A    between atoms: C_4  and  N_5 
REMARK    4  A    between atoms: C_6  and  C_4 
REMARK    5  A    between atoms: C_7  and  C_6 
REMARK    6  A    between atoms: C_7  and  C_8 
REMARK    7  A    between atoms: N_9  and  C_8 
REMARK       I    between atoms: C_10  and  N_9 
REMARK       I    between atoms: N_13  and  C_10 
ROOT
HETATM    1  C   UNK N   1      31.896  17.900   8.440  0.00  0.00     0.023 C 
ENDROOT
BRANCH   1   2
HETATM    2  C   UNK N   1      32.701  16.620   8.578  0.00  0.00     0.037 C 
BRANCH   2   3
HETATM    3  C   UNK N   1      34.187  16.920   8.715  0.00  0.00     0.173 C 
BRANCH   3   4
HETATM    4  C   UNK N   1      34.582  18.115   7.888  0.00  0.00     0.163 C 
HETATM    5  O   UNK N   1      34.448  18.089   6.675  0.00  0.00    -0.648 OA
BRANCH   4   6
HETATM    6  O   UNK N   1      35.103  19.211   8.475  0.00  0.00    -0.775 OA
HETATM    7  H   UNK N   1      35.276  19.987   7.980  0.00  0.00     0.167 HD
ENDBRANCH   4   6
ENDBRANCH   3   4
BRANCH   3   8
HETATM    8  N   UNK N   1      34.495  17.146  10.117  0.00  0.00    -0.418 N 
HETATM    9  H   UNK N   1      35.379  16.823  10.509  0.00  0.00     0.150 HD
HETATM   10  H   UNK N   1      33.823  17.630  10.713  0.00  0.00     0.150 HD
ENDBRANCH   3   8
ENDBRANCH   2   3
ENDBRANCH   1   2
BRANCH   1  11
HETATM   11  C   UNK N   1      30.471  17.680   8.932  0.00  0.00     0.138 C 
BRANCH  11  12
HETATM   12  N   UNK N   1      29.532  17.667   7.834  0.00  0.00    -0.227 N 
HETATM   13  C   UNK N   1      28.179  18.079   7.975  0.00  0.00     0.665 C 
HETATM   14  N   UNK N   1      27.710  18.403   9.127  0.00  0.00    -0.235 N 
HETATM   15  N   UNK N   1      27.354  18.176   6.836  0.00  0.00    -0.235 N 
HETATM   16  H   UNK N   1      28.242  18.281   9.947  0.00  0.00     0.174 HD
ATOM     17  HN  UNK N   1      26.770  18.794   9.193  1.00  0.00     0.174 HD
HETATM   18  H   UNK N   1      26.382  18.308   6.904  0.00  0.00     0.174 HD
HETATM   19  H   UNK N   1      27.765  18.108   5.944  0.00  0.00     0.174 HD
HETATM   20  H   UNK N   1      29.842  17.360   6.952  0.00  0.00     0.177 HD
ENDBRANCH  11  12
ENDBRANCH   1  11
TORSDOF 7
ENDMDL
MODEL 2
REMARK VINA RESULT:      -5.0      3.626      5.871
REMARK  7 active torsions:
REMARK  status: ('A' for Active; 'I' for Inactive)
REMARK    1  A    between atoms: O_3  and  C_2 
REMARK    2  A    between atoms: C_4  and  C_2 
REMARK    3  A    between atoms: C_4  and  N_5 
REMARK    4  A    between atoms: C_6  and  C_4 
REMARK    5  A    between atoms: C_7  and  C_6 
REMARK    6  A    between atoms: C_7  and  C_8 
REMARK    7  A    between atoms: N_9  and  C_8 
REMARK       I    between atoms: C_10  and  N_9 
REMARK       I    between atoms: N_13  and  C_10 
ROOT
HETATM    1  C   UNK N   1      30.926  16.958   8.149  0.00  0.00     0.023 C 
ENDROOT
BRANCH   1   2
HETATM    2  C   UNK N   1      30.546  18.267   8.818  0.00  0.00     0.037 C 
BRANCH   2   3
HETATM    3  C   UNK N   1      29.463  18.051   9.867  0.00  0.00     0.173 C 
BRANCH   3   4
HETATM    4  C   UNK N   1      28.098  17.976   9.235  0.00  0.00     0.163 C 
HETATM    5  O   UNK N   1      27.463  16.935   9.276  0.00  0.00    -0.648 OA
BRANCH   4   6
HETATM    6  O   UNK N   1      27.577  19.049   8.607  0.00  0.00    -0.775 OA
HETATM    7  H   UNK N   1      27.099  18.954   7.806  0.00  0.00     0.167 HD
ENDBRANCH   4   6
ENDBRANCH   3   4
BRANCH   3   8
HETATM    8  N   UNK N   1      29.754  16.831  10.600  0.00  0.00    -0.418 N 
HETATM    9  H   UNK N   1      30.702  16.634  10.917  0.00  0.00     0.150 HD
HETATM   10  H   UNK N   1      29.004  16.167  10.799  0.00  0.00     0.150 HD
ENDBRANCH   3   8
ENDBRANCH   2   3
ENDBRANCH   1   2
BRANCH   1  11
HETATM   11  C   UNK N   1      32.437  16.880   7.970  0.00  0.00     0.138 C 
BRANCH  11  12
HETATM   12  N   UNK N   1      33.128  17.183   9.203  0.00  0.00    -0.227 N 
HETATM   13  C   UNK N   1      34.410  16.655   9.515  0.00  0.00     0.665 C 
HETATM   14  N   UNK N   1      34.976  15.804   8.735  0.00  0.00    -0.235 N 
HETATM   15  N   UNK N   1      35.090  17.101  10.666  0.00  0.00    -0.235 N 
HETATM   16  H   UNK N   1      34.498  15.426   7.961  0.00  0.00     0.174 HD
ATOM     17  HN  UNK N   1      35.937  15.516   8.920  1.00  0.00     0.174 HD
HETATM   18  H   UNK N   1      35.903  16.658  10.999  0.00  0.00     0.174 HD
HETATM   19  H   UNK N   1      34.740  17.882  11.154  0.00  0.00     0.174 HD
HETATM   20  H   UNK N   1      32.693  17.780   9.853  0.00  0.00     0.177 HD
ENDBRANCH  11  12
ENDBRANCH   1  11
TORSDOF 7
ENDMDL
MODEL 3
REMARK VINA RESULT:      -4.9      3.289      6.666
REMARK  7 active torsions:
REMARK  status: ('A' for Active; 'I' for Inactive)
REMARK    1  A    between atoms: O_3  and  C_2 
REMARK    2  A    between atoms: C_4  and  C_2 
REMARK    3  A    between atoms: C_4  and  N_5 
REMARK    4  A    between atoms: C_6  and  C_4 
REMARK    5  A    between atoms: C_7  and  C_6 
REMARK    6  A    between atoms: C_7  and  C_8 
REMARK    7  A    between atoms: N_9  and  C_8 
REMARK       I    between atoms: C_10  and  N_9 
REMARK       I    between atoms: N_13  and  C_10 
ROOT
HETATM    1  C   UNK N   1      34.647  15.619  10.732  0.00  0.00     0.023 C 
ENDROOT
BRANCH   1   2
HETATM    2  C   UNK N   1      34.619  16.062   9.280  0.00  0.00     0.037 C 
BRANCH   2   3
HETATM    3  C   UNK N   1      33.910  17.401   9.131  0.00  0.00     0.173 C 
BRANCH   3   4
HETATM    4  C   UNK N   1      34.602  18.277   8.120  0.00  0.00     0.163 C 
HETATM    5  O   UNK N   1      35.296  19.209   8.493  0.00  0.00    -0.648 OA
BRANCH   4   6
HETATM    6  O   UNK N   1      34.446  18.051   6.800  0.00  0.00    -0.775 OA
HETATM    7  H   UNK N   1      34.797  18.643   6.164  0.00  0.00     0.167 HD
ENDBRANCH   4   6
ENDBRANCH   3   4
BRANCH   3   8
HETATM    8  N   UNK N   1      32.531  17.164   8.742  0.00  0.00    -0.418 N 
HETATM    9  H   UNK N   1      31.792  17.148   9.444  0.00  0.00     0.150 HD
HETATM   10  H   UNK N   1      32.300  17.011   7.759  0.00  0.00     0.150 HD
ENDBRANCH   3   8
ENDBRANCH   2   3
ENDBRANCH   1   2
BRANCH   1  11
HETATM   11  C   UNK N   1      35.903  14.801  11.006  0.00  0.00     0.138 C 
BRANCH  11  12
HETATM   12  N   UNK N   1      36.515  15.181  12.260  0.00  0.00    -0.227 N 
HETATM   13  C   UNK N   1      36.291  14.471  13.470  0.00  0.00     0.665 C 
HETATM   14  N   UNK N   1      35.453  13.497  13.514  0.00  0.00    -0.235 N 
HETATM   15  N   UNK N   1      37.027  14.807  14.625  0.00  0.00    -0.235 N 
HETATM   16  H   UNK N   1      34.879  13.285  12.742  0.00  0.00     0.174 HD
ATOM     17  HN  UNK N   1      35.382  12.935  14.361  1.00  0.00     0.174 HD
HETATM   18  H   UNK N   1      36.800  14.449  15.513  0.00  0.00     0.174 HD
HETATM   19  H   UNK N   1      37.792  15.420  14.540  0.00  0.00     0.174 HD
HETATM   20  H   UNK N   1      37.111  15.964  12.275  0.00  0.00     0.177 HD
ENDBRANCH  11  12
ENDBRANCH   1  11
TORSDOF 7
ENDMDL
MODEL 4
REMARK VINA RESULT:      -4.9      3.187      6.093
REMARK  7 active torsions:
REMARK  status: ('A' for Active; 'I' for Inactive)
REMARK    1  A    between atoms: O_3  and  C_2 
REMARK    2  A    between atoms: C_4  and  C_2 
REMARK    3  A    between atoms: C_4  and  N_5 
REMARK    4  A    between atoms: C_6  and  C_4 
REMARK    5  A    between atoms: C_7  and  C_6 
REMARK    6  A    between atoms: C_7  and  C_8 
REMARK    7  A    between atoms: N_9  and  C_8 
REMARK       I    between atoms: C_10  and  N_9 
REMARK       I    between atoms: N_13  and  C_10 
ROOT
HETATM    1  C   UNK N   1      33.627  14.784   9.524  0.00  0.00     0.023 C 
ENDROOT
BRANCH   1   2
HETATM    2  C   UNK N   1      34.190  15.778   8.524  0.00  0.00     0.037 C 
BRANCH   2   3
HETATM    3  C   UNK N   1      33.868  17.209   8.934  0.00  0.00     0.173 C 
BRANCH   3   4
HETATM    4  C   UNK N   1      34.560  18.203   8.040  0.00  0.00     0.163 C 
HETATM    5  O   UNK N   1      34.490  18.085   6.827  0.00  0.00    -0.648 OA
BRANCH   4   6
HETATM    6  O   UNK N   1      35.275  19.216   8.569  0.00  0.00    -0.775 OA
HETATM    7  H   UNK N   1      35.260  19.388   9.490  0.00  0.00     0.167 HD
ENDBRANCH   4   6
ENDBRANCH   3   4
BRANCH   3   8
HETATM    8  N   UNK N   1      32.429  17.399   8.892  0.00  0.00    -0.418 N 
HETATM    9  H   UNK N   1      31.802  16.660   9.210  0.00  0.00     0.150 HD
HETATM   10  H   UNK N   1      32.043  18.276   8.542  0.00  0.00     0.150 HD
ENDBRANCH   3   8
ENDBRANCH   2   3
ENDBRANCH   1   2
BRANCH   1  11
HETATM   11  C   UNK N   1      34.150  15.092  10.921  0.00  0.00     0.138 C 
BRANCH  11  12
HETATM   12  N   UNK N   1      35.112  14.104  11.352  0.00  0.00    -0.227 N 
HETATM   13  C   UNK N   1      36.513  14.343  11.350  0.00  0.00     0.665 C 
HETATM   14  N   UNK N   1      36.990  15.438  10.875  0.00  0.00    -0.235 N 
HETATM   15  N   UNK N   1      37.387  13.392  11.915  0.00  0.00    -0.235 N 
HETATM   16  H   UNK N   1      36.411  16.089  10.415  0.00  0.00     0.174 HD
ATOM     17  HN  UNK N   1      37.985  15.637  10.975  1.00  0.00     0.174 HD
HETATM   18  H   UNK N   1      38.363  13.445  11.801  0.00  0.00     0.174 HD
HETATM   19  H   UNK N   1      37.008  12.650  12.440  0.00  0.00     0.174 HD
HETATM   20  H   UNK N   1      34.784  13.229  11.660  0.00  0.00     0.177 HD
ENDBRANCH  11  12
ENDBRANCH   1  11
TORSDOF 7
ENDMDL
MODEL 5
REMARK VINA RESULT:      -4.9      5.085      8.099
REMARK  7 active torsions:
REMARK  status: ('A' for Active; 'I' for Inactive)
REMARK    1  A    between atoms: O_3  and  C_2 
REMARK    2  A    between atoms: C_4  and  C_2 
REMARK    3  A    between atoms: C_4  and  N_5 
REMARK    4  A    between atoms: C_6  and  C_4 
REMARK    5  A    between atoms: C_7  and  C_6 
REMARK    6  A    between atoms: C_7  and  C_8 
REMARK    7  A    between atoms: N_9  and  C_8 
REMARK       I    between atoms: C_10  and  N_9 
REMARK       I    between atoms: N_13  and  C_10 
ROOT
HETATM    1  C   UNK N   1      35.262  12.761  12.060  0.00  0.00     0.023 C 
ENDROOT
BRANCH   1   2
HETATM    2  C   UNK N   1      35.190  13.707  10.874  0.00  0.00     0.037 C 
BRANCH   2   3
HETATM    3  C   UNK N   1      34.616  15.056  11.285  0.00  0.00     0.173 C 
BRANCH   3   4
HETATM    4  C   UNK N   1      35.548  16.181  10.919  0.00  0.00     0.163 C 
HETATM    5  O   UNK N   1      35.097  17.243  10.522  0.00  0.00    -0.648 OA
BRANCH   4   6
HETATM    6  O   UNK N   1      36.884  16.018  11.008  0.00  0.00    -0.775 OA
HETATM    7  H   UNK N   1      37.465  16.480  10.438  0.00  0.00     0.167 HD
ENDBRANCH   4   6
ENDBRANCH   3   4
BRANCH   3   8
HETATM    8  N   UNK N   1      33.325  15.235  10.646  0.00  0.00    -0.418 N 
HETATM    9  H   UNK N   1      32.687  15.963  10.965  0.00  0.00     0.150 HD
HETATM   10  H   UNK N   1      33.053  14.627   9.871  0.00  0.00     0.150 HD
ENDBRANCH   3   8
ENDBRANCH   2   3
ENDBRANCH   1   2
BRANCH   1  11
HETATM   11  C   UNK N   1      36.680  12.721  12.614  0.00  0.00     0.138 C 
BRANCH  11  12
HETATM   12  N   UNK N   1      36.963  13.887  13.419  0.00  0.00    -0.227 N 
HETATM   13  C   UNK N   1      36.884  13.879  14.838  0.00  0.00     0.665 C 
HETATM   14  N   UNK N   1      36.468  12.837  15.465  0.00  0.00    -0.235 N 
HETATM   15  N   UNK N   1      37.309  15.006  15.570  0.00  0.00    -0.235 N 
HETATM   16  H   UNK N   1      36.103  12.061  14.979  0.00  0.00     0.174 HD
ATOM     17  HN  UNK N   1      36.516  12.812  16.483  1.00  0.00     0.174 HD
HETATM   18  H   UNK N   1      37.132  15.102  16.533  0.00  0.00     0.174 HD
HETATM   19  H   UNK N   1      37.797  15.722  15.101  0.00  0.00     0.174 HD
HETATM   20  H   UNK N   1      37.221  14.722  12.966  0.00  0.00     0.177 HD
ENDBRANCH  11  12
ENDBRANCH   1  11
TORSDOF 7
ENDMDL
MODEL 6
REMARK VINA RESULT:      -4.7      2.087      2.521
REMARK  7 active torsions:
REMARK  status: ('A' for Active; 'I' for Inactive)
REMARK    1  A    between atoms: O_3  and  C_2 
REMARK    2  A    between atoms: C_4  and  C_2 
REMARK    3  A    between atoms: C_4  and  N_5 
REMARK    4  A    between atoms: C_6  and  C_4 
REMARK    5  A    between atoms: C_7  and  C_6 
REMARK    6  A    between atoms: C_7  and  C_8 
REMARK    7  A    between atoms: N_9  and  C_8 
REMARK       I    between atoms: C_10  and  N_9 
REMARK       I    between atoms: N_13  and  C_10 
ROOT
HETATM    1  C   UNK N   1      32.104  16.277   8.505  0.00  0.00     0.023 C 
ENDROOT
BRANCH   1   2
HETATM    2  C   UNK N   1      33.601  16.482   8.664  0.00  0.00     0.037 C 
BRANCH   2   3
HETATM    3  C   UNK N   1      34.157  15.611   9.782  0.00  0.00     0.173 C 
BRANCH   3   4
HETATM    4  C   UNK N   1      35.165  16.363  10.610  0.00  0.00     0.163 C 
HETATM    5  O   UNK N   1      35.548  17.466  10.253  0.00  0.00    -0.648 OA
BRANCH   4   6
HETATM    6  O   UNK N   1      35.666  15.818  11.737  0.00  0.00    -0.775 OA
HETATM    7  H   UNK N   1      35.252  15.083  12.143  0.00  0.00     0.167 HD
ENDBRANCH   4   6
ENDBRANCH   3   4
BRANCH   3   8
HETATM    8  N   UNK N   1      33.058  15.149  10.611  0.00  0.00    -0.418 N 
HETATM    9  H   UNK N   1      32.544  14.304  10.363  0.00  0.00     0.150 HD
HETATM   10  H   UNK N   1      32.797  15.674  11.447  0.00  0.00     0.150 HD
ENDBRANCH   3   8
ENDBRANCH   2   3
ENDBRANCH   1   2
BRANCH   1  11
HETATM   11  C   UNK N   1      31.428  17.596   8.152  0.00  0.00     0.138 C 
BRANCH  11  12
HETATM   12  N   UNK N   1      29.990  17.487   8.232  0.00  0.00    -0.227 N 
HETATM   13  C   UNK N   1      29.224  18.144   9.233  0.00  0.00     0.665 C 
HETATM   14  N   UNK N   1      29.802  18.803  10.173  0.00  0.00    -0.235 N 
HETATM   15  N   UNK N   1      27.816  18.113   9.171  0.00  0.00    -0.235 N 
HETATM   16  H   UNK N   1      30.781  18.787  10.279  0.00  0.00     0.174 HD
ATOM     17  HN  UNK N   1      29.237  19.353  10.820  1.00  0.00     0.174 HD
HETATM   18  H   UNK N   1      27.252  18.420   9.916  0.00  0.00     0.174 HD
HETATM   19  H   UNK N   1      27.383  17.770   8.355  0.00  0.00     0.174 HD
HETATM   20  H   UNK N   1      29.520  16.935   7.566  0.00  0.00     0.177 HD
ENDBRANCH  11  12
ENDBRANCH   1  11
TORSDOF 7
ENDMDL
MODEL 7
REMARK VINA RESULT:      -4.7      1.743      2.071
REMARK  7 active torsions:
REMARK  status: ('A' for Active; 'I' for Inactive)
REMARK    1  A    between atoms: O_3  and  C_2 
REMARK    2  A    between atoms: C_4  and  C_2 
REMARK    3  A    between atoms: C_4  and  N_5 
REMARK    4  A    between atoms: C_6  and  C_4 
REMARK    5  A    between atoms: C_7  and  C_6 
REMARK    6  A    between atoms: C_7  and  C_8 
REMARK    7  A    between atoms: N_9  and  C_8 
REMARK       I    between atoms: C_10  and  N_9 
REMARK       I    between atoms: N_13  and  C_10 
ROOT
HETATM    1  C   UNK N   1      31.572  16.497   6.647  0.00  0.00     0.023 C 
ENDROOT
BRANCH   1   2
HETATM    2  C   UNK N   1      32.160  17.342   7.764  0.00  0.00     0.037 C 
BRANCH   2   3
HETATM    3  C   UNK N   1      33.448  18.020   7.316  0.00  0.00     0.173 C 
BRANCH   3   4
HETATM    4  C   UNK N   1      34.404  18.189   8.467  0.00  0.00     0.163 C 
HETATM    5  O   UNK N   1      34.377  17.407   9.404  0.00  0.00    -0.648 OA
BRANCH   4   6
HETATM    6  O   UNK N   1      35.282  19.212   8.481  0.00  0.00    -0.775 OA
HETATM    7  H   UNK N   1      36.098  19.142   8.937  0.00  0.00     0.167 HD
ENDBRANCH   4   6
ENDBRANCH   3   4
BRANCH   3   8
HETATM    8  N   UNK N   1      34.054  17.229   6.260  0.00  0.00    -0.418 N 
HETATM    9  H   UNK N   1      33.882  16.226   6.202  0.00  0.00     0.150 HD
HETATM   10  H   UNK N   1      34.657  17.681   5.570  0.00  0.00     0.150 HD
ENDBRANCH   3   8
ENDBRANCH   2   3
ENDBRANCH   1   2
BRANCH   1  11
HETATM   11  C   UNK N   1      30.054  16.630   6.633  0.00  0.00     0.138 C 
BRANCH  11  12
HETATM   12  N   UNK N   1      29.598  17.556   7.645  0.00  0.00    -0.227 N 
HETATM   13  C   UNK N   1      28.242  17.629   8.064  0.00  0.00     0.665 C 
HETATM   14  N   UNK N   1      27.338  16.920   7.487  0.00  0.00    -0.235 N 
HETATM   15  N   UNK N   1      27.889  18.452   9.153  0.00  0.00    -0.235 N 
HETATM   16  H   UNK N   1      27.544  16.389   6.683  0.00  0.00     0.174 HD
ATOM     17  HN  UNK N   1      26.392  16.908   7.867  1.00  0.00     0.174 HD
HETATM   18  H   UNK N   1      26.952  18.649   9.378  0.00  0.00     0.174 HD
HETATM   19  H   UNK N   1      28.604  18.843   9.705  0.00  0.00     0.174 HD
HETATM   20  H   UNK N   1      30.254  18.160   8.061  0.00  0.00     0.177 HD
ENDBRANCH  11  12
ENDBRANCH   1  11
TORSDOF 7
ENDMDL
MODEL 8
REMARK VINA RESULT:      -4.6      2.475      3.349
REMARK  7 active torsions:
REMARK  status: ('A' for Active; 'I' for Inactive)
REMARK    1  A    between atoms: O_3  and  C_2 
REMARK    2  A    between atoms: C_4  and  C_2 
REMARK    3  A    between atoms: C_4  and  N_5 
REMARK    4  A    between atoms: C_6  and  C_4 
REMARK    5  A    between atoms: C_7  and  C_6 
REMARK    6  A    between atoms: C_7  and  C_8 
REMARK    7  A    between atoms: N_9  and  C_8 
REMARK       I    between atoms: C_10  and  N_9 
REMARK       I    between atoms: N_13  and  C_10 
ROOT
HETATM    1  C   UNK N   1      30.859  16.985   8.301  0.00  0.00     0.023 C 
ENDROOT
BRANCH   1   2
HETATM    2  C   UNK N   1      31.977  17.955   8.642  0.00  0.00     0.037 C 
BRANCH   2   3
HETATM    3  C   UNK N   1      33.340  17.293   8.496  0.00  0.00     0.173 C 
BRANCH   3   4
HETATM    4  C   UNK N   1      34.290  18.163   7.717  0.00  0.00     0.163 C 
HETATM    5  O   UNK N   1      34.929  19.032   8.287  0.00  0.00    -0.648 OA
BRANCH   4   6
HETATM    6  O   UNK N   1      34.427  18.002   6.385  0.00  0.00    -0.775 OA
HETATM    7  H   UNK N   1      34.409  17.149   5.997  0.00  0.00     0.167 HD
ENDBRANCH   4   6
ENDBRANCH   3   4
BRANCH   3   8
HETATM    8  N   UNK N   1      33.872  17.012   9.818  0.00  0.00    -0.418 N 
HETATM    9  H   UNK N   1      33.599  17.586  10.616  0.00  0.00     0.150 HD
HETATM   10  H   UNK N   1      34.523  16.237   9.950  0.00  0.00     0.150 HD
ENDBRANCH   3   8
ENDBRANCH   2   3
ENDBRANCH   1   2
BRANCH   1  11
HETATM   11  C   UNK N   1      30.423  17.177   6.853  0.00  0.00     0.138 C 
BRANCH  11  12
HETATM   12  N   UNK N   1      30.941  16.128   6.005  0.00  0.00    -0.227 N 
HETATM   13  C   UNK N   1      31.800  16.385   4.903  0.00  0.00     0.665 C 
HETATM   14  N   UNK N   1      32.085  17.591   4.561  0.00  0.00    -0.235 N 
HETATM   15  N   UNK N   1      32.383  15.308   4.203  0.00  0.00    -0.235 N 
HETATM   16  H   UNK N   1      31.641  18.359   4.988  0.00  0.00     0.174 HD
ATOM     17  HN  UNK N   1      32.782  17.755   3.835  1.00  0.00     0.174 HD
HETATM   18  H   UNK N   1      32.856  15.434   3.350  0.00  0.00     0.174 HD
HETATM   19  H   UNK N   1      32.313  14.402   4.580  0.00  0.00     0.174 HD
HETATM   20  H   UNK N   1      30.689  15.196   6.199  0.00  0.00     0.177 HD
ENDBRANCH  11  12
ENDBRANCH   1  11
TORSDOF 7
ENDMDL
MODEL 9
REMARK VINA RESULT:      -4.5      1.902      2.225
REMARK  7 active torsions:
REMARK  status: ('A' for Active; 'I' for Inactive)
REMARK    1  A    between atoms: O_3  and  C_2 
REMARK    2  A    between atoms: C_4  and  C_2 
REMARK    3  A    between atoms: C_4  and  N_5 
REMARK    4  A    between atoms: C_6  and  C_4 
REMARK    5  A    between atoms: C_7  and  C_6 
REMARK    6  A    between atoms: C_7  and  C_8 
REMARK    7  A    between atoms: N_9  and  C_8 
REMARK       I    between atoms: C_10  and  N_9 
REMARK       I    between atoms: N_13  and  C_10 
ROOT
HETATM    1  C   UNK N   1      30.730  17.147   8.184  0.00  0.00     0.023 C 
ENDROOT
BRANCH   1   2
HETATM    2  C   UNK N   1      31.916  18.026   8.541  0.00  0.00     0.037 C 
BRANCH   2   3
HETATM    3  C   UNK N   1      33.228  17.273   8.365  0.00  0.00     0.173 C 
BRANCH   3   4
HETATM    4  C   UNK N   1      34.252  18.119   7.656  0.00  0.00     0.163 C 
HETATM    5  O   UNK N   1      34.452  17.963   6.461  0.00  0.00    -0.648 OA
BRANCH   4   6
HETATM    6  O   UNK N   1      34.967  19.039   8.334  0.00  0.00    -0.775 OA
HETATM    7  H   UNK N   1      34.928  19.086   9.269  0.00  0.00     0.167 HD
ENDBRANCH   4   6
ENDBRANCH   3   4
BRANCH   3   8
HETATM    8  N   UNK N   1      33.717  16.866   9.670  0.00  0.00    -0.418 N 
HETATM    9  H   UNK N   1      33.078  16.792  10.461  0.00  0.00     0.150 HD
HETATM   10  H   UNK N   1      34.707  16.651   9.797  0.00  0.00     0.150 HD
ENDBRANCH   3   8
ENDBRANCH   2   3
ENDBRANCH   1   2
BRANCH   1  11
HETATM   11  C   UNK N   1      30.988  16.431   6.864  0.00  0.00     0.138 C 
BRANCH  11  12
HETATM   12  N   UNK N   1      30.656  17.272   5.736  0.00  0.00    -0.227 N 
HETATM   13  C   UNK N   1      29.406  17.197   5.063  0.00  0.00     0.665 C 
HETATM   14  N   UNK N   1      28.541  16.303   5.386  0.00  0.00    -0.235 N 
HETATM   15  N   UNK N   1      29.092  18.140   4.063  0.00  0.00    -0.235 N 
HETATM   16  H   UNK N   1      28.759  15.592   6.032  0.00  0.00     0.174 HD
ATOM     17  HN  UNK N   1      27.612  16.329   4.965  1.00  0.00     0.174 HD
HETATM   18  H   UNK N   1      28.311  18.036   3.473  0.00  0.00     0.174 HD
HETATM   19  H   UNK N   1      29.672  18.927   3.952  0.00  0.00     0.174 HD
HETATM   20  H   UNK N   1      31.323  17.923   5.421  0.00  0.00     0.177 HD
ENDBRANCH  11  12
ENDBRANCH   1  11
TORSDOF 7
ENDMDL
