MODEL 1
REMARK VINA RESULT:      -8.5      0.000      0.000
REMARK  15 active torsions:
REMARK  status: ('A' for Active; 'I' for Inactive)
REMARK    1  A    between atoms: C_2  and  C_6 
REMARK    2  A    between atoms: C_5  and  O_10 
REMARK    3  A    between atoms: C_6  and  O_11 
REMARK    4  A    between atoms: C_7  and  O_14 
REMARK    5  A    between atoms: C_8  and  O_15 
REMARK    6  A    between atoms: O_15  and  C_18 
REMARK    7  A    between atoms: C_17  and  O_21 
REMARK    8  A    between atoms: C_22  and  O_27 
REMARK    9  A    between atoms: C_25  and  O_31 
REMARK   10  A    between atoms: C_26  and  N_33 
REMARK   11  A    between atoms: C_30  and  O_37 
REMARK   12  A    between atoms: C_32  and  O_38 
REMARK   13  A    between atoms: C_42  and  O_45 
REMARK   14  A    between atoms: C_47  and  O_50 
REMARK   15  A    between atoms: C_62  and  O_65 
ROOT
HETATM    1  C   UNK N   1      26.541  18.348   5.856  0.00  0.00     0.144 C 
HETATM    2  C   UNK N   1      27.789  19.214   6.169  0.00  0.00     0.141 C 
HETATM    3  O   UNK N   1      26.920  17.189   5.130  0.00  0.00    -0.349 OA
HETATM    4  C   UNK N   1      25.605  19.213   4.988  0.00  0.00     0.069 C 
HETATM    5  C   UNK N   1      28.952  18.399   6.782  0.00  0.00     0.140 C 
HETATM    6  C   UNK N   1      27.878  16.351   5.786  0.00  0.00     0.166 C 
HETATM    7  C   UNK N   1      24.366  18.576   4.347  0.00  0.00     0.150 C 
HETATM    8  C   UNK N   1      28.547  16.964   7.018  0.00  0.00     0.101 C 
HETATM    9  C   UNK N   1      27.246  15.066   6.312  0.00  0.00     0.100 C 
HETATM   10  C   UNK N   1      24.183  17.107   4.542  0.00  0.00     0.005 C 
HETATM   11  C   UNK N   1      26.108  14.520   5.481  0.00  0.00     0.125 C 
HETATM   12  C   UNK N   1      24.328  16.340   3.475  0.00  0.00    -0.002 C 
HETATM   13  C   UNK N   1      26.316  13.040   5.275  0.00  0.00     0.066 C 
HETATM   14  C   UNK N   1      23.637  15.069   3.415  0.00  0.00    -0.000 C 
HETATM   15  C   UNK N   1      27.236  12.757   4.092  0.00  0.00     0.149 C 
HETATM   16  C   UNK N   1      23.598  14.443   2.254  0.00  0.00     0.000 C 
HETATM   17  C   UNK N   1      27.733  11.305   4.101  0.00  0.00     0.147 C 
HETATM   18  C   UNK N   1      22.432  13.629   1.981  0.00  0.00     0.000 C 
HETATM   19  C   UNK N   1      26.649  10.297   4.511  0.00  0.00     0.036 C 
HETATM   20  C   UNK N   1      22.205  13.190   0.750  0.00  0.00     0.000 C 
HETATM   21  C   UNK N   1      25.973   9.632   3.323  0.00  0.00     0.034 C 
HETATM   22  C   UNK N   1      20.829  12.882   0.344  0.00  0.00     0.000 C 
HETATM   23  C   UNK N   1      25.272  10.641   2.435  0.00  0.00     0.120 C 
HETATM   24  C   UNK N   1      19.854  13.720   0.728  0.00  0.00     0.000 C 
HETATM   25  C   UNK N   1      25.054  10.081   1.034  0.00  0.00     0.064 C 
HETATM   26  C   UNK N   1      18.437  13.608   0.341  0.00  0.00     0.000 C 
HETATM   27  C   UNK N   1      23.768   9.290   0.816  0.00  0.00     0.130 C 
HETATM   28  C   UNK N   1      17.822  12.502  -0.089  0.00  0.00     0.000 C 
HETATM   29  C   UNK N   1      23.519   8.215   1.863  0.00  0.00     0.142 C 
HETATM   30  C   UNK N   1      18.445  11.175  -0.114  0.00  0.00     0.000 C 
HETATM   31  C   UNK N   1      22.454   7.306   1.363  0.00  0.00     0.261 C 
HETATM   32  C   UNK N   1      17.839  10.208  -0.785  0.00  0.00    -0.000 C 
HETATM   33  O   UNK N   1      22.679   6.586   0.231  0.00  0.00    -0.316 OA
HETATM   34  O   UNK N   1      21.377   7.254   1.945  0.00  0.00    -0.265 OA
HETATM   35  C   UNK N   1      18.334   8.834  -0.745  0.00  0.00    -0.004 C 
HETATM   36  C   UNK N   1      21.726   5.838  -0.438  0.00  0.00     0.134 C 
HETATM   37  C   UNK N   1      17.776   7.937  -1.553  0.00  0.00    -0.020 C 
HETATM   38  C   UNK N   1      20.575   6.735  -0.941  0.00  0.00     0.040 C 
HETATM   39  C   UNK N   1      21.238   4.701   0.455  0.00  0.00     0.040 C 
HETATM   40  C   UNK N   1      18.092   6.471  -1.496  0.00  0.00     0.033 C 
HETATM   41  C   UNK N   1      19.532   6.060  -1.852  0.00  0.00     0.131 C 
HETATM   42  C   UNK N   1      21.147   7.923  -1.703  0.00  0.00     0.015 C 
HETATM   43  C   UNK N   1      17.118   5.774  -2.429  0.00  0.00     0.017 C 
ENDROOT
BRANCH   7  44
HETATM   44  O   UNK N   1      23.180  19.278   4.667  0.00  0.00    -0.349 OA
BRANCH  44  45
HETATM   45  C   UNK N   1      22.201  18.899   3.717  0.00  0.00     0.291 C 
HETATM   46  C   UNK N   1      21.673  20.093   2.913  0.00  0.00     0.198 C 
HETATM   47  C   UNK N   1      20.654  19.560   1.890  0.00  0.00     0.139 C 
HETATM   48  C   UNK N   1      19.621  18.642   2.551  0.00  0.00     0.171 C 
HETATM   49  C   UNK N   1      20.365  17.618   3.411  0.00  0.00     0.151 C 
HETATM   50  O   UNK N   1      21.110  18.306   4.384  0.00  0.00    -0.351 OA
HETATM   51  C   UNK N   1      19.384  16.692   4.106  0.00  0.00     0.042 C 
BRANCH  46  52
HETATM   52  O   UNK N   1      22.719  20.729   2.244  0.00  0.00    -0.388 OA
HETATM   53  H   UNK N   1      23.136  20.681   1.370  0.00  0.00     0.210 HD
ENDBRANCH  46  52
BRANCH  47  54
HETATM   54  N   UNK N   1      19.982  20.663   1.223  0.00  0.00    -0.421 N 
HETATM   55  H   UNK N   1      20.248  20.926   0.274  0.00  0.00     0.150 HD
HETATM   56  H   UNK N   1      19.244  21.176   1.705  0.00  0.00     0.150 HD
ENDBRANCH  47  54
BRANCH  48  57
HETATM   57  O   UNK N   1      18.869  17.993   1.568  0.00  0.00    -0.391 OA
HETATM   58  H   UNK N   1      18.141  18.395   1.070  0.00  0.00     0.210 HD
ENDBRANCH  48  57
ENDBRANCH  44  45
ENDBRANCH   7  44
BRANCH   2  59
HETATM   59  C   UNK N   1      27.496  20.508   6.899  0.00  0.00     0.148 C 
HETATM   60  O   UNK N   1      27.953  21.558   6.477  0.00  0.00    -0.650 OA
BRANCH  59  61
HETATM   61  O   UNK N   1      26.724  20.519   8.003  0.00  0.00    -0.776 OA
HETATM   62  H   UNK N   1      26.149  19.930   8.453  0.00  0.00     0.167 HD
ENDBRANCH  59  61
ENDBRANCH   2  59
BRANCH   5  63
HETATM   63  O   UNK N   1      29.406  18.930   7.993  0.00  0.00    -0.394 OA
HETATM   64  H   UNK N   1      29.731  18.465   8.779  0.00  0.00     0.210 HD
ENDBRANCH   5  63
BRANCH   6  65
HETATM   65  O   UNK N   1      28.868  16.020   4.859  0.00  0.00    -0.365 OA
HETATM   66  H   UNK N   1      29.493  15.358   4.525  0.00  0.00     0.213 HD
ENDBRANCH   6  65
BRANCH  11  67
HETATM   67  O   UNK N   1      24.932  14.701   6.206  0.00  0.00    -0.395 OA
HETATM   68  H   UNK N   1      24.031  14.370   6.350  0.00  0.00     0.210 HD
ENDBRANCH  11  67
BRANCH  15  69
HETATM   69  O   UNK N   1      26.590  13.068   2.894  0.00  0.00    -0.393 OA
HETATM   70  H   UNK N   1      25.884  13.697   2.681  0.00  0.00     0.210 HD
ENDBRANCH  15  69
BRANCH  17  71
HETATM   71  O   UNK N   1      28.800  11.202   4.991  0.00  0.00    -0.393 OA
HETATM   72  H   UNK N   1      29.721  11.245   4.690  0.00  0.00     0.210 HD
ENDBRANCH  17  71
BRANCH  23  73
HETATM   73  O   UNK N   1      24.092  11.111   3.020  0.00  0.00    -0.395 OA
HETATM   74  H   UNK N   1      23.808  11.933   3.447  0.00  0.00     0.210 HD
ENDBRANCH  23  73
BRANCH  27  75
HETATM   75  O   UNK N   1      22.676  10.154   0.734  0.00  0.00    -0.395 OA
HETATM   76  H   UNK N   1      22.072  10.263   1.485  0.00  0.00     0.210 HD
ENDBRANCH  27  75
BRANCH  41  77
HETATM   77  O   UNK N   1      19.627   4.665  -1.803  0.00  0.00    -0.394 OA
HETATM   78  H   UNK N   1      18.847   4.094  -1.880  0.00  0.00     0.210 HD
ENDBRANCH  41  77
TORSDOF 15
ENDMDL
MODEL 2
REMARK VINA RESULT:      -8.4      9.253     15.011
REMARK  15 active torsions:
REMARK  status: ('A' for Active; 'I' for Inactive)
REMARK    1  A    between atoms: C_2  and  C_6 
REMARK    2  A    between atoms: C_5  and  O_10 
REMARK    3  A    between atoms: C_6  and  O_11 
REMARK    4  A    between atoms: C_7  and  O_14 
REMARK    5  A    between atoms: C_8  and  O_15 
REMARK    6  A    between atoms: O_15  and  C_18 
REMARK    7  A    between atoms: C_17  and  O_21 
REMARK    8  A    between atoms: C_22  and  O_27 
REMARK    9  A    between atoms: C_25  and  O_31 
REMARK   10  A    between atoms: C_26  and  N_33 
REMARK   11  A    between atoms: C_30  and  O_37 
REMARK   12  A    between atoms: C_32  and  O_38 
REMARK   13  A    between atoms: C_42  and  O_45 
REMARK   14  A    between atoms: C_47  and  O_50 
REMARK   15  A    between atoms: C_62  and  O_65 
ROOT
HETATM    1  C   UNK N   1      29.890  17.252   6.452  0.00  0.00     0.144 C 
HETATM    2  C   UNK N   1      28.966  18.381   6.978  0.00  0.00     0.141 C 
HETATM    3  O   UNK N   1      31.091  17.212   7.206  0.00  0.00    -0.349 OA
HETATM    4  C   UNK N   1      30.217  17.592   4.984  0.00  0.00     0.069 C 
HETATM    5  C   UNK N   1      28.784  18.347   8.514  0.00  0.00     0.140 C 
HETATM    6  C   UNK N   1      30.916  17.011   8.613  0.00  0.00     0.166 C 
HETATM    7  C   UNK N   1      31.271  16.768   4.234  0.00  0.00     0.150 C 
HETATM    8  C   UNK N   1      29.479  17.150   9.119  0.00  0.00     0.101 C 
HETATM    9  C   UNK N   1      31.322  15.605   9.043  0.00  0.00     0.100 C 
HETATM   10  C   UNK N   1      31.988  15.716   5.015  0.00  0.00     0.005 C 
HETATM   11  C   UNK N   1      32.463  14.996   8.260  0.00  0.00     0.125 C 
HETATM   12  C   UNK N   1      33.270  15.925   5.262  0.00  0.00    -0.002 C 
HETATM   13  C   UNK N   1      33.456  14.396   9.226  0.00  0.00     0.066 C 
HETATM   14  C   UNK N   1      34.148  14.792   5.468  0.00  0.00    -0.000 C 
HETATM   15  C   UNK N   1      34.444  15.436   9.741  0.00  0.00     0.149 C 
HETATM   16  C   UNK N   1      35.449  15.013   5.466  0.00  0.00     0.000 C 
HETATM   17  C   UNK N   1      35.208  14.926  10.971  0.00  0.00     0.147 C 
HETATM   18  C   UNK N   1      36.299  13.945   4.984  0.00  0.00     0.000 C 
HETATM   19  C   UNK N   1      35.609  13.447  10.862  0.00  0.00     0.036 C 
HETATM   20  C   UNK N   1      37.574  14.187   4.710  0.00  0.00     0.000 C 
HETATM   21  C   UNK N   1      37.042  13.251  10.395  0.00  0.00     0.034 C 
HETATM   22  C   UNK N   1      38.268  13.340   3.732  0.00  0.00     0.000 C 
HETATM   23  C   UNK N   1      37.270  13.834   9.013  0.00  0.00     0.120 C 
HETATM   24  C   UNK N   1      37.609  12.993   2.617  0.00  0.00     0.000 C 
HETATM   25  C   UNK N   1      38.751  14.101   8.768  0.00  0.00     0.064 C 
HETATM   26  C   UNK N   1      38.180  12.221   1.499  0.00  0.00     0.000 C 
HETATM   27  C   UNK N   1      39.560  12.941   8.197  0.00  0.00     0.130 C 
HETATM   28  C   UNK N   1      39.249  11.422   1.557  0.00  0.00     0.000 C 
HETATM   29  C   UNK N   1      39.373  11.629   8.945  0.00  0.00     0.142 C 
HETATM   30  C   UNK N   1      39.950  11.081   2.798  0.00  0.00     0.000 C 
HETATM   31  C   UNK N   1      40.447  10.690   8.528  0.00  0.00     0.261 C 
HETATM   32  C   UNK N   1      41.133  10.491   2.712  0.00  0.00    -0.000 C 
HETATM   33  O   UNK N   1      41.743  11.011   8.789  0.00  0.00    -0.316 OA
HETATM   34  O   UNK N   1      40.157   9.670   7.915  0.00  0.00    -0.265 OA
HETATM   35  C   UNK N   1      41.827  10.008   3.903  0.00  0.00    -0.004 C 
HETATM   36  C   UNK N   1      42.844  10.321   8.313  0.00  0.00     0.134 C 
HETATM   37  C   UNK N   1      43.071   9.559   3.772  0.00  0.00    -0.020 C 
HETATM   38  C   UNK N   1      42.889  10.354   6.770  0.00  0.00     0.040 C 
HETATM   39  C   UNK N   1      42.850   8.902   8.871  0.00  0.00     0.040 C 
HETATM   40  C   UNK N   1      43.829   8.900   4.887  0.00  0.00     0.033 C 
HETATM   41  C   UNK N   1      44.155   9.773   6.111  0.00  0.00     0.131 C 
HETATM   42  C   UNK N   1      42.737  11.789   6.283  0.00  0.00     0.015 C 
HETATM   43  C   UNK N   1      45.116   8.363   4.287  0.00  0.00     0.017 C 
ENDROOT
BRANCH   7  44
HETATM   44  O   UNK N   1      30.771  16.241   3.020  0.00  0.00    -0.349 OA
BRANCH  44  45
HETATM   45  C   UNK N   1      29.553  15.585   3.321  0.00  0.00     0.291 C 
HETATM   46  C   UNK N   1      29.507  14.155   2.770  0.00  0.00     0.198 C 
HETATM   47  C   UNK N   1      28.166  13.528   3.191  0.00  0.00     0.139 C 
HETATM   48  C   UNK N   1      26.987  14.450   2.861  0.00  0.00     0.171 C 
HETATM   49  C   UNK N   1      27.310  15.852   3.381  0.00  0.00     0.151 C 
HETATM   50  O   UNK N   1      28.482  16.305   2.753  0.00  0.00    -0.351 OA
HETATM   51  C   UNK N   1      26.178  16.812   3.063  0.00  0.00     0.042 C 
BRANCH  46  52
HETATM   52  O   UNK N   1      30.560  13.401   3.290  0.00  0.00    -0.388 OA
HETATM   53  H   UNK N   1      30.682  12.511   3.656  0.00  0.00     0.210 HD
ENDBRANCH  46  52
BRANCH  47  54
HETATM   54  N   UNK N   1      27.984  12.240   2.544  0.00  0.00    -0.421 N 
HETATM   55  H   UNK N   1      27.878  11.395   3.106  0.00  0.00     0.150 HD
HETATM   56  H   UNK N   1      27.963  12.179   1.526  0.00  0.00     0.150 HD
ENDBRANCH  47  54
BRANCH  48  57
HETATM   57  O   UNK N   1      25.825  13.964   3.467  0.00  0.00    -0.391 OA
HETATM   58  H   UNK N   1      25.658  13.034   3.683  0.00  0.00     0.210 HD
ENDBRANCH  48  57
ENDBRANCH  44  45
ENDBRANCH   7  44
BRANCH   2  59
HETATM   59  C   UNK N   1      27.671  18.550   6.212  0.00  0.00     0.148 C 
HETATM   60  O   UNK N   1      27.520  19.520   5.487  0.00  0.00    -0.650 OA
BRANCH  59  61
HETATM   61  O   UNK N   1      26.688  17.635   6.307  0.00  0.00    -0.776 OA
HETATM   62  H   UNK N   1      25.950  17.464   6.861  0.00  0.00     0.167 HD
ENDBRANCH  59  61
ENDBRANCH   2  59
BRANCH   5  63
HETATM   63  O   UNK N   1      27.441  18.313   8.899  0.00  0.00    -0.394 OA
HETATM   64  H   UNK N   1      26.918  17.562   9.220  0.00  0.00     0.210 HD
ENDBRANCH   5  63
BRANCH   6  65
HETATM   65  O   UNK N   1      31.717  17.937   9.284  0.00  0.00    -0.365 OA
HETATM   66  H   UNK N   1      32.609  18.215   9.545  0.00  0.00     0.213 HD
ENDBRANCH   6  65
BRANCH  11  67
HETATM   67  O   UNK N   1      31.938  13.970   7.478  0.00  0.00    -0.395 OA
HETATM   68  H   UNK N   1      31.120  13.537   7.182  0.00  0.00     0.210 HD
ENDBRANCH  11  67
BRANCH  15  69
HETATM   69  O   UNK N   1      35.317  15.818   8.720  0.00  0.00    -0.393 OA
HETATM   70  H   UNK N   1      36.043  15.351   8.278  0.00  0.00     0.210 HD
ENDBRANCH  15  69
BRANCH  17  71
HETATM   71  O   UNK N   1      34.404  15.090  12.097  0.00  0.00    -0.393 OA
HETATM   72  H   UNK N   1      33.876  14.361  12.457  0.00  0.00     0.210 HD
ENDBRANCH  17  71
BRANCH  23  73
HETATM   73  O   UNK N   1      36.691  13.042   8.018  0.00  0.00    -0.395 OA
HETATM   74  H   UNK N   1      35.944  12.426   7.967  0.00  0.00     0.210 HD
ENDBRANCH  23  73
BRANCH  27  75
HETATM   75  O   UNK N   1      39.277  12.774   6.841  0.00  0.00    -0.395 OA
HETATM   76  H   UNK N   1      38.557  12.191   6.553  0.00  0.00     0.210 HD
ENDBRANCH  27  75
BRANCH  41  77
HETATM   77  O   UNK N   1      44.909   9.017   7.015  0.00  0.00    -0.394 OA
HETATM   78  H   UNK N   1      45.854   8.849   6.881  0.00  0.00     0.210 HD
ENDBRANCH  41  77
TORSDOF 15
ENDMDL
MODEL 3
REMARK VINA RESULT:      -7.9      4.271      8.469
REMARK  15 active torsions:
REMARK  status: ('A' for Active; 'I' for Inactive)
REMARK    1  A    between atoms: C_2  and  C_6 
REMARK    2  A    between atoms: C_5  and  O_10 
REMARK    3  A    between atoms: C_6  and  O_11 
REMARK    4  A    between atoms: C_7  and  O_14 
REMARK    5  A    between atoms: C_8  and  O_15 
REMARK    6  A    between atoms: O_15  and  C_18 
REMARK    7  A    between atoms: C_17  and  O_21 
REMARK    8  A    between atoms: C_22  and  O_27 
REMARK    9  A    between atoms: C_25  and  O_31 
REMARK   10  A    between atoms: C_26  and  N_33 
REMARK   11  A    between atoms: C_30  and  O_37 
REMARK   12  A    between atoms: C_32  and  O_38 
REMARK   13  A    between atoms: C_42  and  O_45 
REMARK   14  A    between atoms: C_47  and  O_50 
REMARK   15  A    between atoms: C_62  and  O_65 
ROOT
HETATM    1  C   UNK N   1      32.983  14.887   5.930  0.00  0.00     0.144 C 
HETATM    2  C   UNK N   1      33.932  15.506   6.988  0.00  0.00     0.141 C 
HETATM    3  O   UNK N   1      31.641  15.266   6.195  0.00  0.00    -0.349 OA
HETATM    4  C   UNK N   1      33.117  13.355   6.053  0.00  0.00     0.069 C 
HETATM    5  C   UNK N   1      33.700  17.021   7.196  0.00  0.00     0.140 C 
HETATM    6  C   UNK N   1      31.405  16.679   6.218  0.00  0.00     0.166 C 
HETATM    7  C   UNK N   1      32.158  12.448   5.271  0.00  0.00     0.150 C 
HETATM    8  C   UNK N   1      32.662  17.551   6.236  0.00  0.00     0.101 C 
HETATM    9  C   UNK N   1      30.648  17.150   4.982  0.00  0.00     0.100 C 
HETATM   10  C   UNK N   1      31.080  13.119   4.485  0.00  0.00     0.005 C 
HETATM   11  C   UNK N   1      29.656  16.160   4.417  0.00  0.00     0.125 C 
HETATM   12  C   UNK N   1      29.840  12.963   4.917  0.00  0.00    -0.002 C 
HETATM   13  C   UNK N   1      28.353  16.871   4.142  0.00  0.00     0.066 C 
HETATM   14  C   UNK N   1      28.744  13.053   3.975  0.00  0.00    -0.000 C 
HETATM   15  C   UNK N   1      27.477  16.946   5.387  0.00  0.00     0.149 C 
HETATM   16  C   UNK N   1      27.553  12.653   4.377  0.00  0.00     0.000 C 
HETATM   17  C   UNK N   1      26.339  17.963   5.214  0.00  0.00     0.147 C 
HETATM   18  C   UNK N   1      26.674  12.089   3.374  0.00  0.00     0.000 C 
HETATM   19  C   UNK N   1      25.712  17.934   3.812  0.00  0.00     0.036 C 
HETATM   20  C   UNK N   1      25.581  11.435   3.746  0.00  0.00     0.000 C 
HETATM   21  C   UNK N   1      24.438  17.107   3.746  0.00  0.00     0.034 C 
HETATM   22  C   UNK N   1      25.018  10.416   2.851  0.00  0.00     0.000 C 
HETATM   23  C   UNK N   1      24.689  15.655   4.106  0.00  0.00     0.120 C 
HETATM   24  C   UNK N   1      25.868   9.588   2.224  0.00  0.00     0.000 C 
HETATM   25  C   UNK N   1      23.398  14.966   4.537  0.00  0.00     0.064 C 
HETATM   26  C   UNK N   1      25.473   8.462   1.360  0.00  0.00     0.000 C 
HETATM   27  C   UNK N   1      22.563  14.341   3.424  0.00  0.00     0.130 C 
HETATM   28  C   UNK N   1      24.295   8.315   0.745  0.00  0.00     0.000 C 
HETATM   29  C   UNK N   1      22.303  15.273   2.249  0.00  0.00     0.142 C 
HETATM   30  C   UNK N   1      23.246   9.338   0.729  0.00  0.00     0.000 C 
HETATM   31  C   UNK N   1      21.218  14.690   1.416  0.00  0.00     0.261 C 
HETATM   32  C   UNK N   1      22.038   8.995   0.310  0.00  0.00    -0.000 C 
HETATM   33  O   UNK N   1      19.982  14.529   1.961  0.00  0.00    -0.316 OA
HETATM   34  O   UNK N   1      21.462  14.321   0.274  0.00  0.00    -0.265 OA
HETATM   35  C   UNK N   1      20.981   9.991   0.146  0.00  0.00    -0.004 C 
HETATM   36  C   UNK N   1      18.934  13.850   1.364  0.00  0.00     0.134 C 
HETATM   37  C   UNK N   1      19.752   9.569  -0.135  0.00  0.00    -0.020 C 
HETATM   38  C   UNK N   1      19.297  12.367   1.134  0.00  0.00     0.040 C 
HETATM   39  C   UNK N   1      18.519  14.560   0.079  0.00  0.00     0.040 C 
HETATM   40  C   UNK N   1      18.623  10.497  -0.475  0.00  0.00     0.033 C 
HETATM   41  C   UNK N   1      18.159  11.455   0.636  0.00  0.00     0.131 C 
HETATM   42  C   UNK N   1      19.834  11.765   2.425  0.00  0.00     0.015 C 
HETATM   43  C   UNK N   1      17.459   9.629  -0.917  0.00  0.00     0.017 C 
ENDROOT
BRANCH   7  44
HETATM   44  O   UNK N   1      32.849  11.504   4.475  0.00  0.00    -0.349 OA
BRANCH  44  45
HETATM   45  C   UNK N   1      32.826  11.985   3.144  0.00  0.00     0.291 C 
HETATM   46  C   UNK N   1      32.399  10.909   2.140  0.00  0.00     0.198 C 
HETATM   47  C   UNK N   1      32.369  11.551   0.742  0.00  0.00     0.139 C 
HETATM   48  C   UNK N   1      33.663  12.318   0.448  0.00  0.00     0.171 C 
HETATM   49  C   UNK N   1      33.968  13.227   1.640  0.00  0.00     0.151 C 
HETATM   50  O   UNK N   1      34.116  12.428   2.786  0.00  0.00    -0.351 OA
HETATM   51  C   UNK N   1      35.254  13.997   1.407  0.00  0.00     0.042 C 
BRANCH  46  52
HETATM   52  O   UNK N   1      31.131  10.423   2.459  0.00  0.00    -0.388 OA
HETATM   53  H   UNK N   1      30.755   9.763   3.063  0.00  0.00     0.210 HD
ENDBRANCH  46  52
BRANCH  47  54
HETATM   54  N   UNK N   1      32.151  10.537  -0.277  0.00  0.00    -0.421 N 
HETATM   55  H   UNK N   1      32.795   9.750  -0.362  0.00  0.00     0.150 HD
HETATM   56  H   UNK N   1      31.354  10.612  -0.908  0.00  0.00     0.150 HD
ENDBRANCH  47  54
BRANCH  48  57
HETATM   57  O   UNK N   1      33.506  13.079  -0.714  0.00  0.00    -0.391 OA
HETATM   58  H   UNK N   1      33.634  12.749  -1.617  0.00  0.00     0.210 HD
ENDBRANCH  48  57
ENDBRANCH  44  45
ENDBRANCH   7  44
BRANCH   2  59
HETATM   59  C   UNK N   1      35.389  15.125   6.834  0.00  0.00     0.148 C 
HETATM   60  O   UNK N   1      35.972  15.372   5.790  0.00  0.00    -0.650 OA
BRANCH  59  61
HETATM   61  O   UNK N   1      36.058  14.529   7.840  0.00  0.00    -0.776 OA
HETATM   62  H   UNK N   1      36.898  14.136   7.977  0.00  0.00     0.167 HD
ENDBRANCH  59  61
ENDBRANCH   2  59
BRANCH   5  63
HETATM   63  O   UNK N   1      34.867  17.773   7.037  0.00  0.00    -0.394 OA
HETATM   64  H   UNK N   1      35.754  17.476   6.779  0.00  0.00     0.210 HD
ENDBRANCH   5  63
BRANCH   6  65
HETATM   65  O   UNK N   1      30.645  16.970   7.353  0.00  0.00    -0.365 OA
HETATM   66  H   UNK N   1      29.833  16.813   7.859  0.00  0.00     0.213 HD
ENDBRANCH   6  65
BRANCH  11  67
HETATM   67  O   UNK N   1      30.166  15.697   3.205  0.00  0.00    -0.395 OA
HETATM   68  H   UNK N   1      30.975  15.545   2.692  0.00  0.00     0.210 HD
ENDBRANCH  11  67
BRANCH  15  69
HETATM   69  O   UNK N   1      26.984  15.680   5.707  0.00  0.00    -0.393 OA
HETATM   70  H   UNK N   1      27.037  14.827   5.248  0.00  0.00     0.210 HD
ENDBRANCH  15  69
BRANCH  17  71
HETATM   71  O   UNK N   1      26.840  19.240   5.455  0.00  0.00    -0.393 OA
HETATM   72  H   UNK N   1      27.175  19.800   4.737  0.00  0.00     0.210 HD
ENDBRANCH  17  71
BRANCH  23  73
HETATM   73  O   UNK N   1      25.348  14.975   3.078  0.00  0.00    -0.395 OA
HETATM   74  H   UNK N   1      25.084  14.393   2.350  0.00  0.00     0.210 HD
ENDBRANCH  23  73
BRANCH  27  75
HETATM   75  O   UNK N   1      23.152  13.155   2.985  0.00  0.00    -0.395 OA
HETATM   76  H   UNK N   1      22.835  12.711   2.183  0.00  0.00     0.210 HD
ENDBRANCH  27  75
BRANCH  41  77
HETATM   77  O   UNK N   1      17.070  12.196   0.165  0.00  0.00    -0.394 OA
HETATM   78  H   UNK N   1      17.157  13.125  -0.100  0.00  0.00     0.210 HD
ENDBRANCH  41  77
TORSDOF 15
ENDMDL
MODEL 4
REMARK VINA RESULT:      -7.8      5.556     10.517
REMARK  15 active torsions:
REMARK  status: ('A' for Active; 'I' for Inactive)
REMARK    1  A    between atoms: C_2  and  C_6 
REMARK    2  A    between atoms: C_5  and  O_10 
REMARK    3  A    between atoms: C_6  and  O_11 
REMARK    4  A    between atoms: C_7  and  O_14 
REMARK    5  A    between atoms: C_8  and  O_15 
REMARK    6  A    between atoms: O_15  and  C_18 
REMARK    7  A    between atoms: C_17  and  O_21 
REMARK    8  A    between atoms: C_22  and  O_27 
REMARK    9  A    between atoms: C_25  and  O_31 
REMARK   10  A    between atoms: C_26  and  N_33 
REMARK   11  A    between atoms: C_30  and  O_37 
REMARK   12  A    between atoms: C_32  and  O_38 
REMARK   13  A    between atoms: C_42  and  O_45 
REMARK   14  A    between atoms: C_47  and  O_50 
REMARK   15  A    between atoms: C_62  and  O_65 
ROOT
HETATM    1  C   UNK N   1      36.113  11.860   5.159  0.00  0.00     0.144 C 
HETATM    2  C   UNK N   1      37.399  11.081   4.779  0.00  0.00     0.141 C 
HETATM    3  O   UNK N   1      35.020  11.415   4.370  0.00  0.00    -0.349 OA
HETATM    4  C   UNK N   1      36.389  13.348   4.861  0.00  0.00     0.069 C 
HETATM    5  C   UNK N   1      37.188   9.549   4.741  0.00  0.00     0.140 C 
HETATM    6  C   UNK N   1      34.729  10.017   4.473  0.00  0.00     0.166 C 
HETATM    7  C   UNK N   1      35.241  14.362   4.948  0.00  0.00     0.150 C 
HETATM    8  C   UNK N   1      35.793   9.179   5.184  0.00  0.00     0.101 C 
HETATM    9  C   UNK N   1      33.459   9.758   5.277  0.00  0.00     0.100 C 
HETATM   10  C   UNK N   1      33.881  13.820   5.245  0.00  0.00     0.005 C 
HETATM   11  C   UNK N   1      32.386  10.815   5.147  0.00  0.00     0.125 C 
HETATM   12  C   UNK N   1      32.990  13.875   4.269  0.00  0.00    -0.002 C 
HETATM   13  C   UNK N   1      31.059  10.139   4.900  0.00  0.00     0.066 C 
HETATM   14  C   UNK N   1      31.581  13.933   4.596  0.00  0.00    -0.000 C 
HETATM   15  C   UNK N   1      30.848   9.829   3.422  0.00  0.00     0.149 C 
HETATM   16  C   UNK N   1      30.736  14.234   3.629  0.00  0.00     0.000 C 
HETATM   17  C   UNK N   1      29.694   8.839   3.214  0.00  0.00     0.147 C 
HETATM   18  C   UNK N   1      29.534  14.950   4.002  0.00  0.00     0.000 C 
HETATM   19  C   UNK N   1      28.497   9.104   4.140  0.00  0.00     0.036 C 
HETATM   20  C   UNK N   1      28.780  15.509   3.064  0.00  0.00     0.000 C 
HETATM   21  C   UNK N   1      27.392   9.906   3.471  0.00  0.00     0.034 C 
HETATM   22  C   UNK N   1      27.938  16.659   3.415  0.00  0.00     0.000 C 
HETATM   23  C   UNK N   1      27.876  11.276   3.034  0.00  0.00     0.120 C 
HETATM   24  C   UNK N   1      28.458  17.600   4.218  0.00  0.00     0.000 C 
HETATM   25  C   UNK N   1      26.975  11.854   1.948  0.00  0.00     0.064 C 
HETATM   26  C   UNK N   1      27.785  18.854   4.602  0.00  0.00     0.000 C 
HETATM   27  C   UNK N   1      25.766  12.651   2.427  0.00  0.00     0.130 C 
HETATM   28  C   UNK N   1      26.470  19.086   4.568  0.00  0.00     0.000 C 
HETATM   29  C   UNK N   1      24.935  11.937   3.483  0.00  0.00     0.142 C 
HETATM   30  C   UNK N   1      25.465  18.063   4.264  0.00  0.00     0.000 C 
HETATM   31  C   UNK N   1      23.630  12.638   3.610  0.00  0.00     0.261 C 
HETATM   32  C   UNK N   1      24.225  18.453   4.014  0.00  0.00    -0.000 C 
HETATM   33  O   UNK N   1      22.795  12.678   2.537  0.00  0.00    -0.316 OA
HETATM   34  O   UNK N   1      23.346  13.207   4.657  0.00  0.00    -0.265 OA
HETATM   35  C   UNK N   1      23.148  17.483   3.832  0.00  0.00    -0.004 C 
HETATM   36  C   UNK N   1      21.637  13.432   2.459  0.00  0.00     0.134 C 
HETATM   37  C   UNK N   1      21.958  17.925   3.438  0.00  0.00    -0.020 C 
HETATM   38  C   UNK N   1      21.951  14.938   2.583  0.00  0.00     0.040 C 
HETATM   39  C   UNK N   1      20.634  12.952   3.503  0.00  0.00     0.040 C 
HETATM   40  C   UNK N   1      20.739  17.051   3.363  0.00  0.00     0.033 C 
HETATM   41  C   UNK N   1      20.775  15.903   2.339  0.00  0.00     0.131 C 
HETATM   42  C   UNK N   1      23.059  15.312   1.608  0.00  0.00     0.015 C 
HETATM   43  C   UNK N   1      19.562  17.962   3.066  0.00  0.00     0.017 C 
ENDROOT
BRANCH   7  44
HETATM   44  O   UNK N   1      35.550  15.443   5.806  0.00  0.00    -0.349 OA
BRANCH  44  45
HETATM   45  C   UNK N   1      34.742  15.306   6.960  0.00  0.00     0.291 C 
HETATM   46  C   UNK N   1      34.014  16.605   7.324  0.00  0.00     0.198 C 
HETATM   47  C   UNK N   1      33.139  16.328   8.558  0.00  0.00     0.139 C 
HETATM   48  C   UNK N   1      33.934  15.630   9.666  0.00  0.00     0.171 C 
HETATM   49  C   UNK N   1      34.687  14.449   9.050  0.00  0.00     0.151 C 
HETATM   50  O   UNK N   1      35.550  14.938   8.054  0.00  0.00    -0.351 OA
HETATM   51  C   UNK N   1      35.509  13.732  10.105  0.00  0.00     0.042 C 
BRANCH  46  52
HETATM   52  O   UNK N   1      33.210  17.025   6.264  0.00  0.00    -0.388 OA
HETATM   53  H   UNK N   1      32.578  16.621   5.649  0.00  0.00     0.210 HD
ENDBRANCH  46  52
BRANCH  47  54
HETATM   54  N   UNK N   1      32.568  17.566   9.062  0.00  0.00    -0.421 N 
HETATM   55  H   UNK N   1      32.994  18.461   8.822  0.00  0.00     0.150 HD
HETATM   56  H   UNK N   1      31.741  17.540   9.658  0.00  0.00     0.150 HD
ENDBRANCH  47  54
BRANCH  48  57
HETATM   57  O   UNK N   1      33.063  15.182  10.662  0.00  0.00    -0.391 OA
HETATM   58  H   UNK N   1      32.243  14.689  10.503  0.00  0.00     0.210 HD
ENDBRANCH  48  57
ENDBRANCH  44  45
ENDBRANCH   7  44
BRANCH   2  59
HETATM   59  C   UNK N   1      38.644  11.510   5.526  0.00  0.00     0.148 C 
HETATM   60  O   UNK N   1      38.678  11.429   6.743  0.00  0.00    -0.650 OA
BRANCH  59  61
HETATM   61  O   UNK N   1      39.724  11.966   4.863  0.00  0.00    -0.776 OA
HETATM   62  H   UNK N   1      40.115  12.794   4.660  0.00  0.00     0.167 HD
ENDBRANCH  59  61
ENDBRANCH   2  59
BRANCH   5  63
HETATM   63  O   UNK N   1      38.100   8.858   5.545  0.00  0.00    -0.394 OA
HETATM   64  H   UNK N   1      38.728   9.209   6.195  0.00  0.00     0.210 HD
ENDBRANCH   5  63
BRANCH   6  65
HETATM   65  O   UNK N   1      34.556   9.516   3.181  0.00  0.00    -0.365 OA
HETATM   66  H   UNK N   1      34.235   8.798   2.615  0.00  0.00     0.213 HD
ENDBRANCH   6  65
BRANCH  11  67
HETATM   67  O   UNK N   1      32.313  11.493   6.361  0.00  0.00    -0.395 OA
HETATM   68  H   UNK N   1      31.865  11.533   7.221  0.00  0.00     0.210 HD
ENDBRANCH  11  67
BRANCH  15  69
HETATM   69  O   UNK N   1      30.643  11.010   2.707  0.00  0.00    -0.393 OA
HETATM   70  H   UNK N   1      31.249  11.587   2.217  0.00  0.00     0.210 HD
ENDBRANCH  15  69
BRANCH  17  71
HETATM   71  O   UNK N   1      30.163   7.548   3.447  0.00  0.00    -0.393 OA
HETATM   72  H   UNK N   1      30.010   7.095   4.291  0.00  0.00     0.210 HD
ENDBRANCH  17  71
BRANCH  23  73
HETATM   73  O   UNK N   1      28.033  12.138   4.122  0.00  0.00    -0.395 OA
HETATM   74  H   UNK N   1      27.669  12.200   5.018  0.00  0.00     0.210 HD
ENDBRANCH  23  73
BRANCH  27  75
HETATM   75  O   UNK N   1      26.164  13.906   2.886  0.00  0.00    -0.395 OA
HETATM   76  H   UNK N   1      27.098  14.170   2.862  0.00  0.00     0.210 HD
ENDBRANCH  27  75
BRANCH  41  77
HETATM   77  O   UNK N   1      19.545  15.237   2.368  0.00  0.00    -0.394 OA
HETATM   78  H   UNK N   1      18.803  15.504   1.803  0.00  0.00     0.210 HD
ENDBRANCH  41  77
TORSDOF 15
ENDMDL
MODEL 5
REMARK VINA RESULT:      -7.8      3.975      7.329
REMARK  15 active torsions:
REMARK  status: ('A' for Active; 'I' for Inactive)
REMARK    1  A    between atoms: C_2  and  C_6 
REMARK    2  A    between atoms: C_5  and  O_10 
REMARK    3  A    between atoms: C_6  and  O_11 
REMARK    4  A    between atoms: C_7  and  O_14 
REMARK    5  A    between atoms: C_8  and  O_15 
REMARK    6  A    between atoms: O_15  and  C_18 
REMARK    7  A    between atoms: C_17  and  O_21 
REMARK    8  A    between atoms: C_22  and  O_27 
REMARK    9  A    between atoms: C_25  and  O_31 
REMARK   10  A    between atoms: C_26  and  N_33 
REMARK   11  A    between atoms: C_30  and  O_37 
REMARK   12  A    between atoms: C_32  and  O_38 
REMARK   13  A    between atoms: C_42  and  O_45 
REMARK   14  A    between atoms: C_47  and  O_50 
REMARK   15  A    between atoms: C_62  and  O_65 
ROOT
HETATM    1  C   UNK N   1      21.317  15.921   5.961  0.00  0.00     0.144 C 
HETATM    2  C   UNK N   1      20.325  16.179   7.125  0.00  0.00     0.141 C 
HETATM    3  O   UNK N   1      21.158  14.601   5.466  0.00  0.00    -0.349 OA
HETATM    4  C   UNK N   1      22.737  16.083   6.542  0.00  0.00     0.069 C 
HETATM    5  C   UNK N   1      18.873  15.770   6.782  0.00  0.00     0.140 C 
HETATM    6  C   UNK N   1      19.843  14.287   4.993  0.00  0.00     0.166 C 
HETATM    7  C   UNK N   1      23.952  15.701   5.687  0.00  0.00     0.150 C 
HETATM    8  C   UNK N   1      18.760  15.307   5.349  0.00  0.00     0.101 C 
HETATM    9  C   UNK N   1      19.788  14.207   3.472  0.00  0.00     0.100 C 
HETATM   10  C   UNK N   1      23.675  15.108   4.345  0.00  0.00     0.005 C 
HETATM   11  C   UNK N   1      21.045  13.696   2.806  0.00  0.00     0.125 C 
HETATM   12  C   UNK N   1      23.976  13.831   4.182  0.00  0.00    -0.002 C 
HETATM   13  C   UNK N   1      20.669  12.653   1.782  0.00  0.00     0.066 C 
HETATM   14  C   UNK N   1      24.293  13.339   2.857  0.00  0.00    -0.000 C 
HETATM   15  C   UNK N   1      20.513  11.273   2.411  0.00  0.00     0.149 C 
HETATM   16  C   UNK N   1      24.824  12.136   2.758  0.00  0.00     0.000 C 
HETATM   17  C   UNK N   1      19.791  10.301   1.466  0.00  0.00     0.147 C 
HETATM   18  C   UNK N   1      25.739  11.908   1.659  0.00  0.00     0.000 C 
HETATM   19  C   UNK N   1      20.225  10.452   0.000  0.00  0.00     0.036 C 
HETATM   20  C   UNK N   1      26.503  10.823   1.649  0.00  0.00     0.000 C 
HETATM   21  C   UNK N   1      21.278   9.438  -0.417  0.00  0.00     0.034 C 
HETATM   22  C   UNK N   1      27.771  10.848   0.910  0.00  0.00     0.000 C 
HETATM   23  C   UNK N   1      22.550   9.578   0.397  0.00  0.00     0.120 C 
HETATM   24  C   UNK N   1      28.529  11.951   0.995  0.00  0.00     0.000 C 
HETATM   25  C   UNK N   1      23.372   8.295   0.355  0.00  0.00     0.064 C 
HETATM   26  C   UNK N   1      29.862  12.113   0.388  0.00  0.00     0.000 C 
HETATM   27  C   UNK N   1      24.360   8.164  -0.801  0.00  0.00     0.130 C 
HETATM   28  C   UNK N   1      30.356  11.407  -0.634  0.00  0.00     0.000 C 
HETATM   29  C   UNK N   1      23.754   8.453  -2.166  0.00  0.00     0.142 C 
HETATM   30  C   UNK N   1      29.579  10.433  -1.407  0.00  0.00     0.000 C 
HETATM   31  C   UNK N   1      24.692   7.964  -3.211  0.00  0.00     0.261 C 
HETATM   32  C   UNK N   1      30.226   9.617  -2.224  0.00  0.00    -0.000 C 
HETATM   33  O   UNK N   1      24.975   6.635  -3.275  0.00  0.00    -0.316 OA
HETATM   34  O   UNK N   1      25.232   8.766  -3.965  0.00  0.00    -0.265 OA
HETATM   35  C   UNK N   1      29.507   8.713  -3.119  0.00  0.00    -0.004 C 
HETATM   36  C   UNK N   1      25.949   6.068  -4.078  0.00  0.00     0.134 C 
HETATM   37  C   UNK N   1      30.206   7.816  -3.807  0.00  0.00    -0.020 C 
HETATM   38  C   UNK N   1      27.349   6.600  -3.703  0.00  0.00     0.040 C 
HETATM   39  C   UNK N   1      25.609   6.294  -5.547  0.00  0.00     0.040 C 
HETATM   40  C   UNK N   1      29.602   6.940  -4.865  0.00  0.00     0.033 C 
HETATM   41  C   UNK N   1      28.546   5.923  -4.399  0.00  0.00     0.131 C 
HETATM   42  C   UNK N   1      27.562   6.470  -2.201  0.00  0.00     0.015 C 
HETATM   43  C   UNK N   1      30.750   6.209  -5.538  0.00  0.00     0.017 C 
ENDROOT
BRANCH   7  44
HETATM   44  O   UNK N   1      24.886  16.758   5.588  0.00  0.00    -0.349 OA
BRANCH  44  45
HETATM   45  C   UNK N   1      24.442  17.612   4.550  0.00  0.00     0.291 C 
HETATM   46  C   UNK N   1      25.492  18.659   4.163  0.00  0.00     0.198 C 
HETATM   47  C   UNK N   1      24.922  19.497   3.005  0.00  0.00     0.139 C 
HETATM   48  C   UNK N   1      23.507  19.997   3.317  0.00  0.00     0.171 C 
HETATM   49  C   UNK N   1      22.675  18.813   3.815  0.00  0.00     0.151 C 
HETATM   50  O   UNK N   1      23.281  18.293   4.971  0.00  0.00    -0.351 OA
HETATM   51  C   UNK N   1      21.265  19.260   4.157  0.00  0.00     0.042 C 
BRANCH  46  52
HETATM   52  O   UNK N   1      26.672  18.036   3.753  0.00  0.00    -0.388 OA
HETATM   53  H   UNK N   1      27.611  18.066   3.995  0.00  0.00     0.210 HD
ENDBRANCH  46  52
BRANCH  47  54
HETATM   54  N   UNK N   1      25.794  20.624   2.718  0.00  0.00    -0.421 N 
HETATM   55  H   UNK N   1      26.523  20.889   3.380  0.00  0.00     0.150 HD
HETATM   56  H   UNK N   1      25.677  21.150   1.853  0.00  0.00     0.150 HD
ENDBRANCH  47  54
BRANCH  48  57
HETATM   57  O   UNK N   1      22.935  20.541   2.164  0.00  0.00    -0.391 OA
HETATM   58  H   UNK N   1      22.414  21.359   2.135  0.00  0.00     0.210 HD
ENDBRANCH  48  57
ENDBRANCH  44  45
ENDBRANCH   7  44
BRANCH   2  59
HETATM   59  C   UNK N   1      20.442  17.544   7.767  0.00  0.00     0.148 C 
HETATM   60  O   UNK N   1      20.000  17.724   8.890  0.00  0.00    -0.650 OA
BRANCH  59  61
HETATM   61  O   UNK N   1      21.042  18.563   7.121  0.00  0.00    -0.776 OA
HETATM   62  H   UNK N   1      21.906  18.788   6.833  0.00  0.00     0.167 HD
ENDBRANCH  59  61
ENDBRANCH   2  59
BRANCH   5  63
HETATM   63  O   UNK N   1      17.958  16.808   6.980  0.00  0.00    -0.394 OA
HETATM   64  H   UNK N   1      17.568  17.127   7.808  0.00  0.00     0.210 HD
ENDBRANCH   5  63
BRANCH   6  65
HETATM   65  O   UNK N   1      19.480  13.047   5.524  0.00  0.00    -0.365 OA
HETATM   66  H   UNK N   1      18.985  12.555   6.197  0.00  0.00     0.213 HD
ENDBRANCH   6  65
BRANCH  11  67
HETATM   67  O   UNK N   1      21.637  14.768   2.142  0.00  0.00    -0.395 OA
HETATM   68  H   UNK N   1      22.396  15.372   2.131  0.00  0.00     0.210 HD
ENDBRANCH  11  67
BRANCH  15  69
HETATM   69  O   UNK N   1      21.758  10.776   2.800  0.00  0.00    -0.393 OA
HETATM   70  H   UNK N   1      22.033   9.916   3.153  0.00  0.00     0.210 HD
ENDBRANCH  15  69
BRANCH  17  71
HETATM   71  O   UNK N   1      18.420  10.528   1.553  0.00  0.00    -0.393 OA
HETATM   72  H   UNK N   1      18.060  11.408   1.748  0.00  0.00     0.210 HD
ENDBRANCH  17  71
BRANCH  23  73
HETATM   73  O   UNK N   1      23.284  10.705   0.016  0.00  0.00    -0.395 OA
HETATM   74  H   UNK N   1      23.088  11.546  -0.424  0.00  0.00     0.210 HD
ENDBRANCH  23  73
BRANCH  27  75
HETATM   75  O   UNK N   1      25.474   8.973  -0.579  0.00  0.00    -0.395 OA
HETATM   76  H   UNK N   1      26.293   8.839  -1.082  0.00  0.00     0.210 HD
ENDBRANCH  27  75
BRANCH  41  77
HETATM   77  O   UNK N   1      28.140   5.160  -5.499  0.00  0.00    -0.394 OA
HETATM   78  H   UNK N   1      28.621   5.175  -6.341  0.00  0.00     0.210 HD
ENDBRANCH  41  77
TORSDOF 15
ENDMDL
MODEL 6
REMARK VINA RESULT:      -7.8      4.269      7.980
REMARK  15 active torsions:
REMARK  status: ('A' for Active; 'I' for Inactive)
REMARK    1  A    between atoms: C_2  and  C_6 
REMARK    2  A    between atoms: C_5  and  O_10 
REMARK    3  A    between atoms: C_6  and  O_11 
REMARK    4  A    between atoms: C_7  and  O_14 
REMARK    5  A    between atoms: C_8  and  O_15 
REMARK    6  A    between atoms: O_15  and  C_18 
REMARK    7  A    between atoms: C_17  and  O_21 
REMARK    8  A    between atoms: C_22  and  O_27 
REMARK    9  A    between atoms: C_25  and  O_31 
REMARK   10  A    between atoms: C_26  and  N_33 
REMARK   11  A    between atoms: C_30  and  O_37 
REMARK   12  A    between atoms: C_32  and  O_38 
REMARK   13  A    between atoms: C_42  and  O_45 
REMARK   14  A    between atoms: C_47  and  O_50 
REMARK   15  A    between atoms: C_62  and  O_65 
ROOT
HETATM    1  C   UNK N   1      21.472  15.873   5.781  0.00  0.00     0.144 C 
HETATM    2  C   UNK N   1      20.492  16.139   6.953  0.00  0.00     0.141 C 
HETATM    3  O   UNK N   1      21.326  14.541   5.314  0.00  0.00    -0.349 OA
HETATM    4  C   UNK N   1      22.897  16.067   6.340  0.00  0.00     0.069 C 
HETATM    5  C   UNK N   1      19.042  15.702   6.637  0.00  0.00     0.140 C 
HETATM    6  C   UNK N   1      20.010  14.199   4.865  0.00  0.00     0.166 C 
HETATM    7  C   UNK N   1      24.106  15.686   5.477  0.00  0.00     0.150 C 
HETATM    8  C   UNK N   1      18.917  15.210   5.215  0.00  0.00     0.101 C 
HETATM    9  C   UNK N   1      19.936  14.089   3.346  0.00  0.00     0.100 C 
HETATM   10  C   UNK N   1      23.821  15.064   4.150  0.00  0.00     0.005 C 
HETATM   11  C   UNK N   1      21.192  13.582   2.674  0.00  0.00     0.125 C 
HETATM   12  C   UNK N   1      24.139  13.788   4.008  0.00  0.00    -0.002 C 
HETATM   13  C   UNK N   1      20.819  12.514   1.676  0.00  0.00     0.066 C 
HETATM   14  C   UNK N   1      24.446  13.275   2.689  0.00  0.00    -0.000 C 
HETATM   15  C   UNK N   1      20.691  11.145   2.334  0.00  0.00     0.149 C 
HETATM   16  C   UNK N   1      24.994  12.078   2.606  0.00  0.00     0.000 C 
HETATM   17  C   UNK N   1      19.973  10.144   1.417  0.00  0.00     0.147 C 
HETATM   18  C   UNK N   1      25.898  11.842   1.500  0.00  0.00     0.000 C 
HETATM   19  C   UNK N   1      20.385  10.273  -0.057  0.00  0.00     0.036 C 
HETATM   20  C   UNK N   1      26.677  10.768   1.500  0.00  0.00     0.000 C 
HETATM   21  C   UNK N   1      21.447   9.266  -0.468  0.00  0.00     0.034 C 
HETATM   22  C   UNK N   1      27.935  10.798   0.744  0.00  0.00     0.000 C 
HETATM   23  C   UNK N   1      22.728   9.441   0.326  0.00  0.00     0.120 C 
HETATM   24  C   UNK N   1      28.678  11.914   0.798  0.00  0.00     0.000 C 
HETATM   25  C   UNK N   1      23.568   8.169   0.298  0.00  0.00     0.064 C 
HETATM   26  C   UNK N   1      30.000  12.084   0.170  0.00  0.00     0.000 C 
HETATM   27  C   UNK N   1      24.543   8.030  -0.868  0.00  0.00     0.130 C 
HETATM   28  C   UNK N   1      30.491  11.364  -0.844  0.00  0.00     0.000 C 
HETATM   29  C   UNK N   1      23.916   8.284  -2.231  0.00  0.00     0.142 C 
HETATM   30  C   UNK N   1      29.719  10.365  -1.587  0.00  0.00     0.000 C 
HETATM   31  C   UNK N   1      24.847   7.789  -3.278  0.00  0.00     0.261 C 
HETATM   32  C   UNK N   1      30.368   9.542  -2.397  0.00  0.00    -0.000 C 
HETATM   33  O   UNK N   1      25.149   6.463  -3.320  0.00  0.00    -0.316 OA
HETATM   34  O   UNK N   1      25.365   8.583  -4.055  0.00  0.00    -0.265 OA
HETATM   35  C   UNK N   1      29.651   8.610  -3.264  0.00  0.00    -0.004 C 
HETATM   36  C   UNK N   1      26.121   5.895  -4.124  0.00  0.00     0.134 C 
HETATM   37  C   UNK N   1      30.355   7.710  -3.944  0.00  0.00    -0.020 C 
HETATM   38  C   UNK N   1      27.518   6.454  -3.779  0.00  0.00     0.040 C 
HETATM   39  C   UNK N   1      25.758   6.086  -5.593  0.00  0.00     0.040 C 
HETATM   40  C   UNK N   1      29.750   6.804  -4.977  0.00  0.00     0.033 C 
HETATM   41  C   UNK N   1      28.715   5.781  -4.478  0.00  0.00     0.131 C 
HETATM   42  C   UNK N   1      27.752   6.357  -2.277  0.00  0.00     0.015 C 
HETATM   43  C   UNK N   1      30.900   6.078  -5.651  0.00  0.00     0.017 C 
ENDROOT
BRANCH   7  44
HETATM   44  O   UNK N   1      25.023  16.755   5.344  0.00  0.00    -0.349 OA
BRANCH  44  45
HETATM   45  C   UNK N   1      26.316  16.187   5.249  0.00  0.00     0.291 C 
HETATM   46  C   UNK N   1      27.338  16.904   6.139  0.00  0.00     0.198 C 
HETATM   47  C   UNK N   1      28.687  16.179   5.989  0.00  0.00     0.139 C 
HETATM   48  C   UNK N   1      29.054  15.974   4.515  0.00  0.00     0.171 C 
HETATM   49  C   UNK N   1      27.844  15.378   3.794  0.00  0.00     0.151 C 
HETATM   50  O   UNK N   1      26.765  16.270   3.915  0.00  0.00    -0.351 OA
HETATM   51  C   UNK N   1      28.149  15.172   2.321  0.00  0.00     0.042 C 
BRANCH  46  52
HETATM   52  O   UNK N   1      26.932  16.866   7.473  0.00  0.00    -0.388 OA
HETATM   53  H   UNK N   1      26.142  17.106   7.981  0.00  0.00     0.210 HD
ENDBRANCH  46  52
BRANCH  47  54
HETATM   54  N   UNK N   1      29.739  16.922   6.663  0.00  0.00    -0.421 N 
HETATM   55  H   UNK N   1      29.961  17.874   6.371  0.00  0.00     0.150 HD
HETATM   56  H   UNK N   1      30.257  16.491   7.428  0.00  0.00     0.150 HD
ENDBRANCH  47  54
BRANCH  48  57
HETATM   57  O   UNK N   1      30.149  15.111   4.417  0.00  0.00    -0.391 OA
HETATM   58  H   UNK N   1      30.901  15.233   3.817  0.00  0.00     0.210 HD
ENDBRANCH  48  57
ENDBRANCH  44  45
ENDBRANCH   7  44
BRANCH   2  59
HETATM   59  C   UNK N   1      20.596  17.519   7.567  0.00  0.00     0.148 C 
HETATM   60  O   UNK N   1      20.311  17.681   8.742  0.00  0.00    -0.650 OA
BRANCH  59  61
HETATM   61  O   UNK N   1      21.015  18.570   6.836  0.00  0.00    -0.776 OA
HETATM   62  H   UNK N   1      21.280  19.457   6.986  0.00  0.00     0.167 HD
ENDBRANCH  59  61
ENDBRANCH   2  59
BRANCH   5  63
HETATM   63  O   UNK N   1      18.114  16.730   6.827  0.00  0.00    -0.394 OA
HETATM   64  H   UNK N   1      18.261  17.632   7.151  0.00  0.00     0.210 HD
ENDBRANCH   5  63
BRANCH   6  65
HETATM   65  O   UNK N   1      19.672  12.965   5.424  0.00  0.00    -0.365 OA
HETATM   66  H   UNK N   1      19.423  12.462   6.215  0.00  0.00     0.213 HD
ENDBRANCH   6  65
BRANCH  11  67
HETATM   67  O   UNK N   1      21.760  14.650   1.982  0.00  0.00    -0.395 OA
HETATM   68  H   UNK N   1      22.510  15.265   1.949  0.00  0.00     0.210 HD
ENDBRANCH  11  67
BRANCH  15  69
HETATM   69  O   UNK N   1      21.949  10.674   2.715  0.00  0.00    -0.393 OA
HETATM   70  H   UNK N   1      22.242   9.825   3.081  0.00  0.00     0.210 HD
ENDBRANCH  15  69
BRANCH  17  71
HETATM   71  O   UNK N   1      18.599  10.352   1.518  0.00  0.00    -0.393 OA
HETATM   72  H   UNK N   1      18.228  11.230   1.700  0.00  0.00     0.210 HD
ENDBRANCH  17  71
BRANCH  23  73
HETATM   73  O   UNK N   1      23.440  10.571  -0.087  0.00  0.00    -0.395 OA
HETATM   74  H   UNK N   1      23.560  11.050  -0.921  0.00  0.00     0.210 HD
ENDBRANCH  23  73
BRANCH  27  75
HETATM   75  O   UNK N   1      25.647   8.860  -0.677  0.00  0.00    -0.395 OA
HETATM   76  H   UNK N   1      26.462   8.729  -1.188  0.00  0.00     0.210 HD
ENDBRANCH  27  75
BRANCH  41  77
HETATM   77  O   UNK N   1      28.307   4.991  -5.557  0.00  0.00    -0.394 OA
HETATM   78  H   UNK N   1      28.737   5.044  -6.424  0.00  0.00     0.210 HD
ENDBRANCH  41  77
TORSDOF 15
ENDMDL
MODEL 7
REMARK VINA RESULT:      -7.8      4.787     12.297
REMARK  15 active torsions:
REMARK  status: ('A' for Active; 'I' for Inactive)
REMARK    1  A    between atoms: C_2  and  C_6 
REMARK    2  A    between atoms: C_5  and  O_10 
REMARK    3  A    between atoms: C_6  and  O_11 
REMARK    4  A    between atoms: C_7  and  O_14 
REMARK    5  A    between atoms: C_8  and  O_15 
REMARK    6  A    between atoms: O_15  and  C_18 
REMARK    7  A    between atoms: C_17  and  O_21 
REMARK    8  A    between atoms: C_22  and  O_27 
REMARK    9  A    between atoms: C_25  and  O_31 
REMARK   10  A    between atoms: C_26  and  N_33 
REMARK   11  A    between atoms: C_30  and  O_37 
REMARK   12  A    between atoms: C_32  and  O_38 
REMARK   13  A    between atoms: C_42  and  O_45 
REMARK   14  A    between atoms: C_47  and  O_50 
REMARK   15  A    between atoms: C_62  and  O_65 
ROOT
HETATM    1  C   UNK N   1      22.255  15.351   2.759  0.00  0.00     0.144 C 
HETATM    2  C   UNK N   1      21.179  16.182   2.014  0.00  0.00     0.141 C 
HETATM    3  O   UNK N   1      23.393  16.155   3.032  0.00  0.00    -0.349 OA
HETATM    4  C   UNK N   1      22.657  14.197   1.818  0.00  0.00     0.069 C 
HETATM    5  C   UNK N   1      20.885  17.539   2.697  0.00  0.00     0.140 C 
HETATM    6  C   UNK N   1      23.132  17.327   3.813  0.00  0.00     0.166 C 
HETATM    7  C   UNK N   1      23.848  13.302   2.186  0.00  0.00     0.150 C 
HETATM    8  C   UNK N   1      21.653  17.678   3.989  0.00  0.00     0.101 C 
HETATM    9  C   UNK N   1      23.650  17.189   5.240  0.00  0.00     0.100 C 
HETATM   10  C   UNK N   1      24.610  13.661   3.419  0.00  0.00     0.005 C 
HETATM   11  C   UNK N   1      24.906  16.362   5.393  0.00  0.00     0.125 C 
HETATM   12  C   UNK N   1      25.840  14.118   3.250  0.00  0.00    -0.002 C 
HETATM   13  C   UNK N   1      25.879  17.105   6.276  0.00  0.00     0.066 C 
HETATM   14  C   UNK N   1      26.814  13.942   4.306  0.00  0.00    -0.000 C 
HETATM   15  C   UNK N   1      26.709  18.109   5.483  0.00  0.00     0.149 C 
HETATM   16  C   UNK N   1      28.080  14.179   4.022  0.00  0.00     0.000 C 
HETATM   17  C   UNK N   1      27.425  19.102   6.409  0.00  0.00     0.147 C 
HETATM   18  C   UNK N   1      29.073  13.403   4.735  0.00  0.00     0.000 C 
HETATM   19  C   UNK N   1      27.987  18.446   7.679  0.00  0.00     0.036 C 
HETATM   20  C   UNK N   1      30.333  13.399   4.319  0.00  0.00     0.000 C 
HETATM   21  C   UNK N   1      29.465  18.107   7.570  0.00  0.00     0.034 C 
HETATM   22  C   UNK N   1      31.186  12.248   4.635  0.00  0.00     0.000 C 
HETATM   23  C   UNK N   1      29.736  17.119   6.452  0.00  0.00     0.120 C 
HETATM   24  C   UNK N   1      30.655  11.020   4.528  0.00  0.00     0.000 C 
HETATM   25  C   UNK N   1      31.195  17.175   6.012  0.00  0.00     0.064 C 
HETATM   26  C   UNK N   1      31.389   9.758   4.726  0.00  0.00     0.000 C 
HETATM   27  C   UNK N   1      32.164  16.277   6.774  0.00  0.00     0.130 C 
HETATM   28  C   UNK N   1      32.530   9.606   5.406  0.00  0.00     0.000 C 
HETATM   29  C   UNK N   1      32.059  16.398   8.287  0.00  0.00     0.142 C 
HETATM   30  C   UNK N   1      33.165  10.672   6.187  0.00  0.00     0.000 C 
HETATM   31  C   UNK N   1      33.256  15.759   8.896  0.00  0.00     0.261 C 
HETATM   32  C   UNK N   1      34.406  10.489   6.610  0.00  0.00    -0.000 C 
HETATM   33  O   UNK N   1      34.486  16.275   8.630  0.00  0.00    -0.316 OA
HETATM   34  O   UNK N   1      33.123  14.755   9.585  0.00  0.00    -0.265 OA
HETATM   35  C   UNK N   1      35.053  11.449   7.500  0.00  0.00    -0.004 C 
HETATM   36  C   UNK N   1      35.688  15.688   8.987  0.00  0.00     0.134 C 
HETATM   37  C   UNK N   1      36.345  11.290   7.772  0.00  0.00    -0.020 C 
HETATM   38  C   UNK N   1      35.848  14.308   8.312  0.00  0.00     0.040 C 
HETATM   39  C   UNK N   1      35.800  15.615  10.506  0.00  0.00     0.040 C 
HETATM   40  C   UNK N   1      37.079  12.117   8.786  0.00  0.00     0.033 C 
HETATM   41  C   UNK N   1      37.216  13.620   8.483  0.00  0.00     0.131 C 
HETATM   42  C   UNK N   1      35.583  14.435   6.818  0.00  0.00     0.015 C 
HETATM   43  C   UNK N   1      38.458  11.502   8.940  0.00  0.00     0.017 C 
ENDROOT
BRANCH   7  44
HETATM   44  O   UNK N   1      23.501  11.930   2.190  0.00  0.00    -0.349 OA
BRANCH  44  45
HETATM   45  C   UNK N   1      23.617  11.475   3.525  0.00  0.00     0.291 C 
HETATM   46  C   UNK N   1      24.448  10.191   3.636  0.00  0.00     0.198 C 
HETATM   47  C   UNK N   1      24.542   9.815   5.125  0.00  0.00     0.139 C 
HETATM   48  C   UNK N   1      23.164   9.825   5.795  0.00  0.00     0.171 C 
HETATM   49  C   UNK N   1      22.461  11.136   5.437  0.00  0.00     0.151 C 
HETATM   50  O   UNK N   1      22.331  11.208   4.040  0.00  0.00    -0.351 OA
HETATM   51  C   UNK N   1      21.079  11.188   6.063  0.00  0.00     0.042 C 
BRANCH  46  52
HETATM   52  O   UNK N   1      25.729  10.396   3.123  0.00  0.00    -0.388 OA
HETATM   53  H   UNK N   1      26.259  10.061   2.383  0.00  0.00     0.210 HD
ENDBRANCH  46  52
BRANCH  47  54
HETATM   54  N   UNK N   1      25.159   8.508   5.280  0.00  0.00    -0.421 N 
HETATM   55  H   UNK N   1      25.918   8.224   4.660  0.00  0.00     0.150 HD
HETATM   56  H   UNK N   1      24.834   7.874   6.008  0.00  0.00     0.150 HD
ENDBRANCH  47  54
BRANCH  48  57
HETATM   57  O   UNK N   1      23.313   9.718   7.181  0.00  0.00    -0.391 OA
HETATM   58  H   UNK N   1      22.712   9.234   7.769  0.00  0.00     0.210 HD
ENDBRANCH  48  57
ENDBRANCH  44  45
ENDBRANCH   7  44
BRANCH   2  59
HETATM   59  C   UNK N   1      19.938  15.409   1.625  0.00  0.00     0.148 C 
HETATM   60  O   UNK N   1      19.618  15.331   0.450  0.00  0.00    -0.650 OA
BRANCH  59  61
HETATM   61  O   UNK N   1      19.187  14.792   2.558  0.00  0.00    -0.776 OA
HETATM   62  H   UNK N   1      18.665  15.032   3.299  0.00  0.00     0.167 HD
ENDBRANCH  59  61
ENDBRANCH   2  59
BRANCH   5  63
HETATM   63  O   UNK N   1      19.526  17.720   2.974  0.00  0.00    -0.394 OA
HETATM   64  H   UNK N   1      18.805  17.947   2.367  0.00  0.00     0.210 HD
ENDBRANCH   5  63
BRANCH   6  65
HETATM   65  O   UNK N   1      23.776  18.404   3.200  0.00  0.00    -0.365 OA
HETATM   66  H   UNK N   1      23.804  19.033   2.463  0.00  0.00     0.213 HD
ENDBRANCH   6  65
BRANCH  11  67
HETATM   67  O   UNK N   1      24.554  15.175   6.031  0.00  0.00    -0.395 OA
HETATM   68  H   UNK N   1      23.880  14.479   6.097  0.00  0.00     0.210 HD
ENDBRANCH  11  67
BRANCH  15  69
HETATM   69  O   UNK N   1      27.613  17.440   4.656  0.00  0.00    -0.393 OA
HETATM   70  H   UNK N   1      28.244  17.758   3.993  0.00  0.00     0.210 HD
ENDBRANCH  15  69
BRANCH  17  71
HETATM   71  O   UNK N   1      26.524  20.097   6.781  0.00  0.00    -0.393 OA
HETATM   72  H   UNK N   1      25.617  19.887   7.056  0.00  0.00     0.210 HD
ENDBRANCH  17  71
BRANCH  23  73
HETATM   73  O   UNK N   1      29.322  15.828   6.792  0.00  0.00    -0.395 OA
HETATM   74  H   UNK N   1      29.643  15.129   7.383  0.00  0.00     0.210 HD
ENDBRANCH  23  73
BRANCH  27  75
HETATM   75  O   UNK N   1      32.005  14.948   6.379  0.00  0.00    -0.395 OA
HETATM   76  H   UNK N   1      31.432  14.718   5.631  0.00  0.00     0.210 HD
ENDBRANCH  27  75
BRANCH  41  77
HETATM   77  O   UNK N   1      37.973  14.217   9.496  0.00  0.00    -0.394 OA
HETATM   78  H   UNK N   1      38.886  13.948   9.682  0.00  0.00     0.210 HD
ENDBRANCH  41  77
TORSDOF 15
ENDMDL
MODEL 8
REMARK VINA RESULT:      -7.7      8.758     12.236
REMARK  15 active torsions:
REMARK  status: ('A' for Active; 'I' for Inactive)
REMARK    1  A    between atoms: C_2  and  C_6 
REMARK    2  A    between atoms: C_5  and  O_10 
REMARK    3  A    between atoms: C_6  and  O_11 
REMARK    4  A    between atoms: C_7  and  O_14 
REMARK    5  A    between atoms: C_8  and  O_15 
REMARK    6  A    between atoms: O_15  and  C_18 
REMARK    7  A    between atoms: C_17  and  O_21 
REMARK    8  A    between atoms: C_22  and  O_27 
REMARK    9  A    between atoms: C_25  and  O_31 
REMARK   10  A    between atoms: C_26  and  N_33 
REMARK   11  A    between atoms: C_30  and  O_37 
REMARK   12  A    between atoms: C_32  and  O_38 
REMARK   13  A    between atoms: C_42  and  O_45 
REMARK   14  A    between atoms: C_47  and  O_50 
REMARK   15  A    between atoms: C_62  and  O_65 
ROOT
HETATM    1  C   UNK N   1      35.730  12.204  13.137  0.00  0.00     0.144 C 
HETATM    2  C   UNK N   1      36.792  12.172  14.267  0.00  0.00     0.141 C 
HETATM    3  O   UNK N   1      35.963  11.149  12.216  0.00  0.00    -0.349 OA
HETATM    4  C   UNK N   1      35.888  13.558  12.415  0.00  0.00     0.069 C 
HETATM    5  C   UNK N   1      36.963  10.769  14.895  0.00  0.00     0.140 C 
HETATM    6  C   UNK N   1      35.951   9.835  12.787  0.00  0.00     0.166 C 
HETATM    7  C   UNK N   1      35.110  13.820  11.120  0.00  0.00     0.150 C 
HETATM    8  C   UNK N   1      35.973   9.787  14.315  0.00  0.00     0.101 C 
HETATM    9  C   UNK N   1      34.692   9.062  12.412  0.00  0.00     0.100 C 
HETATM   10  C   UNK N   1      34.290  12.693  10.584  0.00  0.00     0.005 C 
HETATM   11  C   UNK N   1      34.130   9.370  11.042  0.00  0.00     0.125 C 
HETATM   12  C   UNK N   1      34.702  12.137   9.456  0.00  0.00    -0.002 C 
HETATM   13  C   UNK N   1      33.817   8.073  10.337  0.00  0.00     0.066 C 
HETATM   14  C   UNK N   1      33.739  11.492   8.589  0.00  0.00    -0.000 C 
HETATM   15  C   UNK N   1      35.045   7.498   9.638  0.00  0.00     0.149 C 
HETATM   16  C   UNK N   1      34.128  11.169   7.371  0.00  0.00     0.000 C 
HETATM   17  C   UNK N   1      34.829   6.032   9.237  0.00  0.00     0.147 C 
HETATM   18  C   UNK N   1      33.122  11.192   6.329  0.00  0.00     0.000 C 
HETATM   19  C   UNK N   1      33.417   5.754   8.700  0.00  0.00     0.036 C 
HETATM   20  C   UNK N   1      33.489  11.137   5.055  0.00  0.00     0.000 C 
HETATM   21  C   UNK N   1      33.346   5.757   7.182  0.00  0.00     0.034 C 
HETATM   22  C   UNK N   1      32.606  11.710   4.032  0.00  0.00     0.000 C 
HETATM   23  C   UNK N   1      33.742   7.101   6.601  0.00  0.00     0.120 C 
HETATM   24  C   UNK N   1      32.012  12.884   4.297  0.00  0.00     0.000 C 
HETATM   25  C   UNK N   1      34.164   6.965   5.142  0.00  0.00     0.064 C 
HETATM   26  C   UNK N   1      31.165  13.638   3.355  0.00  0.00     0.000 C 
HETATM   27  C   UNK N   1      33.050   7.067   4.105  0.00  0.00     0.130 C 
HETATM   28  C   UNK N   1      30.533  13.138   2.289  0.00  0.00     0.000 C 
HETATM   29  C   UNK N   1      31.851   6.176   4.397  0.00  0.00     0.142 C 
HETATM   30  C   UNK N   1      30.477  11.710   1.965  0.00  0.00     0.000 C 
HETATM   31  C   UNK N   1      31.011   6.098   3.173  0.00  0.00     0.261 C 
HETATM   32  C   UNK N   1      30.043  11.352   0.766  0.00  0.00    -0.000 C 
HETATM   33  O   UNK N   1      31.537   5.547   2.046  0.00  0.00    -0.316 OA
HETATM   34  O   UNK N   1      29.882   6.573   3.180  0.00  0.00    -0.265 OA
HETATM   35  C   UNK N   1      29.838   9.947   0.422  0.00  0.00    -0.004 C 
HETATM   36  C   UNK N   1      30.936   5.562   0.799  0.00  0.00     0.134 C 
HETATM   37  C   UNK N   1      29.545   9.641  -0.838  0.00  0.00    -0.020 C 
HETATM   38  C   UNK N   1      30.745   7.010   0.298  0.00  0.00     0.040 C 
HETATM   39  C   UNK N   1      29.629   4.777   0.842  0.00  0.00     0.040 C 
HETATM   40  C   UNK N   1      29.165   8.258  -1.280  0.00  0.00     0.033 C 
HETATM   41  C   UNK N   1      30.246   7.170  -1.151  0.00  0.00     0.131 C 
HETATM   42  C   UNK N   1      32.058   7.772   0.417  0.00  0.00     0.015 C 
HETATM   43  C   UNK N   1      28.721   8.365  -2.727  0.00  0.00     0.017 C 
ENDROOT
BRANCH   7  44
HETATM   44  O   UNK N   1      34.347  15.009  11.189  0.00  0.00    -0.349 OA
BRANCH  44  45
HETATM   45  C   UNK N   1      34.339  15.576   9.892  0.00  0.00     0.291 C 
HETATM   46  C   UNK N   1      34.677  17.071   9.904  0.00  0.00     0.198 C 
HETATM   47  C   UNK N   1      34.682  17.567   8.447  0.00  0.00     0.139 C 
HETATM   48  C   UNK N   1      33.414  17.136   7.703  0.00  0.00     0.171 C 
HETATM   49  C   UNK N   1      33.197  15.641   7.943  0.00  0.00     0.151 C 
HETATM   50  O   UNK N   1      33.057  15.424   9.324  0.00  0.00    -0.351 OA
HETATM   51  C   UNK N   1      31.938  15.165   7.240  0.00  0.00     0.042 C 
BRANCH  46  52
HETATM   52  O   UNK N   1      35.933  17.280  10.474  0.00  0.00    -0.388 OA
HETATM   53  H   UNK N   1      36.541  16.791  11.051  0.00  0.00     0.210 HD
ENDBRANCH  46  52
BRANCH  47  54
HETATM   54  N   UNK N   1      34.813  19.014   8.406  0.00  0.00    -0.421 N 
HETATM   55  H   UNK N   1      35.687  19.440   8.094  0.00  0.00     0.150 HD
HETATM   56  H   UNK N   1      34.032  19.605   8.689  0.00  0.00     0.150 HD
ENDBRANCH  47  54
BRANCH  48  57
HETATM   57  O   UNK N   1      33.559  17.391   6.337  0.00  0.00    -0.391 OA
HETATM   58  H   UNK N   1      34.395  17.337   5.847  0.00  0.00     0.210 HD
ENDBRANCH  48  57
ENDBRANCH  44  45
ENDBRANCH   7  44
BRANCH   2  59
HETATM   59  C   UNK N   1      36.672  13.288  15.282  0.00  0.00     0.148 C 
HETATM   60  O   UNK N   1      35.684  13.352  15.997  0.00  0.00    -0.650 OA
BRANCH  59  61
HETATM   61  O   UNK N   1      37.649  14.205  15.420  0.00  0.00    -0.776 OA
HETATM   62  H   UNK N   1      38.554  14.223  15.664  0.00  0.00     0.167 HD
ENDBRANCH  59  61
ENDBRANCH   2  59
BRANCH   5  63
HETATM   63  O   UNK N   1      36.808  10.777  16.285  0.00  0.00    -0.394 OA
HETATM   64  H   UNK N   1      35.995  10.856  16.807  0.00  0.00     0.210 HD
ENDBRANCH   5  63
BRANCH   6  65
HETATM   65  O   UNK N   1      37.066   9.146  12.303  0.00  0.00    -0.365 OA
HETATM   66  H   UNK N   1      37.894   9.174  11.800  0.00  0.00     0.213 HD
ENDBRANCH   6  65
BRANCH  11  67
HETATM   67  O   UNK N   1      32.939  10.069  11.223  0.00  0.00    -0.395 OA
HETATM   68  H   UNK N   1      32.391  10.800  10.895  0.00  0.00     0.210 HD
ENDBRANCH  11  67
BRANCH  15  69
HETATM   69  O   UNK N   1      35.383   8.284   8.535  0.00  0.00    -0.393 OA
HETATM   70  H   UNK N   1      35.077   8.279   7.615  0.00  0.00     0.210 HD
ENDBRANCH  15  69
BRANCH  17  71
HETATM   71  O   UNK N   1      35.051   5.226  10.351  0.00  0.00    -0.393 OA
HETATM   72  H   UNK N   1      35.395   5.589  11.183  0.00  0.00     0.210 HD
ENDBRANCH  17  71
BRANCH  23  73
HETATM   73  O   UNK N   1      32.741   8.059   6.788  0.00  0.00    -0.395 OA
HETATM   74  H   UNK N   1      32.716   9.008   6.980  0.00  0.00     0.210 HD
ENDBRANCH  23  73
BRANCH  27  75
HETATM   75  O   UNK N   1      32.647   8.394   3.955  0.00  0.00    -0.395 OA
HETATM   76  H   UNK N   1      32.858   8.889   3.148  0.00  0.00     0.210 HD
ENDBRANCH  27  75
BRANCH  41  77
HETATM   77  O   UNK N   1      29.740   5.970  -1.660  0.00  0.00    -0.394 OA
HETATM   78  H   UNK N   1      30.300   5.336  -2.134  0.00  0.00     0.210 HD
ENDBRANCH  41  77
TORSDOF 15
ENDMDL
MODEL 9
REMARK VINA RESULT:      -7.6      3.943      8.494
REMARK  15 active torsions:
REMARK  status: ('A' for Active; 'I' for Inactive)
REMARK    1  A    between atoms: C_2  and  C_6 
REMARK    2  A    between atoms: C_5  and  O_10 
REMARK    3  A    between atoms: C_6  and  O_11 
REMARK    4  A    between atoms: C_7  and  O_14 
REMARK    5  A    between atoms: C_8  and  O_15 
REMARK    6  A    between atoms: O_15  and  C_18 
REMARK    7  A    between atoms: C_17  and  O_21 
REMARK    8  A    between atoms: C_22  and  O_27 
REMARK    9  A    between atoms: C_25  and  O_31 
REMARK   10  A    between atoms: C_26  and  N_33 
REMARK   11  A    between atoms: C_30  and  O_37 
REMARK   12  A    between atoms: C_32  and  O_38 
REMARK   13  A    between atoms: C_42  and  O_45 
REMARK   14  A    between atoms: C_47  and  O_50 
REMARK   15  A    between atoms: C_62  and  O_65 
ROOT
HETATM    1  C   UNK N   1      32.846  14.915   5.934  0.00  0.00     0.144 C 
HETATM    2  C   UNK N   1      33.787  15.510   7.013  0.00  0.00     0.141 C 
HETATM    3  O   UNK N   1      31.499  15.268   6.210  0.00  0.00    -0.349 OA
HETATM    4  C   UNK N   1      32.998  13.381   6.007  0.00  0.00     0.069 C 
HETATM    5  C   UNK N   1      33.535  17.015   7.270  0.00  0.00     0.140 C 
HETATM    6  C   UNK N   1      31.245  16.676   6.279  0.00  0.00     0.166 C 
HETATM    7  C   UNK N   1      32.052  12.488   5.196  0.00  0.00     0.150 C 
HETATM    8  C   UNK N   1      32.491  17.563   6.326  0.00  0.00     0.101 C 
HETATM    9  C   UNK N   1      30.482  17.178   5.058  0.00  0.00     0.100 C 
HETATM   10  C   UNK N   1      30.966  13.171   4.431  0.00  0.00     0.005 C 
HETATM   11  C   UNK N   1      29.503  16.194   4.460  0.00  0.00     0.125 C 
HETATM   12  C   UNK N   1      29.728  12.985   4.856  0.00  0.00    -0.002 C 
HETATM   13  C   UNK N   1      28.192  16.897   4.207  0.00  0.00     0.066 C 
HETATM   14  C   UNK N   1      28.631  13.092   3.917  0.00  0.00    -0.000 C 
HETATM   15  C   UNK N   1      27.314  16.921   5.454  0.00  0.00     0.149 C 
HETATM   16  C   UNK N   1      27.445  12.664   4.304  0.00  0.00     0.000 C 
HETATM   17  C   UNK N   1      26.164  17.928   5.313  0.00  0.00     0.147 C 
HETATM   18  C   UNK N   1      26.573  12.122   3.283  0.00  0.00     0.000 C 
HETATM   19  C   UNK N   1      25.538  17.937   3.910  0.00  0.00     0.036 C 
HETATM   20  C   UNK N   1      25.489  11.442   3.632  0.00  0.00     0.000 C 
HETATM   21  C   UNK N   1      24.275  17.097   3.816  0.00  0.00     0.034 C 
HETATM   22  C   UNK N   1      24.939  10.446   2.704  0.00  0.00     0.000 C 
HETATM   23  C   UNK N   1      24.543  15.637   4.129  0.00  0.00     0.120 C 
HETATM   24  C   UNK N   1      25.800   9.650   2.051  0.00  0.00     0.000 C 
HETATM   25  C   UNK N   1      23.261  14.919   4.536  0.00  0.00     0.064 C 
HETATM   26  C   UNK N   1      25.419   8.548   1.150  0.00  0.00     0.000 C 
HETATM   27  C   UNK N   1      22.435  14.320   3.402  0.00  0.00     0.130 C 
HETATM   28  C   UNK N   1      24.244   8.406   0.530  0.00  0.00     0.000 C 
HETATM   29  C   UNK N   1      22.163  15.286   2.258  0.00  0.00     0.142 C 
HETATM   30  C   UNK N   1      23.182   9.416   0.547  0.00  0.00     0.000 C 
HETATM   31  C   UNK N   1      21.086  14.717   1.406  0.00  0.00     0.261 C 
HETATM   32  C   UNK N   1      21.978   9.072   0.115  0.00  0.00    -0.000 C 
HETATM   33  O   UNK N   1      19.852  14.522   1.943  0.00  0.00    -0.316 OA
HETATM   34  O   UNK N   1      21.335  14.388   0.252  0.00  0.00    -0.265 OA
HETATM   35  C   UNK N   1      20.909  10.059  -0.018  0.00  0.00    -0.004 C 
HETATM   36  C   UNK N   1      18.813  13.851   1.324  0.00  0.00     0.134 C 
HETATM   37  C   UNK N   1      19.686   9.631  -0.313  0.00  0.00    -0.020 C 
HETATM   38  C   UNK N   1      19.194  12.381   1.046  0.00  0.00     0.040 C 
HETATM   39  C   UNK N   1      18.390  14.597   0.063  0.00  0.00     0.040 C 
HETATM   40  C   UNK N   1      18.545  10.555  -0.623  0.00  0.00     0.033 C 
HETATM   41  C   UNK N   1      18.068  11.471   0.518  0.00  0.00     0.131 C 
HETATM   42  C   UNK N   1      19.739  11.744   2.317  0.00  0.00     0.015 C 
HETATM   43  C   UNK N   1      17.392   9.687  -1.094  0.00  0.00     0.017 C 
ENDROOT
BRANCH   7  44
HETATM   44  O   UNK N   1      32.755  11.580   4.370  0.00  0.00    -0.349 OA
BRANCH  44  45
HETATM   45  C   UNK N   1      32.347  10.276   4.742  0.00  0.00     0.291 C 
HETATM   46  C   UNK N   1      31.202   9.749   3.870  0.00  0.00     0.198 C 
HETATM   47  C   UNK N   1      30.873   8.319   4.333  0.00  0.00     0.139 C 
HETATM   48  C   UNK N   1      30.693   8.248   5.853  0.00  0.00     0.171 C 
HETATM   49  C   UNK N   1      31.879   8.954   6.514  0.00  0.00     0.151 C 
HETATM   50  O   UNK N   1      31.904  10.290   6.081  0.00  0.00    -0.351 OA
HETATM   51  C   UNK N   1      31.739   8.929   8.025  0.00  0.00     0.042 C 
BRANCH  46  52
HETATM   52  O   UNK N   1      31.583   9.730   2.528  0.00  0.00    -0.388 OA
HETATM   53  H   UNK N   1      32.314  10.078   1.993  0.00  0.00     0.210 HD
ENDBRANCH  46  52
BRANCH  47  54
HETATM   54  N   UNK N   1      29.675   7.834   3.669  0.00  0.00    -0.421 N 
HETATM   55  H   UNK N   1      29.727   7.480   2.713  0.00  0.00     0.150 HD
HETATM   56  H   UNK N   1      28.780   7.849   4.157  0.00  0.00     0.150 HD
ENDBRANCH  47  54
BRANCH  48  57
HETATM   57  O   UNK N   1      30.636   6.912   6.259  0.00  0.00    -0.391 OA
HETATM   58  H   UNK N   1      30.682   6.148   5.664  0.00  0.00     0.210 HD
ENDBRANCH  48  57
ENDBRANCH  44  45
ENDBRANCH   7  44
BRANCH   2  59
HETATM   59  C   UNK N   1      35.248  15.153   6.847  0.00  0.00     0.148 C 
HETATM   60  O   UNK N   1      35.820  15.414   5.801  0.00  0.00    -0.650 OA
BRANCH  59  61
HETATM   61  O   UNK N   1      35.933  14.563   7.846  0.00  0.00    -0.776 OA
HETATM   62  H   UNK N   1      36.756  14.672   8.282  0.00  0.00     0.167 HD
ENDBRANCH  59  61
ENDBRANCH   2  59
BRANCH   5  63
HETATM   63  O   UNK N   1      34.693  17.787   7.136  0.00  0.00    -0.394 OA
HETATM   64  H   UNK N   1      35.612  17.545   7.327  0.00  0.00     0.210 HD
ENDBRANCH   5  63
BRANCH   6  65
HETATM   65  O   UNK N   1      30.480  16.920   7.422  0.00  0.00    -0.365 OA
HETATM   66  H   UNK N   1      29.646  17.237   7.799  0.00  0.00     0.213 HD
ENDBRANCH   6  65
BRANCH  11  67
HETATM   67  O   UNK N   1      30.020  15.777   3.235  0.00  0.00    -0.395 OA
HETATM   68  H   UNK N   1      30.832  15.640   2.722  0.00  0.00     0.210 HD
ENDBRANCH  11  67
BRANCH  15  69
HETATM   69  O   UNK N   1      26.838  15.639   5.732  0.00  0.00    -0.393 OA
HETATM   70  H   UNK N   1      25.941  15.270   5.759  0.00  0.00     0.210 HD
ENDBRANCH  15  69
BRANCH  17  71
HETATM   71  O   UNK N   1      26.648  19.203   5.595  0.00  0.00    -0.393 OA
HETATM   72  H   UNK N   1      26.055  19.965   5.687  0.00  0.00     0.210 HD
ENDBRANCH  17  71
BRANCH  23  73
HETATM   73  O   UNK N   1      25.212  15.000   3.080  0.00  0.00    -0.395 OA
HETATM   74  H   UNK N   1      25.666  14.152   2.959  0.00  0.00     0.210 HD
ENDBRANCH  23  73
BRANCH  27  75
HETATM   75  O   UNK N   1      23.038  13.156   2.925  0.00  0.00    -0.395 OA
HETATM   76  H   UNK N   1      23.354  13.100   2.010  0.00  0.00     0.210 HD
ENDBRANCH  27  75
BRANCH  41  77
HETATM   77  O   UNK N   1      16.971  12.213   0.070  0.00  0.00    -0.394 OA
HETATM   78  H   UNK N   1      16.090  12.118   0.465  0.00  0.00     0.210 HD
ENDBRANCH  41  77
TORSDOF 15
ENDMDL
