MODEL 1
REMARK VINA RESULT:      -7.4      0.000      0.000
REMARK  9 active torsions:
REMARK  status: ('A' for Active; 'I' for Inactive)
REMARK    1  A    between atoms: C_6  and  C_8 
REMARK    2  A    between atoms: C_13  and  O_15 
REMARK    3  A    between atoms: C_23  and  C_17 
REMARK    4  A    between atoms: C_17  and  C_18 
REMARK    5  A    between atoms: C_18  and  C_19 
REMARK    6  A    between atoms: C_19  and  C_22 
REMARK    7  A    between atoms: C_22  and  C_27 
REMARK    8  A    between atoms: C_27  and  O_28 
REMARK    9  A    between atoms: C_29  and  O_30 
ROOT
HETATM    1  C   UNK N   1      28.124  17.175   8.693  0.00  0.00     0.010 C 
HETATM    2  C   UNK N   1      30.943  17.914   8.373  0.00  0.00    -0.075 C 
HETATM    3  C   UNK N   1      30.655  17.098   5.906  0.00  0.00     0.010 C 
HETATM    4  C   UNK N   1      29.419  16.595   5.138  0.00  0.00     0.006 C 
HETATM    5  C   UNK N   1      28.870  18.018   9.770  0.00  0.00     0.005 C 
HETATM    6  C   UNK N   1      32.268  17.843   8.576  0.00  0.00     0.004 C 
HETATM    7  C   UNK N   1      30.104  18.798   9.254  0.00  0.00     0.034 C 
HETATM    8  C   UNK N   1      28.327  16.350   6.199  0.00  0.00    -0.002 C 
HETATM    9  C   UNK N   1      30.228  17.038   7.367  0.00  0.00     0.023 C 
HETATM   10  C   UNK N   1      28.734  17.344   7.296  0.00  0.00    -0.033 C 
HETATM   11  C   UNK N   1      28.449  18.786   6.814  0.00  0.00     0.016 C 
ENDROOT
BRANCH   6  12
HETATM   12  C   UNK N   1      33.129  16.942   7.783  0.00  0.00     0.008 C 
HETATM   13  C   UNK N   1      33.575  15.755   8.234  0.00  0.00    -0.048 C 
HETATM   14  C   UNK N   1      34.499  14.934   7.390  0.00  0.00    -0.033 C 
HETATM   15  C   UNK N   1      33.217  15.286   9.614  0.00  0.00     0.071 C 
HETATM   16  C   UNK N   1      35.177  13.709   7.975  0.00  0.00     0.153 C 
HETATM   17  C   UNK N   1      34.865  15.346   6.176  0.00  0.00     0.022 C 
HETATM   18  C   UNK N   1      34.673  13.315   9.365  0.00  0.00     0.068 C 
HETATM   19  C   UNK N   1      34.382  14.529  10.234  0.00  0.00     0.125 C 
BRANCH  16  20
HETATM   20  O   UNK N   1      35.037  12.616   7.118  0.00  0.00    -0.391 OA
HETATM   21  H   UNK N   1      34.981  12.375   6.180  0.00  0.00     0.210 HD
ENDBRANCH  16  20
BRANCH  19  22
HETATM   22  O   UNK N   1      34.024  14.107  11.513  0.00  0.00    -0.395 OA
HETATM   23  H   UNK N   1      34.073  14.711  12.270  0.00  0.00     0.210 HD
ENDBRANCH  19  22
ENDBRANCH   6  12
BRANCH   8  24
HETATM   24  C   UNK N   1      26.888  16.515   5.664  0.00  0.00    -0.014 C 
HETATM   25  C   UNK N   1      25.928  15.555   6.348  0.00  0.00     0.010 C 
BRANCH  24  26
HETATM   26  C   UNK N   1      26.744  16.414   4.140  0.00  0.00     0.005 C 
BRANCH  26  27
HETATM   27  C   UNK N   1      25.871  17.490   3.511  0.00  0.00     0.003 C 
BRANCH  27  28
HETATM   28  C   UNK N   1      25.808  18.656   4.494  0.00  0.00     0.037 C 
BRANCH  28  29
HETATM   29  C   UNK N   1      26.379  19.965   3.959  0.00  0.00     0.051 C 
HETATM   30  C   UNK N   1      26.394  21.026   5.044  0.00  0.00     0.045 C 
HETATM   31  C   UNK N   1      25.570  20.461   2.773  0.00  0.00     0.045 C 
BRANCH  29  32
HETATM   32  O   UNK N   1      27.689  19.736   3.541  0.00  0.00    -0.391 OA
HETATM   33  H   UNK N   1      28.376  20.348   3.236  0.00  0.00     0.210 HD
ENDBRANCH  29  32
ENDBRANCH  28  29
ENDBRANCH  27  28
ENDBRANCH  26  27
ENDBRANCH  24  26
ENDBRANCH   8  24
TORSDOF 9
ENDMDL
MODEL 2
REMARK VINA RESULT:      -7.2      6.103     10.995
REMARK  9 active torsions:
REMARK  status: ('A' for Active; 'I' for Inactive)
REMARK    1  A    between atoms: C_6  and  C_8 
REMARK    2  A    between atoms: C_13  and  O_15 
REMARK    3  A    between atoms: C_23  and  C_17 
REMARK    4  A    between atoms: C_17  and  C_18 
REMARK    5  A    between atoms: C_18  and  C_19 
REMARK    6  A    between atoms: C_19  and  C_22 
REMARK    7  A    between atoms: C_22  and  C_27 
REMARK    8  A    between atoms: C_27  and  O_28 
REMARK    9  A    between atoms: C_29  and  O_30 
ROOT
HETATM    1  C   UNK N   1      36.996  10.394  11.665  0.00  0.00     0.010 C 
HETATM    2  C   UNK N   1      35.100  10.464  13.900  0.00  0.00    -0.075 C 
HETATM    3  C   UNK N   1      35.212  13.063  13.634  0.00  0.00     0.010 C 
HETATM    4  C   UNK N   1      35.936  13.951  12.605  0.00  0.00     0.006 C 
HETATM    5  C   UNK N   1      36.270   9.106  12.155  0.00  0.00     0.005 C 
HETATM    6  C   UNK N   1      34.673  10.295  15.161  0.00  0.00     0.004 C 
HETATM    7  C   UNK N   1      34.937   9.349  12.905  0.00  0.00     0.034 C 
HETATM    8  C   UNK N   1      36.906  13.022  11.846  0.00  0.00    -0.002 C 
HETATM    9  C   UNK N   1      35.862  11.696  13.461  0.00  0.00     0.023 C 
HETATM   10  C   UNK N   1      36.195  11.666  11.971  0.00  0.00    -0.033 C 
HETATM   11  C   UNK N   1      34.929  11.666  11.083  0.00  0.00     0.016 C 
ENDROOT
BRANCH   6  12
HETATM   12  C   UNK N   1      34.866  11.333  16.194  0.00  0.00     0.008 C 
HETATM   13  C   UNK N   1      35.051  11.057  17.498  0.00  0.00    -0.048 C 
HETATM   14  C   UNK N   1      35.171  12.171  18.489  0.00  0.00    -0.033 C 
HETATM   15  C   UNK N   1      35.052   9.634  17.978  0.00  0.00     0.071 C 
HETATM   16  C   UNK N   1      35.158  11.872  19.977  0.00  0.00     0.153 C 
HETATM   17  C   UNK N   1      35.133  13.445  18.095  0.00  0.00     0.022 C 
HETATM   18  C   UNK N   1      35.220  10.382  20.319  0.00  0.00     0.068 C 
HETATM   19  C   UNK N   1      34.405   9.538  19.351  0.00  0.00     0.125 C 
BRANCH  16  20
HETATM   20  O   UNK N   1      36.213  12.526  20.617  0.00  0.00    -0.391 OA
HETATM   21  H   UNK N   1      36.523  13.404  20.889  0.00  0.00     0.210 HD
ENDBRANCH  16  20
BRANCH  19  22
HETATM   22  O   UNK N   1      34.419   8.209  19.772  0.00  0.00    -0.395 OA
HETATM   23  H   UNK N   1      33.620   7.790  20.127  0.00  0.00     0.210 HD
ENDBRANCH  19  22
ENDBRANCH   6  12
BRANCH   8  24
HETATM   24  C   UNK N   1      37.203  13.477  10.401  0.00  0.00    -0.014 C 
HETATM   25  C   UNK N   1      38.687  13.377  10.082  0.00  0.00     0.010 C 
BRANCH  24  26
HETATM   26  C   UNK N   1      36.674  14.868  10.034  0.00  0.00     0.005 C 
BRANCH  26  27
HETATM   27  C   UNK N   1      35.639  14.882   8.919  0.00  0.00     0.003 C 
BRANCH  27  28
HETATM   28  C   UNK N   1      34.513  15.814   9.356  0.00  0.00     0.037 C 
BRANCH  28  29
HETATM   29  C   UNK N   1      33.161  15.131   9.536  0.00  0.00     0.051 C 
HETATM   30  C   UNK N   1      33.162  13.762   8.880  0.00  0.00     0.045 C 
HETATM   31  C   UNK N   1      32.046  15.977   8.948  0.00  0.00     0.045 C 
BRANCH  29  32
HETATM   32  O   UNK N   1      32.928  14.970  10.901  0.00  0.00    -0.391 OA
HETATM   33  H   UNK N   1      33.542  14.911  11.649  0.00  0.00     0.210 HD
ENDBRANCH  29  32
ENDBRANCH  28  29
ENDBRANCH  27  28
ENDBRANCH  26  27
ENDBRANCH  24  26
ENDBRANCH   8  24
TORSDOF 9
ENDMDL
MODEL 3
REMARK VINA RESULT:      -7.0      9.640     14.110
REMARK  9 active torsions:
REMARK  status: ('A' for Active; 'I' for Inactive)
REMARK    1  A    between atoms: C_6  and  C_8 
REMARK    2  A    between atoms: C_13  and  O_15 
REMARK    3  A    between atoms: C_23  and  C_17 
REMARK    4  A    between atoms: C_17  and  C_18 
REMARK    5  A    between atoms: C_18  and  C_19 
REMARK    6  A    between atoms: C_19  and  C_22 
REMARK    7  A    between atoms: C_22  and  C_27 
REMARK    8  A    between atoms: C_27  and  O_28 
REMARK    9  A    between atoms: C_29  and  O_30 
ROOT
HETATM    1  C   UNK N   1      34.393  12.590  15.956  0.00  0.00     0.010 C 
HETATM    2  C   UNK N   1      35.237  11.440  18.519  0.00  0.00    -0.075 C 
HETATM    3  C   UNK N   1      35.574   9.226  17.169  0.00  0.00     0.010 C 
HETATM    4  C   UNK N   1      35.439   8.919  15.666  0.00  0.00     0.006 C 
HETATM    5  C   UNK N   1      34.692  13.490  17.192  0.00  0.00     0.005 C 
HETATM    6  C   UNK N   1      35.102  11.019  19.786  0.00  0.00     0.004 C 
HETATM    7  C   UNK N   1      35.636  12.864  18.247  0.00  0.00     0.034 C 
HETATM    8  C   UNK N   1      34.741  10.144  15.041  0.00  0.00    -0.002 C 
HETATM    9  C   UNK N   1      34.877  10.570  17.333  0.00  0.00     0.023 C 
HETATM   10  C   UNK N   1      35.163  11.264  16.002  0.00  0.00    -0.033 C 
HETATM   11  C   UNK N   1      36.666  11.570  15.807  0.00  0.00     0.016 C 
ENDROOT
BRANCH   6  12
HETATM   12  C   UNK N   1      34.649   9.651  20.107  0.00  0.00     0.008 C 
HETATM   13  C   UNK N   1      33.763   9.371  21.080  0.00  0.00    -0.048 C 
HETATM   14  C   UNK N   1      33.410   7.950  21.385  0.00  0.00    -0.033 C 
HETATM   15  C   UNK N   1      33.188  10.475  21.920  0.00  0.00     0.071 C 
HETATM   16  C   UNK N   1      32.587   7.617  22.616  0.00  0.00     0.153 C 
HETATM   17  C   UNK N   1      33.937   6.947  20.680  0.00  0.00     0.022 C 
HETATM   18  C   UNK N   1      32.017   8.838  23.340  0.00  0.00     0.068 C 
HETATM   19  C   UNK N   1      32.995  10.003  23.353  0.00  0.00     0.125 C 
BRANCH  16  20
HETATM   20  O   UNK N   1      31.537   6.758  22.285  0.00  0.00    -0.391 OA
HETATM   21  H   UNK N   1      31.286   6.046  21.675  0.00  0.00     0.210 HD
ENDBRANCH  16  20
BRANCH  19  22
HETATM   22  O   UNK N   1      32.462  11.045  24.110  0.00  0.00    -0.395 OA
HETATM   23  H   UNK N   1      31.503  11.159  24.198  0.00  0.00     0.210 HD
ENDBRANCH  19  22
ENDBRANCH   6  12
BRANCH   8  24
HETATM   24  C   UNK N   1      35.103  10.380  13.559  0.00  0.00    -0.014 C 
HETATM   25  C   UNK N   1      33.872  10.308  12.668  0.00  0.00     0.010 C 
BRANCH  24  26
HETATM   26  C   UNK N   1      36.211   9.475  13.006  0.00  0.00     0.005 C 
BRANCH  26  27
HETATM   27  C   UNK N   1      37.052  10.100  11.904  0.00  0.00     0.003 C 
BRANCH  27  28
HETATM   28  C   UNK N   1      37.654  11.386  12.465  0.00  0.00     0.037 C 
BRANCH  28  29
HETATM   29  C   UNK N   1      37.263  12.649  11.706  0.00  0.00     0.051 C 
HETATM   30  C   UNK N   1      36.576  13.638  12.631  0.00  0.00     0.045 C 
HETATM   31  C   UNK N   1      36.345  12.317  10.543  0.00  0.00     0.045 C 
BRANCH  29  32
HETATM   32  O   UNK N   1      38.422  13.239  11.205  0.00  0.00    -0.391 OA
HETATM   33  H   UNK N   1      38.751  13.325  10.297  0.00  0.00     0.210 HD
ENDBRANCH  29  32
ENDBRANCH  28  29
ENDBRANCH  27  28
ENDBRANCH  26  27
ENDBRANCH  24  26
ENDBRANCH   8  24
TORSDOF 9
ENDMDL
MODEL 4
REMARK VINA RESULT:      -6.9      4.442      8.899
REMARK  9 active torsions:
REMARK  status: ('A' for Active; 'I' for Inactive)
REMARK    1  A    between atoms: C_6  and  C_8 
REMARK    2  A    between atoms: C_13  and  O_15 
REMARK    3  A    between atoms: C_23  and  C_17 
REMARK    4  A    between atoms: C_17  and  C_18 
REMARK    5  A    between atoms: C_18  and  C_19 
REMARK    6  A    between atoms: C_19  and  C_22 
REMARK    7  A    between atoms: C_22  and  C_27 
REMARK    8  A    between atoms: C_27  and  O_28 
REMARK    9  A    between atoms: C_29  and  O_30 
ROOT
HETATM    1  C   UNK N   1      25.533  15.543   2.966  0.00  0.00     0.010 C 
HETATM    2  C   UNK N   1      23.864  15.395   5.372  0.00  0.00    -0.075 C 
HETATM    3  C   UNK N   1      26.100  15.743   6.684  0.00  0.00     0.010 C 
HETATM    4  C   UNK N   1      27.536  16.006   6.195  0.00  0.00     0.006 C 
HETATM    5  C   UNK N   1      23.979  15.611   2.882  0.00  0.00     0.005 C 
HETATM    6  C   UNK N   1      23.053  14.826   6.278  0.00  0.00     0.004 C 
HETATM    7  C   UNK N   1      23.272  16.087   4.175  0.00  0.00     0.034 C 
HETATM    8  C   UNK N   1      27.528  15.735   4.677  0.00  0.00    -0.002 C 
HETATM    9  C   UNK N   1      25.371  15.261   5.436  0.00  0.00     0.023 C 
HETATM   10  C   UNK N   1      26.065  16.035   4.318  0.00  0.00    -0.033 C 
HETATM   11  C   UNK N   1      25.815  17.559   4.411  0.00  0.00     0.016 C 
ENDROOT
BRANCH   6  12
HETATM   12  C   UNK N   1      23.583  14.080   7.437  0.00  0.00     0.008 C 
HETATM   13  C   UNK N   1      22.807  13.585   8.419  0.00  0.00    -0.048 C 
HETATM   14  C   UNK N   1      23.432  12.899   9.592  0.00  0.00    -0.033 C 
HETATM   15  C   UNK N   1      21.320  13.792   8.385  0.00  0.00     0.071 C 
HETATM   16  C   UNK N   1      22.588  12.536  10.800  0.00  0.00     0.153 C 
HETATM   17  C   UNK N   1      24.754  12.737   9.666  0.00  0.00     0.022 C 
HETATM   18  C   UNK N   1      21.086  12.746  10.603  0.00  0.00     0.068 C 
HETATM   19  C   UNK N   1      20.784  13.997   9.793  0.00  0.00     0.125 C 
BRANCH  16  20
HETATM   20  O   UNK N   1      22.814  11.211  11.175  0.00  0.00    -0.391 OA
HETATM   21  H   UNK N   1      23.520  10.574  11.369  0.00  0.00     0.210 HD
ENDBRANCH  16  20
BRANCH  19  22
HETATM   22  O   UNK N   1      19.404  14.188   9.734  0.00  0.00    -0.395 OA
HETATM   23  H   UNK N   1      18.833  13.562   9.260  0.00  0.00     0.210 HD
ENDBRANCH  19  22
ENDBRANCH   6  12
BRANCH   8  24
HETATM   24  C   UNK N   1      28.577  16.550   3.892  0.00  0.00    -0.014 C 
HETATM   25  C   UNK N   1      29.156  15.745   2.738  0.00  0.00     0.010 C 
BRANCH  24  26
HETATM   26  C   UNK N   1      29.706  17.149   4.740  0.00  0.00     0.005 C 
BRANCH  26  27
HETATM   27  C   UNK N   1      31.047  16.441   4.605  0.00  0.00     0.003 C 
BRANCH  27  28
HETATM   28  C   UNK N   1      32.135  17.466   4.915  0.00  0.00     0.037 C 
BRANCH  28  29
HETATM   29  C   UNK N   1      33.030  17.098   6.094  0.00  0.00     0.051 C 
HETATM   30  C   UNK N   1      33.487  15.655   5.988  0.00  0.00     0.045 C 
HETATM   31  C   UNK N   1      32.301  17.306   7.410  0.00  0.00     0.045 C 
BRANCH  29  32
HETATM   32  O   UNK N   1      34.152  17.925   6.070  0.00  0.00    -0.391 OA
HETATM   33  H   UNK N   1      34.978  17.891   6.575  0.00  0.00     0.210 HD
ENDBRANCH  29  32
ENDBRANCH  28  29
ENDBRANCH  27  28
ENDBRANCH  26  27
ENDBRANCH  24  26
ENDBRANCH   8  24
TORSDOF 9
ENDMDL
MODEL 5
REMARK VINA RESULT:      -6.8     12.132     14.704
REMARK  9 active torsions:
REMARK  status: ('A' for Active; 'I' for Inactive)
REMARK    1  A    between atoms: C_6  and  C_8 
REMARK    2  A    between atoms: C_13  and  O_15 
REMARK    3  A    between atoms: C_23  and  C_17 
REMARK    4  A    between atoms: C_17  and  C_18 
REMARK    5  A    between atoms: C_18  and  C_19 
REMARK    6  A    between atoms: C_19  and  C_22 
REMARK    7  A    between atoms: C_22  and  C_27 
REMARK    8  A    between atoms: C_27  and  O_28 
REMARK    9  A    between atoms: C_29  and  O_30 
ROOT
HETATM    1  C   UNK N   1      27.451  24.003  -3.078  0.00  0.00     0.010 C 
HETATM    2  C   UNK N   1      29.742  22.420  -3.996  0.00  0.00    -0.075 C 
HETATM    3  C   UNK N   1      29.358  23.595  -6.300  0.00  0.00     0.010 C 
HETATM    4  C   UNK N   1      28.370  24.696  -6.729  0.00  0.00     0.006 C 
HETATM    5  C   UNK N   1      28.368  23.242  -2.074  0.00  0.00     0.005 C 
HETATM    6  C   UNK N   1      30.425  21.310  -4.318  0.00  0.00     0.004 C 
HETATM    7  C   UNK N   1      29.798  22.943  -2.587  0.00  0.00     0.034 C 
HETATM    8  C   UNK N   1      27.352  24.829  -5.578  0.00  0.00    -0.002 C 
HETATM    9  C   UNK N   1      28.805  23.106  -4.967  0.00  0.00     0.023 C 
HETATM   10  C   UNK N   1      28.186  24.370  -4.373  0.00  0.00    -0.033 C 
HETATM   11  C   UNK N   1      29.245  25.447  -4.041  0.00  0.00     0.016 C 
ENDROOT
BRANCH   6  12
HETATM   12  C   UNK N   1      30.353  20.718  -5.669  0.00  0.00     0.008 C 
HETATM   13  C   UNK N   1      31.399  20.128  -6.277  0.00  0.00    -0.048 C 
HETATM   14  C   UNK N   1      31.259  19.614  -7.676  0.00  0.00    -0.033 C 
HETATM   15  C   UNK N   1      32.733  20.059  -5.592  0.00  0.00     0.071 C 
HETATM   16  C   UNK N   1      32.483  19.151  -8.443  0.00  0.00     0.153 C 
HETATM   17  C   UNK N   1      30.095  19.699  -8.322  0.00  0.00     0.022 C 
HETATM   18  C   UNK N   1      33.760  19.075  -7.603  0.00  0.00     0.068 C 
HETATM   19  C   UNK N   1      33.857  20.218  -6.604  0.00  0.00     0.125 C 
BRANCH  16  20
HETATM   20  O   UNK N   1      32.253  17.904  -9.027  0.00  0.00    -0.391 OA
HETATM   21  H   UNK N   1      32.496  16.967  -8.964  0.00  0.00     0.210 HD
ENDBRANCH  16  20
BRANCH  19  22
HETATM   22  O   UNK N   1      35.082  20.151  -5.943  0.00  0.00    -0.395 OA
HETATM   23  H   UNK N   1      35.717  20.883  -5.993  0.00  0.00     0.210 HD
ENDBRANCH  19  22
ENDBRANCH   6  12
BRANCH   8  24
HETATM   24  C   UNK N   1      26.735  26.238  -5.451  0.00  0.00    -0.014 C 
HETATM   25  C   UNK N   1      25.215  26.181  -5.454  0.00  0.00     0.010 C 
BRANCH  24  26
HETATM   26  C   UNK N   1      27.229  27.262  -6.480  0.00  0.00     0.005 C 
BRANCH  26  27
HETATM   27  C   UNK N   1      27.325  28.689  -5.961  0.00  0.00     0.003 C 
BRANCH  27  28
HETATM   28  C   UNK N   1      27.791  28.616  -4.510  0.00  0.00     0.037 C 
BRANCH  28  29
HETATM   29  C   UNK N   1      27.008  29.505  -3.550  0.00  0.00     0.051 C 
HETATM   30  C   UNK N   1      26.762  30.870  -4.165  0.00  0.00     0.045 C 
HETATM   31  C   UNK N   1      27.751  29.665  -2.236  0.00  0.00     0.045 C 
BRANCH  29  32
HETATM   32  O   UNK N   1      25.777  28.902  -3.296  0.00  0.00    -0.391 OA
HETATM   33  H   UNK N   1      25.477  27.989  -3.426  0.00  0.00     0.210 HD
ENDBRANCH  29  32
ENDBRANCH  28  29
ENDBRANCH  27  28
ENDBRANCH  26  27
ENDBRANCH  24  26
ENDBRANCH   8  24
TORSDOF 9
ENDMDL
MODEL 6
REMARK VINA RESULT:      -6.7      2.799      4.694
REMARK  9 active torsions:
REMARK  status: ('A' for Active; 'I' for Inactive)
REMARK    1  A    between atoms: C_6  and  C_8 
REMARK    2  A    between atoms: C_13  and  O_15 
REMARK    3  A    between atoms: C_23  and  C_17 
REMARK    4  A    between atoms: C_17  and  C_18 
REMARK    5  A    between atoms: C_18  and  C_19 
REMARK    6  A    between atoms: C_19  and  C_22 
REMARK    7  A    between atoms: C_22  and  C_27 
REMARK    8  A    between atoms: C_27  and  O_28 
REMARK    9  A    between atoms: C_29  and  O_30 
ROOT
HETATM    1  C   UNK N   1      26.329  15.943   2.810  0.00  0.00     0.010 C 
HETATM    2  C   UNK N   1      28.649  15.314   4.489  0.00  0.00    -0.075 C 
HETATM    3  C   UNK N   1      28.655  17.866   5.063  0.00  0.00     0.010 C 
HETATM    4  C   UNK N   1      27.692  19.000   4.668  0.00  0.00     0.006 C 
HETATM    5  C   UNK N   1      26.715  14.471   3.145  0.00  0.00     0.005 C 
HETATM    6  C   UNK N   1      29.905  14.927   4.764  0.00  0.00     0.004 C 
HETATM    7  C   UNK N   1      27.550  14.289   4.436  0.00  0.00     0.034 C 
HETATM    8  C   UNK N   1      26.792  18.428   3.553  0.00  0.00    -0.002 C 
HETATM    9  C   UNK N   1      28.306  16.737   4.101  0.00  0.00     0.023 C 
HETATM   10  C   UNK N   1      26.807  16.928   3.883  0.00  0.00    -0.033 C 
HETATM   11  C   UNK N   1      25.987  16.678   5.171  0.00  0.00     0.016 C 
ENDROOT
BRANCH   6  12
HETATM   12  C   UNK N   1      31.031  15.882   4.765  0.00  0.00     0.008 C 
HETATM   13  C   UNK N   1      31.650  16.298   5.885  0.00  0.00    -0.048 C 
HETATM   14  C   UNK N   1      32.739  17.321   5.802  0.00  0.00    -0.033 C 
HETATM   15  C   UNK N   1      31.197  15.804   7.228  0.00  0.00     0.071 C 
HETATM   16  C   UNK N   1      33.287  17.954   7.068  0.00  0.00     0.153 C 
HETATM   17  C   UNK N   1      33.134  17.806   4.624  0.00  0.00     0.022 C 
HETATM   18  C   UNK N   1      32.782  17.312   8.361  0.00  0.00     0.068 C 
HETATM   19  C   UNK N   1      31.318  16.909   8.266  0.00  0.00     0.125 C 
BRANCH  16  20
HETATM   20  O   UNK N   1      34.683  17.924   7.065  0.00  0.00    -0.391 OA
HETATM   21  H   UNK N   1      35.465  18.420   7.354  0.00  0.00     0.210 HD
ENDBRANCH  16  20
BRANCH  19  22
HETATM   22  O   UNK N   1      30.891  16.426   9.502  0.00  0.00    -0.395 OA
HETATM   23  H   UNK N   1      30.665  17.032  10.225  0.00  0.00     0.210 HD
ENDBRANCH  19  22
ENDBRANCH   6  12
BRANCH   8  24
HETATM   24  C   UNK N   1      25.391  19.073   3.490  0.00  0.00    -0.014 C 
HETATM   25  C   UNK N   1      25.389  20.311   2.608  0.00  0.00     0.010 C 
BRANCH  24  26
HETATM   26  C   UNK N   1      24.757  19.389   4.850  0.00  0.00     0.005 C 
BRANCH  26  27
HETATM   27  C   UNK N   1      23.459  18.647   5.134  0.00  0.00     0.003 C 
BRANCH  27  28
HETATM   28  C   UNK N   1      22.752  18.438   3.798  0.00  0.00     0.037 C 
BRANCH  28  29
HETATM   29  C   UNK N   1      21.448  19.214   3.645  0.00  0.00     0.051 C 
HETATM   30  C   UNK N   1      20.357  18.321   3.083  0.00  0.00     0.045 C 
HETATM   31  C   UNK N   1      21.639  20.416   2.738  0.00  0.00     0.045 C 
BRANCH  29  32
HETATM   32  O   UNK N   1      21.053  19.663   4.904  0.00  0.00    -0.391 OA
HETATM   33  H   UNK N   1      21.374  19.436   5.790  0.00  0.00     0.210 HD
ENDBRANCH  29  32
ENDBRANCH  28  29
ENDBRANCH  27  28
ENDBRANCH  26  27
ENDBRANCH  24  26
ENDBRANCH   8  24
TORSDOF 9
ENDMDL
MODEL 7
REMARK VINA RESULT:      -6.7      2.779      9.911
REMARK  9 active torsions:
REMARK  status: ('A' for Active; 'I' for Inactive)
REMARK    1  A    between atoms: C_6  and  C_8 
REMARK    2  A    between atoms: C_13  and  O_15 
REMARK    3  A    between atoms: C_23  and  C_17 
REMARK    4  A    between atoms: C_17  and  C_18 
REMARK    5  A    between atoms: C_18  and  C_19 
REMARK    6  A    between atoms: C_19  and  C_22 
REMARK    7  A    between atoms: C_22  and  C_27 
REMARK    8  A    between atoms: C_27  and  O_28 
REMARK    9  A    between atoms: C_29  and  O_30 
ROOT
HETATM    1  C   UNK N   1      34.811  13.003   7.331  0.00  0.00     0.010 C 
HETATM    2  C   UNK N   1      34.013  15.808   7.027  0.00  0.00    -0.075 C 
HETATM    3  C   UNK N   1      33.777  15.800   9.631  0.00  0.00     0.010 C 
HETATM    4  C   UNK N   1      34.088  14.714  10.678  0.00  0.00     0.006 C 
HETATM    5  C   UNK N   1      35.004  13.761   5.984  0.00  0.00     0.005 C 
HETATM    6  C   UNK N   1      33.240  16.836   6.644  0.00  0.00     0.004 C 
HETATM    7  C   UNK N   1      35.088  15.303   6.104  0.00  0.00     0.034 C 
HETATM    8  C   UNK N   1      34.315  13.410   9.887  0.00  0.00    -0.002 C 
HETATM    9  C   UNK N   1      33.767  15.042   8.310  0.00  0.00     0.023 C 
HETATM   10  C   UNK N   1      34.810  13.950   8.537  0.00  0.00    -0.033 C 
HETATM   11  C   UNK N   1      36.237  14.522   8.705  0.00  0.00     0.016 C 
ENDROOT
BRANCH   6  12
HETATM   12  C   UNK N   1      32.130  17.329   7.483  0.00  0.00     0.008 C 
HETATM   13  C   UNK N   1      30.856  17.410   7.057  0.00  0.00    -0.048 C 
HETATM   14  C   UNK N   1      29.803  17.986   7.950  0.00  0.00    -0.033 C 
HETATM   15  C   UNK N   1      30.500  17.003   5.657  0.00  0.00     0.071 C 
HETATM   16  C   UNK N   1      28.419  18.282   7.403  0.00  0.00     0.153 C 
HETATM   17  C   UNK N   1      30.100  18.392   9.185  0.00  0.00     0.022 C 
HETATM   18  C   UNK N   1      28.179  17.759   5.985  0.00  0.00     0.068 C 
HETATM   19  C   UNK N   1      29.410  17.908   5.104  0.00  0.00     0.125 C 
BRANCH  16  20
HETATM   20  O   UNK N   1      27.437  17.762   8.248  0.00  0.00    -0.391 OA
HETATM   21  H   UNK N   1      27.313  17.269   9.074  0.00  0.00     0.210 HD
ENDBRANCH  16  20
BRANCH  19  22
HETATM   22  O   UNK N   1      29.099  17.509   3.805  0.00  0.00    -0.395 OA
HETATM   23  H   UNK N   1      29.787  17.441   3.125  0.00  0.00     0.210 HD
ENDBRANCH  19  22
ENDBRANCH   6  12
BRANCH   8  24
HETATM   24  C   UNK N   1      35.268  12.415  10.584  0.00  0.00    -0.014 C 
HETATM   25  C   UNK N   1      35.101  11.007  10.033  0.00  0.00     0.010 C 
BRANCH  24  26
HETATM   26  C   UNK N   1      35.185  12.398  12.115  0.00  0.00     0.005 C 
BRANCH  26  27
HETATM   27  C   UNK N   1      36.473  12.787  12.826  0.00  0.00     0.003 C 
BRANCH  27  28
HETATM   28  C   UNK N   1      36.158  13.990  13.712  0.00  0.00     0.037 C 
BRANCH  28  29
HETATM   29  C   UNK N   1      36.761  13.918  15.111  0.00  0.00     0.051 C 
HETATM   30  C   UNK N   1      35.762  13.338  16.095  0.00  0.00     0.045 C 
HETATM   31  C   UNK N   1      37.197  15.294  15.581  0.00  0.00     0.045 C 
BRANCH  29  32
HETATM   32  O   UNK N   1      37.879  13.086  15.067  0.00  0.00    -0.391 OA
HETATM   33  H   UNK N   1      38.229  12.456  15.715  0.00  0.00     0.210 HD
ENDBRANCH  29  32
ENDBRANCH  28  29
ENDBRANCH  27  28
ENDBRANCH  26  27
ENDBRANCH  24  26
ENDBRANCH   8  24
TORSDOF 9
ENDMDL
MODEL 8
REMARK VINA RESULT:      -6.6      4.938      8.454
REMARK  9 active torsions:
REMARK  status: ('A' for Active; 'I' for Inactive)
REMARK    1  A    between atoms: C_6  and  C_8 
REMARK    2  A    between atoms: C_13  and  O_15 
REMARK    3  A    between atoms: C_23  and  C_17 
REMARK    4  A    between atoms: C_17  and  C_18 
REMARK    5  A    between atoms: C_18  and  C_19 
REMARK    6  A    between atoms: C_19  and  C_22 
REMARK    7  A    between atoms: C_22  and  C_27 
REMARK    8  A    between atoms: C_27  and  O_28 
REMARK    9  A    between atoms: C_29  and  O_30 
ROOT
HETATM    1  C   UNK N   1      27.021  13.713   3.713  0.00  0.00     0.010 C 
HETATM    2  C   UNK N   1      24.712  12.858   5.305  0.00  0.00    -0.075 C 
HETATM    3  C   UNK N   1      25.436  14.738   6.972  0.00  0.00     0.010 C 
HETATM    4  C   UNK N   1      26.554  15.794   6.892  0.00  0.00     0.006 C 
HETATM    5  C   UNK N   1      25.942  12.753   3.129  0.00  0.00     0.005 C 
HETATM    6  C   UNK N   1      23.974  12.032   6.064  0.00  0.00     0.004 C 
HETATM    7  C   UNK N   1      24.553  12.833   3.810  0.00  0.00     0.034 C 
HETATM    8  C   UNK N   1      27.453  15.376   5.710  0.00  0.00    -0.002 C 
HETATM    9  C   UNK N   1      25.801  13.735   5.885  0.00  0.00     0.023 C 
HETATM   10  C   UNK N   1      26.461  14.612   4.823  0.00  0.00    -0.033 C 
HETATM   11  C   UNK N   1      25.469  15.611   4.182  0.00  0.00     0.016 C 
ENDROOT
BRANCH   6  12
HETATM   12  C   UNK N   1      24.136  11.969   7.530  0.00  0.00     0.008 C 
HETATM   13  C   UNK N   1      23.149  12.255   8.399  0.00  0.00    -0.048 C 
HETATM   14  C   UNK N   1      23.418  12.233   9.871  0.00  0.00    -0.033 C 
HETATM   15  C   UNK N   1      21.799  12.679   7.898  0.00  0.00     0.071 C 
HETATM   16  C   UNK N   1      22.380  12.764  10.842  0.00  0.00     0.153 C 
HETATM   17  C   UNK N   1      24.620  11.899  10.342  0.00  0.00     0.022 C 
HETATM   18  C   UNK N   1      21.033  13.102  10.200  0.00  0.00     0.068 C 
HETATM   19  C   UNK N   1      21.196  13.725   8.822  0.00  0.00     0.125 C 
BRANCH  16  20
HETATM   20  O   UNK N   1      22.170  11.853  11.880  0.00  0.00    -0.391 OA
HETATM   21  H   UNK N   1      22.584  11.113  12.351  0.00  0.00     0.210 HD
ENDBRANCH  16  20
BRANCH  19  22
HETATM   22  O   UNK N   1      19.946  14.101   8.335  0.00  0.00    -0.395 OA
HETATM   23  H   UNK N   1      19.406  14.761   8.799  0.00  0.00     0.210 HD
ENDBRANCH  19  22
ENDBRANCH   6  12
BRANCH   8  24
HETATM   24  C   UNK N   1      28.172  16.558   5.025  0.00  0.00    -0.014 C 
HETATM   25  C   UNK N   1      29.563  16.163   4.554  0.00  0.00     0.010 C 
BRANCH  24  26
HETATM   26  C   UNK N   1      28.238  17.849   5.850  0.00  0.00     0.005 C 
BRANCH  26  27
HETATM   27  C   UNK N   1      28.173  19.130   5.033  0.00  0.00     0.003 C 
BRANCH  27  28
HETATM   28  C   UNK N   1      27.106  18.931   3.959  0.00  0.00     0.037 C 
BRANCH  28  29
HETATM   29  C   UNK N   1      25.895  19.848   4.094  0.00  0.00     0.051 C 
HETATM   30  C   UNK N   1      24.686  19.069   4.579  0.00  0.00     0.045 C 
HETATM   31  C   UNK N   1      25.574  20.515   2.769  0.00  0.00     0.045 C 
BRANCH  29  32
HETATM   32  O   UNK N   1      26.194  20.836   5.030  0.00  0.00    -0.391 OA
HETATM   33  H   UNK N   1      25.678  21.184   5.775  0.00  0.00     0.210 HD
ENDBRANCH  29  32
ENDBRANCH  28  29
ENDBRANCH  27  28
ENDBRANCH  26  27
ENDBRANCH  24  26
ENDBRANCH   8  24
TORSDOF 9
ENDMDL
MODEL 9
REMARK VINA RESULT:      -6.5     12.712     15.080
REMARK  9 active torsions:
REMARK  status: ('A' for Active; 'I' for Inactive)
REMARK    1  A    between atoms: C_6  and  C_8 
REMARK    2  A    between atoms: C_13  and  O_15 
REMARK    3  A    between atoms: C_23  and  C_17 
REMARK    4  A    between atoms: C_17  and  C_18 
REMARK    5  A    between atoms: C_18  and  C_19 
REMARK    6  A    between atoms: C_19  and  C_22 
REMARK    7  A    between atoms: C_22  and  C_27 
REMARK    8  A    between atoms: C_27  and  O_28 
REMARK    9  A    between atoms: C_29  and  O_30 
ROOT
HETATM    1  C   UNK N   1      27.513  23.374  -8.786  0.00  0.00     0.010 C 
HETATM    2  C   UNK N   1      28.810  21.293  -7.178  0.00  0.00    -0.075 C 
HETATM    3  C   UNK N   1      28.417  22.909  -5.160  0.00  0.00     0.010 C 
HETATM    4  C   UNK N   1      27.693  24.264  -5.068  0.00  0.00     0.006 C 
HETATM    5  C   UNK N   1      27.772  21.949  -9.358  0.00  0.00     0.005 C 
HETATM    6  C   UNK N   1      29.810  20.502  -6.759  0.00  0.00     0.004 C 
HETATM    7  C   UNK N   1      27.917  20.831  -8.297  0.00  0.00     0.034 C 
HETATM    8  C   UNK N   1      27.448  24.718  -6.521  0.00  0.00    -0.002 C 
HETATM    9  C   UNK N   1      28.616  22.701  -6.656  0.00  0.00     0.023 C 
HETATM   10  C   UNK N   1      27.383  23.373  -7.258  0.00  0.00    -0.033 C 
HETATM   11  C   UNK N   1      26.071  22.644  -6.884  0.00  0.00     0.016 C 
ENDROOT
BRANCH   6  12
HETATM   12  C   UNK N   1      30.755  20.934  -5.709  0.00  0.00     0.008 C 
HETATM   13  C   UNK N   1      32.083  20.723  -5.773  0.00  0.00    -0.048 C 
HETATM   14  C   UNK N   1      32.961  21.133  -4.634  0.00  0.00    -0.033 C 
HETATM   15  C   UNK N   1      32.678  20.000  -6.946  0.00  0.00     0.071 C 
HETATM   16  C   UNK N   1      34.416  20.703  -4.601  0.00  0.00     0.153 C 
HETATM   17  C   UNK N   1      32.452  21.741  -3.562  0.00  0.00     0.022 C 
HETATM   18  C   UNK N   1      34.902  20.029  -5.886  0.00  0.00     0.068 C 
HETATM   19  C   UNK N   1      33.839  19.127  -6.496  0.00  0.00     0.125 C 
BRANCH  16  20
HETATM   20  O   UNK N   1      35.243  21.793  -4.324  0.00  0.00    -0.391 OA
HETATM   21  H   UNK N   1      36.150  22.028  -4.072  0.00  0.00     0.210 HD
ENDBRANCH  16  20
BRANCH  19  22
HETATM   22  O   UNK N   1      34.372  18.467  -7.602  0.00  0.00    -0.395 OA
HETATM   23  H   UNK N   1      35.114  17.849  -7.505  0.00  0.00     0.210 HD
ENDBRANCH  19  22
ENDBRANCH   6  12
BRANCH   8  24
HETATM   24  C   UNK N   1      26.207  25.621  -6.692  0.00  0.00    -0.014 C 
HETATM   25  C   UNK N   1      26.561  26.925  -7.390  0.00  0.00     0.010 C 
BRANCH  24  26
HETATM   26  C   UNK N   1      25.424  25.904  -5.404  0.00  0.00     0.005 C 
BRANCH  26  27
HETATM   27  C   UNK N   1      25.229  27.381  -5.090  0.00  0.00     0.003 C 
BRANCH  27  28
HETATM   28  C   UNK N   1      25.795  27.627  -3.694  0.00  0.00     0.037 C 
BRANCH  28  29
HETATM   29  C   UNK N   1      27.035  28.514  -3.663  0.00  0.00     0.051 C 
HETATM   30  C   UNK N   1      26.961  29.574  -4.747  0.00  0.00     0.045 C 
HETATM   31  C   UNK N   1      28.294  27.687  -3.845  0.00  0.00     0.045 C 
BRANCH  29  32
HETATM   32  O   UNK N   1      27.092  29.148  -2.423  0.00  0.00    -0.391 OA
HETATM   33  H   UNK N   1      26.698  29.979  -2.114  0.00  0.00     0.210 HD
ENDBRANCH  29  32
ENDBRANCH  28  29
ENDBRANCH  27  28
ENDBRANCH  26  27
ENDBRANCH  24  26
ENDBRANCH   8  24
TORSDOF 9
ENDMDL
