REMARK  19 active torsions:
REMARK  status: ('A' for Active; 'I' for Inactive)
REMARK    1  A    between atoms: C_11  and  C_12 
REMARK    2  A    between atoms: C_12  and  C_13 
REMARK       I    between atoms: C_13  and  N_14 
REMARK    3  A    between atoms: C_34  and  C_36 
REMARK    4  A    between atoms: C_36  and  C_37 
REMARK       I    between atoms: C_37  and  N_38 
REMARK    5  A    between atoms: C_40  and  C_41 
REMARK    6  A    between atoms: C_41  and  C_42 
REMARK    7  A    between atoms: C_42  and  C_43 
REMARK       I    between atoms: C_43  and  N_44 
REMARK    8  A    between atoms: Co_46  and  C_47 
REMARK    9  A    between atoms: C_54  and  C_55 
REMARK   10  A    between atoms: C_55  and  O_56 
REMARK   11  A    between atoms: C_63  and  O_64 
REMARK   12  A    between atoms: C_73  and  C_75 
REMARK   13  A    between atoms: C_75  and  C_76 
REMARK       I    between atoms: C_76  and  N_77 
REMARK   14  A    between atoms: C_79  and  C_80 
REMARK   15  A    between atoms: C_80  and  C_81 
REMARK   16  A    between atoms: C_81  and  C_82 
REMARK       I    between atoms: C_82  and  N_83 
REMARK   17  A    between atoms: C_88  and  C_89 
REMARK   18  A    between atoms: C_89  and  C_90 
REMARK   19  A    between atoms: C_90  and  C_91 
REMARK       I    between atoms: C_91  and  N_92 
ROOT
HETATM    1  C   UNK N   1       3.928  -0.226   2.350  0.00  0.00     0.148 C 
HETATM    2  C   UNK N   1       3.119   0.337   3.485  0.00  0.00     0.042 C 
HETATM    3  C   UNK N   1       3.106  -0.507   1.103  0.00  0.00     0.154 C 
HETATM    4  N   UNK N   1       3.700  -0.285  -0.197  0.00  0.00    -0.359 N 
HETATM    5  C   UNK N   1       3.829   0.963  -0.686  0.00  0.00     0.217 C 
HETATM    6  O   UNK N   1       4.586   1.755  -0.145  0.00  0.00    -0.274 OA
HETATM    7  C   UNK N   1       2.697   1.524  -1.423  0.00  0.00     0.104 C 
HETATM    8  C   UNK N   1       1.999   2.270  -0.301  0.00  0.00     0.025 C 
HETATM    9  C   UNK N   1       0.716   1.651   0.214  0.00  0.00     0.002 C 
HETATM   10  C   UNK N   1       0.345   2.445   1.452  0.00  0.00     0.022 C 
HETATM   11  C   UNK N   1      -0.137   1.963  -1.050  0.00  0.00     0.030 C 
HETATM   12  C   UNK N   1      -0.740   0.645  -1.423  0.00  0.00     0.116 C 
HETATM   13  N   UNK N   1       0.162  -0.401  -0.887  0.00  0.00    -0.206 NA
HETATM   14  C   UNK N   1       0.554   0.059   0.348  0.00  0.00     0.021 C 
HETATM   15  C   UNK N   1       0.370  -0.740   1.505  0.00  0.00    -0.018 C 
HETATM   16  C   UNK N   1       0.457  -0.116   2.845  0.00  0.00     0.052 C 
HETATM   17  C   UNK N   1      -0.114  -2.215   1.531  0.00  0.00     0.047 C 
HETATM   18  N   UNK N   1      -0.642  -2.741   0.527  0.00  0.00    -0.256 N 
HETATM   19  C   UNK N   1      -1.042  -4.090   0.806  0.00  0.00     0.042 C 
HETATM   20  C   UNK N   1      -1.516  -5.015  -0.046  0.00  0.00     0.028 C 
HETATM   21  C   UNK N   1      -2.006  -4.744  -1.391  0.00  0.00     0.138 C 
HETATM   22  N   UNK N   1      -2.025  -3.498  -1.666  0.00  0.00    -0.283 N 
HETATM   23  C   UNK N   1      -3.472  -3.214  -1.500  0.00  0.00     0.046 C 
HETATM   24  C   UNK N   1      -3.833  -2.562  -0.374  0.00  0.00    -0.012 C 
HETATM   25  C   UNK N   1      -4.978  -2.858   0.521  0.00  0.00     0.052 C 
HETATM   26  C   UNK N   1      -3.367  -1.296  -0.278  0.00  0.00     0.042 C 
HETATM   27  N   UNK N   1      -2.196  -0.979  -0.700  0.00  0.00    -0.280 N 
HETATM   28  C   UNK N   1      -2.080   0.428  -0.664  0.00  0.00     0.076 C 
HETATM   29  C   UNK N   1      -1.974   0.884   0.836  0.00  0.00     0.043 C 
HETATM   30  C   UNK N   1      -3.524   0.891  -1.083  0.00  0.00     0.002 C 
HETATM   31  C   UNK N   1      -3.836   0.452  -2.517  0.00  0.00     0.019 C 
HETATM   32  C   UNK N   1      -4.242  -0.068  -0.101  0.00  0.00     0.049 C 
HETATM   33 Co   UNK N   1      -0.614  -2.081  -1.170  0.00  0.00     0.000 Co
HETATM   34  N   UNK N   1       1.462  -2.892  -1.246  0.00  0.00    -0.242 N 
HETATM   35  C   UNK N   1       1.996  -3.587  -0.133  0.00  0.00     0.213 A 
HETATM   36  N   UNK N   1       3.384  -3.766  -0.159  0.00  0.00    -0.309 N 
HETATM   37  C   UNK N   1       4.342  -4.517   0.812  0.00  0.00     0.261 C 
HETATM   38  O   UNK N   1       3.876  -4.417   2.120  0.00  0.00    -0.353 OA
HETATM   39  C   UNK N   1       4.851  -3.719   2.869  0.00  0.00     0.180 C 
HETATM   40  C   UNK N   1       5.948  -3.081   1.968  0.00  0.00     0.198 C 
HETATM   41  O   UNK N   1       5.533  -2.027   1.140  0.00  0.00    -0.279 OA
HETATM   42  P   UNK N   1       6.277  -0.470   1.469  0.00  0.00     0.409 P 
HETATM   43  O   UNK N   1       7.760  -0.379   2.356  0.00  0.00    -0.624 OA
HETATM   44  O   UNK N   1       6.584   0.124   0.068  0.00  0.00    -0.624 OA
HETATM   45  O   UNK N   1       5.052   0.579   2.134  0.00  0.00    -0.283 OA
HETATM   46  C   UNK N   1       5.894  -4.230   1.034  0.00  0.00     0.199 C 
HETATM   47  C   UNK N   1       3.768  -3.180  -1.266  0.00  0.00     0.067 A 
HETATM   48  C   UNK N   1       5.077  -3.067  -1.661  0.00  0.00     0.039 A 
HETATM   49  C   UNK N   1       5.401  -2.335  -2.764  0.00  0.00    -0.054 A 
HETATM   50  C   UNK N   1       6.855  -2.218  -3.120  0.00  0.00     0.049 C 
HETATM   51  C   UNK N   1       4.357  -1.704  -3.490  0.00  0.00    -0.054 A 
HETATM   52  C   UNK N   1       4.726  -0.887  -4.679  0.00  0.00     0.049 C 
HETATM   53  C   UNK N   1       2.967  -1.836  -3.083  0.00  0.00     0.041 A 
HETATM   54  C   UNK N   1       2.651  -2.621  -1.936  0.00  0.00     0.085 A 
HETATM   55  C   UNK N   1      -4.323  -4.269  -2.051  0.00  0.00     0.015 C 
HETATM   56  C   UNK N   1      -4.190  -4.028  -3.543  0.00  0.00     0.023 C 
HETATM   57  C   UNK N   1      -3.391  -5.452  -1.707  0.00  0.00     0.029 C 
HETATM   58  C   UNK N   1      -1.142  -4.283   2.259  0.00  0.00     0.006 C 
HETATM   59  C   UNK N   1      -1.208  -5.738   2.750  0.00  0.00     0.022 C 
HETATM   60  C   UNK N   1      -2.486  -3.713   2.671  0.00  0.00     0.022 C 
HETATM   61  C   UNK N   1      -0.023  -3.284   2.691  0.00  0.00     0.052 C 
HETATM   62  H   UNK N   1       4.012  -1.053  -0.729  0.00  0.00     0.162 HD
ENDROOT
BRANCH  30  63
HETATM   63  C   UNK N   1      -3.940   2.381  -1.025  0.00  0.00     0.115 C 
BRANCH  63  64
HETATM   64  C   UNK N   1      -4.178   3.078   0.286  0.00  0.00     0.216 C 
HETATM   65  N   UNK N   1      -5.389   3.608   0.538  0.00  0.00    -0.370 N 
HETATM   66  H   UNK N   1      -5.496   4.569   0.723  0.00  0.00     0.159 HD
HETATM   67  H   UNK N   1      -6.181   3.024   0.538  0.00  0.00     0.159 HD
HETATM   68  O   UNK N   1      -3.262   3.284   1.062  0.00  0.00    -0.274 OA
ENDBRANCH  63  64
ENDBRANCH  30  63
BRANCH  32  69
HETATM   69  C   UNK N   1      -5.743  -0.114   0.222  0.00  0.00     0.021 C 
BRANCH  69  70
HETATM   70  C   UNK N   1      -6.620   0.657  -0.740  0.00  0.00     0.103 C 
BRANCH  70  71
HETATM   71  C   UNK N   1      -7.816   1.205  -0.025  0.00  0.00     0.215 C 
HETATM   72  N   UNK N   1      -8.067   2.528  -0.059  0.00  0.00    -0.370 N 
HETATM   73  H   UNK N   1      -7.322   3.170  -0.085  0.00  0.00     0.159 HD
HETATM   74  H   UNK N   1      -8.997   2.852  -0.059  0.00  0.00     0.159 HD
HETATM   75  O   UNK N   1      -8.578   0.459   0.570  0.00  0.00    -0.274 OA
ENDBRANCH  70  71
ENDBRANCH  69  70
ENDBRANCH  32  69
BRANCH  33  76
HETATM   76  C   UNK N   1      -0.632  -1.619  -3.080  0.00  0.00     0.180 C 
HETATM   77  N   UNK N   1      -0.478  -1.548  -4.233  0.00  0.00    -0.180 NA
ENDBRANCH  33  76
BRANCH  11  78
HETATM   78  C   UNK N   1      -1.138   3.124  -1.218  0.00  0.00     0.110 C 
BRANCH  78  79
HETATM   79  C   UNK N   1      -0.709   4.514  -0.918  0.00  0.00     0.215 C 
HETATM   80  N   UNK N   1      -0.739   5.442  -1.892  0.00  0.00    -0.370 N 
HETATM   81  H   UNK N   1      -0.161   5.800  -2.605  0.00  0.00     0.159 HD
HETATM   82  H   UNK N   1      -1.606   5.907  -1.892  0.00  0.00     0.159 HD
HETATM   83  O   UNK N   1      -0.471   4.847   0.228  0.00  0.00    -0.274 OA
ENDBRANCH  78  79
ENDBRANCH  11  78
BRANCH  55  84
HETATM   84  C   UNK N   1      -5.926  -4.184  -1.937  0.00  0.00     0.118 C 
BRANCH  84  85
HETATM   85  C   UNK N   1      -6.930  -4.138  -0.768  0.00  0.00     0.216 C 
HETATM   86  N   UNK N   1      -7.352  -5.268  -0.174  0.00  0.00    -0.370 N 
HETATM   87  H   UNK N   1      -8.223  -5.413   0.260  0.00  0.00     0.159 HD
HETATM   88  H   UNK N   1      -6.726  -6.027  -0.174  0.00  0.00     0.159 HD
HETATM   89  O   UNK N   1      -7.453  -3.076  -0.449  0.00  0.00    -0.274 OA
ENDBRANCH  84  85
ENDBRANCH  55  84
BRANCH  61  90
HETATM   90  C   UNK N   1       1.348  -4.035   2.524  0.00  0.00     0.021 C 
BRANCH  90  91
HETATM   91  C   UNK N   1       1.439  -5.612   2.399  0.00  0.00     0.103 C 
BRANCH  91  92
HETATM   92  C   UNK N   1       1.731  -6.331   1.068  0.00  0.00     0.215 C 
HETATM   93  N   UNK N   1       1.018  -6.089  -0.047  0.00  0.00    -0.370 N 
HETATM   94  H   UNK N   1       0.909  -5.549  -0.863  0.00  0.00     0.159 HD
HETATM   95  H   UNK N   1       0.278  -6.740  -0.047  0.00  0.00     0.159 HD
HETATM   96  O   UNK N   1       2.552  -7.232   1.044  0.00  0.00    -0.274 OA
ENDBRANCH  91  92
ENDBRANCH  90  91
ENDBRANCH  61  90
BRANCH  57  97
HETATM   97  C   UNK N   1      -3.990  -6.248  -0.554  0.00  0.00     0.017 C 
BRANCH  97  98
HETATM   98  C   UNK N   1      -5.187  -7.047  -1.047  0.00  0.00     0.103 C 
BRANCH  98  99
HETATM   99  C   UNK N   1      -5.595  -8.027  -0.006  0.00  0.00     0.215 C 
HETATM  100  N   UNK N   1      -4.737  -8.990   0.375  0.00  0.00    -0.370 N 
HETATM  101  H   UNK N   1      -5.034  -9.887   0.654  0.00  0.00     0.159 HD
HETATM  102  H   UNK N   1      -3.773  -8.791   0.375  0.00  0.00     0.159 HD
HETATM  103  O   UNK N   1      -6.706  -7.967   0.495  0.00  0.00    -0.274 OA
ENDBRANCH  98  99
ENDBRANCH  97  98
ENDBRANCH  57  97
BRANCH  46 104
HETATM  104  O   UNK N   1       6.802  -4.138  -0.019  0.00  0.00    -0.388 OA
HETATM  105  H   UNK N   1       7.174  -4.653  -0.752  0.00  0.00     0.210 HD
ENDBRANCH  46 104
BRANCH  39 106
HETATM  106  C   UNK N   1       4.271  -3.084   4.133  0.00  0.00     0.198 C 
BRANCH 106 107
HETATM  107  O   UNK N   1       3.402  -3.983   4.762  0.00  0.00    -0.398 OA
HETATM  108  H   UNK N   1       2.562  -3.774   5.198  0.00  0.00     0.209 HD
ENDBRANCH 106 107
ENDBRANCH  39 106
TORSDOF 19
