MODEL 1
REMARK VINA RESULT:      -7.9      0.000      0.000
REMARK  21 active torsions:
REMARK  status: ('A' for Active; 'I' for Inactive)
REMARK    1  A    between atoms: C_41  and  C_2 
REMARK    2  A    between atoms: C_12  and  C_24 
REMARK    3  A    between atoms: C_13  and  C_15 
REMARK    4  A    between atoms: C_14  and  N_17 
REMARK       I    between atoms: N_21  and  C_15 
REMARK    5  A    between atoms: C_16  and  C_24 
REMARK       I    between atoms: C_19  and  N_17 
REMARK    6  A    between atoms: C_18  and  C_37 
REMARK    7  A    between atoms: C_30  and  C_19 
REMARK    8  A    between atoms: C_26  and  N_21 
REMARK    9  A    between atoms: C_23  and  C_53 
REMARK   10  A    between atoms: C_43  and  C_26 
REMARK   11  A    between atoms: C_26  and  C_50 
REMARK   12  A    between atoms: C_30  and  C_42 
REMARK   13  A    between atoms: N_44  and  C_30 
REMARK   14  A    between atoms: C_45  and  C_37 
REMARK   15  A    between atoms: C_41  and  O_48 
REMARK   16  A    between atoms: C_46  and  C_42 
REMARK   17  A    between atoms: N_47  and  C_55 
REMARK   18  A    between atoms: O_51  and  C_50 
REMARK   19  A    between atoms: C_62  and  C_53 
REMARK   20  A    between atoms: C_55  and  C_63 
REMARK   21  A    between atoms: C_63  and  C_62 
ROOT
HETATM    1  C   UNK N   1      28.446  18.002   7.105  0.00  0.00     0.139 C 
HETATM    2  O   UNK N   1      28.687  17.604   5.790  0.00  0.00    -0.394 OA
HETATM    3  C   UNK N   1      27.997  19.450   7.149  0.00  0.00     0.041 C 
HETATM    4  H   UNK N   1      28.986  17.401   4.889  0.00  0.00     0.210 HD
ENDROOT
BRANCH   1   5
HETATM    5  C   UNK N   1      29.648  17.743   8.028  0.00  0.00     0.136 C 
BRANCH   5   6
HETATM    6  N   UNK N   1      30.654  16.792   7.571  0.00  0.00    -0.350 N 
HETATM    7  C   UNK N   1      31.990  17.022   7.445  0.00  0.00     0.241 C 
HETATM    8  O   UNK N   1      32.480  18.075   7.822  0.00  0.00    -0.271 OA
HETATM    9  H   UNK N   1      30.335  15.893   7.329  0.00  0.00     0.163 HD
BRANCH   7  10
HETATM   10  C   UNK N   1      32.851  15.992   6.736  0.00  0.00     0.186 C 
HETATM   11  N   UNK N   1      32.211  14.690   6.734  0.00  0.00    -0.345 N 
HETATM   12  C   UNK N   1      31.997  13.891   5.656  0.00  0.00     0.243 C 
HETATM   13  H   UNK N   1      31.900  14.349   7.604  0.00  0.00     0.163 HD
HETATM   14  C   UNK N   1      32.310  14.309   4.235  0.00  0.00     0.205 C 
HETATM   15  O   UNK N   1      31.547  12.773   5.847  0.00  0.00    -0.271 OA
HETATM   16  N   UNK N   1      33.715  14.653   4.097  0.00  0.00    -0.344 N 
HETATM   17  C   UNK N   1      34.709  13.724   4.051  0.00  0.00     0.241 C 
HETATM   18  H   UNK N   1      33.960  15.604   4.033  0.00  0.00     0.163 HD
HETATM   19  C   UNK N   1      34.389  12.246   3.964  0.00  0.00     0.176 C 
HETATM   20  O   UNK N   1      35.867  14.100   3.976  0.00  0.00    -0.271 OA
HETATM   21  N   UNK N   1      34.615  11.422   5.137  0.00  0.00    -0.346 N 
HETATM   22  C   UNK N   1      35.772  11.218   5.818  0.00  0.00     0.241 C 
HETATM   23  H   UNK N   1      33.826  10.947   5.485  0.00  0.00     0.163 HD
HETATM   24  C   UNK N   1      37.028  12.006   5.539  0.00  0.00     0.181 C 
HETATM   25  O   UNK N   1      35.788  10.361   6.686  0.00  0.00    -0.271 OA
HETATM   26  N   UNK N   1      37.260  13.203   6.307  0.00  0.00    -0.346 N 
HETATM   27  C   UNK N   1      36.981  13.448   7.610  0.00  0.00     0.241 C 
HETATM   28  H   UNK N   1      37.680  13.947   5.817  0.00  0.00     0.163 HD
HETATM   29  C   UNK N   1      36.348  12.415   8.553  0.00  0.00     0.180 C 
HETATM   30  O   UNK N   1      37.143  14.592   8.007  0.00  0.00    -0.271 OA
HETATM   31  N   UNK N   1      35.753  13.073   9.698  0.00  0.00    -0.346 N 
HETATM   32  C   UNK N   1      36.509  13.738  10.612  0.00  0.00     0.242 C 
HETATM   33  H   UNK N   1      34.777  13.036   9.820  0.00  0.00     0.163 HD
HETATM   34  O   UNK N   1      37.722  13.801  10.478  0.00  0.00    -0.271 OA
HETATM   35  C   UNK N   1      35.866  14.478  11.737  0.00  0.00     0.186 C 
HETATM   36  C   UNK N   1      34.788  15.528  11.571  0.00  0.00     0.120 C 
HETATM   37  S   UNK N   1      35.045  16.575  10.125  0.00  0.00    -0.095 SA
HETATM   38  S   UNK N   1      33.742  15.232   9.164  0.00  0.00    -0.095 SA
HETATM   39  C   UNK N   1      34.152  15.842   7.506  0.00  0.00     0.120 C 
BRANCH  14  40
HETATM   40  C   UNK N   1      31.378  15.444   3.766  0.00  0.00     0.146 C 
HETATM   41  C   UNK N   1      32.125  16.740   3.537  0.00  0.00     0.042 C 
BRANCH  40  42
HETATM   42  O   UNK N   1      30.327  15.684   4.647  0.00  0.00    -0.393 OA
HETATM   43  H   UNK N   1      30.123  15.314   5.520  0.00  0.00     0.210 HD
ENDBRANCH  40  42
ENDBRANCH  14  40
BRANCH  19  44
HETATM   44  C   UNK N   1      34.876  11.567   2.696  0.00  0.00     0.035 C 
BRANCH  44  45
HETATM   45  C   UNK N   1      34.136  12.140   1.503  0.00  0.00     0.004 C 
BRANCH  45  46
HETATM   46  C   UNK N   1      35.064  12.272   0.310  0.00  0.00     0.019 C 
BRANCH  46  47
HETATM   47  C   UNK N   1      36.020  13.439   0.499  0.00  0.00     0.111 C 
BRANCH  47  48
HETATM   48  N   UNK N   1      35.292  14.669   0.762  0.00  0.00    -0.430 N 
HETATM   49  H   UNK N   1      35.506  15.597   1.129  0.00  0.00     0.149 HD
HETATM   50  H   UNK N   1      34.307  14.583   0.512  0.00  0.00     0.149 HD
ENDBRANCH  47  48
ENDBRANCH  46  47
ENDBRANCH  45  46
ENDBRANCH  44  45
ENDBRANCH  19  44
BRANCH  24  51
HETATM   51  C   UNK N   1      38.306  11.280   5.178  0.00  0.00     0.075 C 
BRANCH  51  52
HETATM   52  C   UNK N   1      39.043  12.130   4.217  0.00  0.00    -0.028 A 
HETATM   53  C   UNK N   1      38.772  12.289   2.864  0.00  0.00     0.096 A 
HETATM   54  N   UNK N   1      39.718  13.093   2.309  0.00  0.00    -0.365 N 
HETATM   55  C   UNK N   1      40.554  13.418   3.308  0.00  0.00     0.042 A 
HETATM   56  H   UNK N   1      39.778  13.378   1.369  0.00  0.00     0.165 HD
HETATM   57  C   UNK N   1      40.167  12.853   4.488  0.00  0.00    -0.002 A 
HETATM   58  C   UNK N   1      41.698  14.209   3.224  0.00  0.00     0.030 A 
HETATM   59  C   UNK N   1      40.872  13.028   5.670  0.00  0.00     0.014 A 
HETATM   60  C   UNK N   1      42.028  13.828   5.623  0.00  0.00     0.001 A 
HETATM   61  C   UNK N   1      42.441  14.412   4.403  0.00  0.00     0.002 A 
ENDBRANCH  51  52
ENDBRANCH  24  51
BRANCH  29  62
HETATM   62  C   UNK N   1      37.188  11.256   9.126  0.00  0.00     0.073 C 
BRANCH  62  63
HETATM   63  C   UNK N   1      38.578  10.946   8.695  0.00  0.00    -0.056 A 
HETATM   64  C   UNK N   1      39.616  11.835   8.993  0.00  0.00     0.007 A 
HETATM   65  C   UNK N   1      40.945  11.459   8.763  0.00  0.00     0.001 A 
HETATM   66  C   UNK N   1      41.236  10.190   8.253  0.00  0.00     0.000 A 
HETATM   67  C   UNK N   1      40.200   9.293   7.977  0.00  0.00     0.001 A 
HETATM   68  C   UNK N   1      38.875   9.665   8.217  0.00  0.00     0.007 A 
ENDBRANCH  62  63
ENDBRANCH  29  62
BRANCH  35  69
HETATM   69  N   UNK N   1      36.107  14.110  13.103  0.00  0.00    -0.345 N 
HETATM   70  C   UNK N   1      35.461  13.120  13.760  0.00  0.00     0.240 C 
HETATM   71  O   UNK N   1      34.404  12.668  13.350  0.00  0.00    -0.271 OA
HETATM   72  H   UNK N   1      36.793  14.615  13.598  0.00  0.00     0.163 HD
BRANCH  70  73
HETATM   73  C   UNK N   1      36.178  12.456  14.889  0.00  0.00     0.171 C 
BRANCH  73  74
HETATM   74  C   UNK N   1      35.826  13.177  16.207  0.00  0.00     0.072 C 
BRANCH  74  75
HETATM   75  C   UNK N   1      35.550  12.288  17.395  0.00  0.00    -0.056 A 
HETATM   76  C   UNK N   1      35.470  10.895  17.251  0.00  0.00     0.007 A 
HETATM   77  C   UNK N   1      35.218  10.088  18.368  0.00  0.00     0.001 A 
HETATM   78  C   UNK N   1      35.051  10.665  19.630  0.00  0.00     0.000 A 
HETATM   79  C   UNK N   1      35.127  12.054  19.777  0.00  0.00     0.001 A 
HETATM   80  C   UNK N   1      35.375  12.863  18.662  0.00  0.00     0.007 A 
ENDBRANCH  74  75
ENDBRANCH  73  74
BRANCH  73  81
HETATM   81  N   UNK N   1      37.617  12.529  14.691  0.00  0.00    -0.418 N 
HETATM   82  H   UNK N   1      38.170  13.289  15.087  0.00  0.00     0.150 HD
HETATM   83  H   UNK N   1      38.083  11.804  14.146  0.00  0.00     0.150 HD
ENDBRANCH  73  81
ENDBRANCH  70  73
ENDBRANCH  35  69
ENDBRANCH   7  10
ENDBRANCH   5   6
BRANCH   5  84
HETATM   84  C   UNK N   1      29.291  17.563   9.506  0.00  0.00     0.191 C 
BRANCH  84  85
HETATM   85  O   UNK N   1      27.980  17.113   9.662  0.00  0.00    -0.399 OA
HETATM   86  H   UNK N   1      27.045  17.061   9.920  0.00  0.00     0.209 HD
ENDBRANCH  84  85
ENDBRANCH   5  84
ENDBRANCH   1   5
TORSDOF 21
ENDMDL
MODEL 2
REMARK VINA RESULT:      -7.8      1.248      1.959
REMARK  21 active torsions:
REMARK  status: ('A' for Active; 'I' for Inactive)
REMARK    1  A    between atoms: C_41  and  C_2 
REMARK    2  A    between atoms: C_12  and  C_24 
REMARK    3  A    between atoms: C_13  and  C_15 
REMARK    4  A    between atoms: C_14  and  N_17 
REMARK       I    between atoms: N_21  and  C_15 
REMARK    5  A    between atoms: C_16  and  C_24 
REMARK       I    between atoms: C_19  and  N_17 
REMARK    6  A    between atoms: C_18  and  C_37 
REMARK    7  A    between atoms: C_30  and  C_19 
REMARK    8  A    between atoms: C_26  and  N_21 
REMARK    9  A    between atoms: C_23  and  C_53 
REMARK   10  A    between atoms: C_43  and  C_26 
REMARK   11  A    between atoms: C_26  and  C_50 
REMARK   12  A    between atoms: C_30  and  C_42 
REMARK   13  A    between atoms: N_44  and  C_30 
REMARK   14  A    between atoms: C_45  and  C_37 
REMARK   15  A    between atoms: C_41  and  O_48 
REMARK   16  A    between atoms: C_46  and  C_42 
REMARK   17  A    between atoms: N_47  and  C_55 
REMARK   18  A    between atoms: O_51  and  C_50 
REMARK   19  A    between atoms: C_62  and  C_53 
REMARK   20  A    between atoms: C_55  and  C_63 
REMARK   21  A    between atoms: C_63  and  C_62 
ROOT
HETATM    1  C   UNK N   1      28.535  18.458   7.722  0.00  0.00     0.139 C 
HETATM    2  O   UNK N   1      27.598  18.999   8.602  0.00  0.00    -0.394 OA
HETATM    3  C   UNK N   1      28.072  17.103   7.221  0.00  0.00     0.041 C 
HETATM    4  H   UNK N   1      27.006  19.282   9.318  0.00  0.00     0.210 HD
ENDROOT
BRANCH   1   5
HETATM    5  C   UNK N   1      29.946  18.397   8.328  0.00  0.00     0.136 C 
BRANCH   5   6
HETATM    6  N   UNK N   1      30.845  17.359   7.835  0.00  0.00    -0.350 N 
HETATM    7  C   UNK N   1      32.192  17.464   7.673  0.00  0.00     0.241 C 
HETATM    8  O   UNK N   1      32.790  18.463   8.043  0.00  0.00    -0.271 OA
HETATM    9  H   UNK N   1      30.436  16.497   7.596  0.00  0.00     0.163 HD
BRANCH   7  10
HETATM   10  C   UNK N   1      32.933  16.365   6.932  0.00  0.00     0.186 C 
HETATM   11  N   UNK N   1      32.159  15.137   6.912  0.00  0.00    -0.345 N 
HETATM   12  C   UNK N   1      31.850  14.388   5.822  0.00  0.00     0.243 C 
HETATM   13  H   UNK N   1      31.824  14.813   7.779  0.00  0.00     0.163 HD
HETATM   14  C   UNK N   1      32.189  14.801   4.405  0.00  0.00     0.205 C 
HETATM   15  O   UNK N   1      31.288  13.320   5.996  0.00  0.00    -0.271 OA
HETATM   16  N   UNK N   1      33.621  14.999   4.255  0.00  0.00    -0.344 N 
HETATM   17  C   UNK N   1      34.511  13.972   4.177  0.00  0.00     0.241 C 
HETATM   18  H   UNK N   1      33.964  15.920   4.207  0.00  0.00     0.163 HD
HETATM   19  C   UNK N   1      34.037  12.537   4.065  0.00  0.00     0.176 C 
HETATM   20  O   UNK N   1      35.702  14.225   4.094  0.00  0.00    -0.271 OA
HETATM   21  N   UNK N   1      34.188  11.670   5.219  0.00  0.00    -0.346 N 
HETATM   22  C   UNK N   1      35.325  11.331   5.880  0.00  0.00     0.241 C 
HETATM   23  H   UNK N   1      33.357  11.273   5.567  0.00  0.00     0.163 HD
HETATM   24  C   UNK N   1      36.653  11.989   5.600  0.00  0.00     0.181 C 
HETATM   25  O   UNK N   1      35.260  10.459   6.730  0.00  0.00    -0.271 OA
HETATM   26  N   UNK N   1      37.019  13.138   6.388  0.00  0.00    -0.346 N 
HETATM   27  C   UNK N   1      36.781  13.384   7.700  0.00  0.00     0.241 C 
HETATM   28  H   UNK N   1      37.509  13.844   5.908  0.00  0.00     0.163 HD
HETATM   29  C   UNK N   1      36.053  12.403   8.630  0.00  0.00     0.180 C 
HETATM   30  O   UNK N   1      37.067  14.495   8.117  0.00  0.00    -0.271 OA
HETATM   31  N   UNK N   1      35.545  13.095   9.796  0.00  0.00    -0.346 N 
HETATM   32  C   UNK N   1      36.377  13.658  10.713  0.00  0.00     0.242 C 
HETATM   33  H   UNK N   1      34.571  13.158   9.930  0.00  0.00     0.163 HD
HETATM   34  O   UNK N   1      37.588  13.596  10.564  0.00  0.00    -0.271 OA
HETATM   35  C   UNK N   1      35.827  14.436  11.860  0.00  0.00     0.186 C 
HETATM   36  C   UNK N   1      34.864  15.598  11.730  0.00  0.00     0.120 C 
HETATM   37  S   UNK N   1      35.213  16.642  10.302  0.00  0.00    -0.095 SA
HETATM   38  S   UNK N   1      33.766  15.464   9.332  0.00  0.00    -0.095 SA
HETATM   39  C   UNK N   1      34.218  16.062   7.681  0.00  0.00     0.120 C 
BRANCH  14  40
HETATM   40  C   UNK N   1      31.376  16.037   3.971  0.00  0.00     0.146 C 
HETATM   41  C   UNK N   1      32.256  17.245   3.731  0.00  0.00     0.042 C 
BRANCH  40  42
HETATM   42  O   UNK N   1      30.384  16.383   4.884  0.00  0.00    -0.393 OA
HETATM   43  H   UNK N   1      30.356  17.059   5.578  0.00  0.00     0.210 HD
ENDBRANCH  40  42
ENDBRANCH  14  40
BRANCH  19  44
HETATM   44  C   UNK N   1      34.435  11.838   2.777  0.00  0.00     0.035 C 
BRANCH  44  45
HETATM   45  C   UNK N   1      33.688  12.462   1.615  0.00  0.00     0.004 C 
BRANCH  45  46
HETATM   46  C   UNK N   1      34.408  12.190   0.307  0.00  0.00     0.019 C 
BRANCH  46  47
HETATM   47  C   UNK N   1      33.445  12.281  -0.865  0.00  0.00     0.111 C 
BRANCH  47  48
HETATM   48  N   UNK N   1      33.889  13.276  -1.826  0.00  0.00    -0.430 N 
HETATM   49  H   UNK N   1      33.805  13.431  -2.831  0.00  0.00     0.149 HD
HETATM   50  H   UNK N   1      34.427  14.017  -1.377  0.00  0.00     0.149 HD
ENDBRANCH  47  48
ENDBRANCH  46  47
ENDBRANCH  45  46
ENDBRANCH  44  45
ENDBRANCH  19  44
BRANCH  24  51
HETATM   51  C   UNK N   1      37.843  11.140   5.207  0.00  0.00     0.075 C 
BRANCH  51  52
HETATM   52  C   UNK N   1      38.862  12.044   4.630  0.00  0.00    -0.028 A 
HETATM   53  C   UNK N   1      38.885  12.561   3.340  0.00  0.00     0.096 A 
HETATM   54  N   UNK N   1      40.021  13.289   3.169  0.00  0.00    -0.365 N 
HETATM   55  C   UNK N   1      40.681  13.217   4.336  0.00  0.00     0.042 A 
HETATM   56  H   UNK N   1      40.302  13.770   2.358  0.00  0.00     0.165 HD
HETATM   57  C   UNK N   1      39.998  12.471   5.251  0.00  0.00    -0.002 A 
HETATM   58  C   UNK N   1      41.915  13.786   4.642  0.00  0.00     0.030 A 
HETATM   59  C   UNK N   1      40.476  12.235   6.534  0.00  0.00     0.014 A 
HETATM   60  C   UNK N   1      41.715  12.803   6.877  0.00  0.00     0.001 A 
HETATM   61  C   UNK N   1      42.433  13.572   5.932  0.00  0.00     0.002 A 
ENDBRANCH  51  52
ENDBRANCH  24  51
BRANCH  29  62
HETATM   62  C   UNK N   1      36.774  11.150   9.169  0.00  0.00     0.073 C 
BRANCH  62  63
HETATM   63  C   UNK N   1      36.226  10.273  10.238  0.00  0.00    -0.056 A 
HETATM   64  C   UNK N   1      36.912  10.137  11.449  0.00  0.00     0.007 A 
HETATM   65  C   UNK N   1      36.307   9.474  12.524  0.00  0.00     0.001 A 
HETATM   66  C   UNK N   1      35.012   8.964  12.393  0.00  0.00     0.000 A 
HETATM   67  C   UNK N   1      34.317   9.121  11.190  0.00  0.00     0.001 A 
HETATM   68  C   UNK N   1      34.917   9.792  10.123  0.00  0.00     0.007 A 
ENDBRANCH  62  63
ENDBRANCH  29  62
BRANCH  35  69
HETATM   69  N   UNK N   1      36.044  14.016  13.216  0.00  0.00    -0.345 N 
HETATM   70  C   UNK N   1      35.446  12.952  13.798  0.00  0.00     0.240 C 
HETATM   71  O   UNK N   1      34.439  12.449  13.324  0.00  0.00    -0.271 OA
HETATM   72  H   UNK N   1      36.673  14.541  13.762  0.00  0.00     0.163 HD
BRANCH  70  73
HETATM   73  C   UNK N   1      36.166  12.282  14.921  0.00  0.00     0.171 C 
BRANCH  73  74
HETATM   74  C   UNK N   1      35.957  13.096  16.214  0.00  0.00     0.072 C 
BRANCH  74  75
HETATM   75  C   UNK N   1      35.634  12.298  17.455  0.00  0.00    -0.056 A 
HETATM   76  C   UNK N   1      35.297  12.938  18.656  0.00  0.00     0.007 A 
HETATM   77  C   UNK N   1      34.996  12.179  19.795  0.00  0.00     0.001 A 
HETATM   78  C   UNK N   1      35.024  10.783  19.737  0.00  0.00     0.000 A 
HETATM   79  C   UNK N   1      35.363  10.141  18.542  0.00  0.00     0.001 A 
HETATM   80  C   UNK N   1      35.668  10.898  17.403  0.00  0.00     0.007 A 
ENDBRANCH  74  75
ENDBRANCH  73  74
BRANCH  73  81
HETATM   81  N   UNK N   1      37.592  12.213  14.642  0.00  0.00    -0.418 N 
HETATM   82  H   UNK N   1      38.089  12.999  14.223  0.00  0.00     0.150 HD
HETATM   83  H   UNK N   1      38.104  11.362  14.871  0.00  0.00     0.150 HD
ENDBRANCH  73  81
ENDBRANCH  70  73
ENDBRANCH  35  69
ENDBRANCH   7  10
ENDBRANCH   5   6
BRANCH   5  84
HETATM   84  C   UNK N   1      29.994  18.547   9.850  0.00  0.00     0.191 C 
BRANCH  84  85
HETATM   85  O   UNK N   1      29.563  17.384  10.491  0.00  0.00    -0.399 OA
HETATM   86  H   UNK N   1      29.355  16.730  11.177  0.00  0.00     0.209 HD
ENDBRANCH  84  85
ENDBRANCH   5  84
ENDBRANCH   1   5
TORSDOF 21
ENDMDL
MODEL 3
REMARK VINA RESULT:      -7.6     10.642     14.845
REMARK  21 active torsions:
REMARK  status: ('A' for Active; 'I' for Inactive)
REMARK    1  A    between atoms: C_41  and  C_2 
REMARK    2  A    between atoms: C_12  and  C_24 
REMARK    3  A    between atoms: C_13  and  C_15 
REMARK    4  A    between atoms: C_14  and  N_17 
REMARK       I    between atoms: N_21  and  C_15 
REMARK    5  A    between atoms: C_16  and  C_24 
REMARK       I    between atoms: C_19  and  N_17 
REMARK    6  A    between atoms: C_18  and  C_37 
REMARK    7  A    between atoms: C_30  and  C_19 
REMARK    8  A    between atoms: C_26  and  N_21 
REMARK    9  A    between atoms: C_23  and  C_53 
REMARK   10  A    between atoms: C_43  and  C_26 
REMARK   11  A    between atoms: C_26  and  C_50 
REMARK   12  A    between atoms: C_30  and  C_42 
REMARK   13  A    between atoms: N_44  and  C_30 
REMARK   14  A    between atoms: C_45  and  C_37 
REMARK   15  A    between atoms: C_41  and  O_48 
REMARK   16  A    between atoms: C_46  and  C_42 
REMARK   17  A    between atoms: N_47  and  C_55 
REMARK   18  A    between atoms: O_51  and  C_50 
REMARK   19  A    between atoms: C_62  and  C_53 
REMARK   20  A    between atoms: C_55  and  C_63 
REMARK   21  A    between atoms: C_63  and  C_62 
ROOT
HETATM    1  C   UNK N   1      23.089  11.509  12.343  0.00  0.00     0.139 C 
HETATM    2  O   UNK N   1      22.980  11.926  13.670  0.00  0.00    -0.394 OA
HETATM    3  C   UNK N   1      24.402  11.977  11.745  0.00  0.00     0.041 C 
HETATM    4  H   UNK N   1      22.866  12.352  14.535  0.00  0.00     0.210 HD
ENDROOT
BRANCH   1   5
HETATM    5  C   UNK N   1      21.883  11.934  11.490  0.00  0.00     0.136 C 
BRANCH   5   6
HETATM    6  N   UNK N   1      22.128  12.871  10.400  0.00  0.00    -0.350 N 
HETATM    7  C   UNK N   1      21.192  13.433   9.588  0.00  0.00     0.241 C 
HETATM    8  O   UNK N   1      20.001  13.255   9.791  0.00  0.00    -0.271 OA
HETATM    9  H   UNK N   1      23.066  13.123  10.235  0.00  0.00     0.163 HD
BRANCH   7  10
HETATM   10  C   UNK N   1      21.647  14.204   8.362  0.00  0.00     0.186 C 
HETATM   11  N   UNK N   1      20.644  14.157   7.314  0.00  0.00    -0.345 N 
HETATM   12  C   UNK N   1      20.121  15.214   6.641  0.00  0.00     0.243 C 
HETATM   13  H   UNK N   1      20.308  13.266   7.065  0.00  0.00     0.163 HD
HETATM   14  C   UNK N   1      20.442  16.655   6.976  0.00  0.00     0.205 C 
HETATM   15  O   UNK N   1      19.368  14.989   5.707  0.00  0.00    -0.271 OA
HETATM   16  N   UNK N   1      21.872  16.899   6.881  0.00  0.00    -0.344 N 
HETATM   17  C   UNK N   1      22.531  17.019   5.697  0.00  0.00     0.241 C 
HETATM   18  H   UNK N   1      22.388  16.982   7.715  0.00  0.00     0.163 HD
HETATM   19  C   UNK N   1      21.773  17.080   4.386  0.00  0.00     0.176 C 
HETATM   20  O   UNK N   1      23.740  17.182   5.706  0.00  0.00    -0.271 OA
HETATM   21  N   UNK N   1      21.823  15.926   3.508  0.00  0.00    -0.346 N 
HETATM   22  C   UNK N   1      22.910  15.334   2.949  0.00  0.00     0.241 C 
HETATM   23  H   UNK N   1      20.954  15.519   3.286  0.00  0.00     0.163 HD
HETATM   24  C   UNK N   1      24.322  15.707   3.326  0.00  0.00     0.181 C 
HETATM   25  O   UNK N   1      22.728  14.469   2.109  0.00  0.00    -0.271 OA
HETATM   26  N   UNK N   1      24.961  14.961   4.380  0.00  0.00    -0.346 N 
HETATM   27  C   UNK N   1      24.863  13.641   4.670  0.00  0.00     0.241 C 
HETATM   28  H   UNK N   1      25.550  15.482   4.973  0.00  0.00     0.163 HD
HETATM   29  C   UNK N   1      24.017  12.652   3.857  0.00  0.00     0.180 C 
HETATM   30  O   UNK N   1      25.393  13.258   5.702  0.00  0.00    -0.271 OA
HETATM   31  N   UNK N   1      23.734  11.465   4.638  0.00  0.00    -0.346 N 
HETATM   32  C   UNK N   1      24.720  10.612   5.024  0.00  0.00     0.242 C 
HETATM   33  H   UNK N   1      22.804  11.271   4.896  0.00  0.00     0.163 HD
HETATM   34  O   UNK N   1      25.882  10.837   4.720  0.00  0.00    -0.271 OA
HETATM   35  C   UNK N   1      24.414   9.443   5.899  0.00  0.00     0.186 C 
HETATM   36  C   UNK N   1      23.696   9.528   7.229  0.00  0.00     0.120 C 
HETATM   37  S   UNK N   1      24.152  10.990   8.181  0.00  0.00    -0.095 SA
HETATM   38  S   UNK N   1      22.439  11.850   7.315  0.00  0.00    -0.095 SA
HETATM   39  C   UNK N   1      22.893  13.534   7.808  0.00  0.00     0.120 C 
BRANCH  14  40
HETATM   40  C   UNK N   1      19.866  17.054   8.348  0.00  0.00     0.146 C 
HETATM   41  C   UNK N   1      18.371  16.833   8.428  0.00  0.00     0.042 C 
BRANCH  40  42
HETATM   42  O   UNK N   1      20.140  18.376   8.689  0.00  0.00    -0.393 OA
HETATM   43  H   UNK N   1      20.954  18.806   8.994  0.00  0.00     0.210 HD
ENDBRANCH  40  42
ENDBRANCH  14  40
BRANCH  19  44
HETATM   44  C   UNK N   1      21.938  18.380   3.620  0.00  0.00     0.035 C 
BRANCH  44  45
HETATM   45  C   UNK N   1      20.576  18.884   3.185  0.00  0.00     0.004 C 
BRANCH  45  46
HETATM   46  C   UNK N   1      20.534  19.085   1.681  0.00  0.00     0.019 C 
BRANCH  46  47
HETATM   47  C   UNK N   1      21.188  20.402   1.298  0.00  0.00     0.111 C 
BRANCH  47  48
HETATM   48  N   UNK N   1      20.305  21.196   0.460  0.00  0.00    -0.430 N 
HETATM   49  H   UNK N   1      20.396  21.982  -0.184  0.00  0.00     0.149 HD
HETATM   50  H   UNK N   1      19.336  20.885   0.536  0.00  0.00     0.149 HD
ENDBRANCH  47  48
ENDBRANCH  46  47
ENDBRANCH  45  46
ENDBRANCH  44  45
ENDBRANCH  19  44
BRANCH  24  51
HETATM   51  C   UNK N   1      25.290  16.164   2.256  0.00  0.00     0.075 C 
BRANCH  51  52
HETATM   52  C   UNK N   1      26.434  16.807   2.937  0.00  0.00    -0.028 A 
HETATM   53  C   UNK N   1      27.655  16.222   3.252  0.00  0.00     0.096 A 
HETATM   54  N   UNK N   1      28.415  17.115   3.941  0.00  0.00    -0.365 N 
HETATM   55  C   UNK N   1      27.669  18.226   4.046  0.00  0.00     0.042 A 
HETATM   56  H   UNK N   1      29.324  16.975   4.291  0.00  0.00     0.165 HD
HETATM   57  C   UNK N   1      26.458  18.075   3.438  0.00  0.00    -0.002 A 
HETATM   58  C   UNK N   1      28.013  19.412   4.693  0.00  0.00     0.030 A 
HETATM   59  C   UNK N   1      25.499  19.078   3.417  0.00  0.00     0.014 A 
HETATM   60  C   UNK N   1      25.817  20.291   4.053  0.00  0.00     0.001 A 
HETATM   61  C   UNK N   1      27.068  20.454   4.692  0.00  0.00     0.002 A 
ENDBRANCH  51  52
ENDBRANCH  24  51
BRANCH  29  62
HETATM   62  C   UNK N   1      24.506  12.142   2.485  0.00  0.00     0.073 C 
BRANCH  62  63
HETATM   63  C   UNK N   1      23.655  11.380   1.532  0.00  0.00    -0.056 A 
HETATM   64  C   UNK N   1      23.968  11.374   0.168  0.00  0.00     0.007 A 
HETATM   65  C   UNK N   1      23.292  10.508  -0.699  0.00  0.00     0.001 A 
HETATM   66  C   UNK N   1      22.318   9.636  -0.201  0.00  0.00     0.000 A 
HETATM   67  C   UNK N   1      22.023   9.625   1.165  0.00  0.00     0.001 A 
HETATM   68  C   UNK N   1      22.706  10.482   2.031  0.00  0.00     0.007 A 
ENDBRANCH  62  63
ENDBRANCH  29  62
BRANCH  35  69
HETATM   69  N   UNK N   1      24.630   8.098   5.445  0.00  0.00    -0.345 N 
HETATM   70  C   UNK N   1      23.814   7.429   4.600  0.00  0.00     0.240 C 
HETATM   71  O   UNK N   1      22.665   7.795   4.400  0.00  0.00    -0.271 OA
HETATM   72  H   UNK N   1      25.431   7.628   5.774  0.00  0.00     0.163 HD
BRANCH  70  73
HETATM   73  C   UNK N   1      24.418   6.351   3.762  0.00  0.00     0.171 C 
BRANCH  73  74
HETATM   74  C   UNK N   1      24.046   6.589   2.284  0.00  0.00     0.072 C 
BRANCH  74  75
HETATM   75  C   UNK N   1      25.012   7.430   1.484  0.00  0.00    -0.056 A 
HETATM   76  C   UNK N   1      25.817   8.394   2.108  0.00  0.00     0.007 A 
HETATM   77  C   UNK N   1      26.711   9.161   1.349  0.00  0.00     0.001 A 
HETATM   78  C   UNK N   1      26.809   8.963  -0.032  0.00  0.00     0.000 A 
HETATM   79  C   UNK N   1      26.007   8.005  -0.658  0.00  0.00     0.001 A 
HETATM   80  C   UNK N   1      25.110   7.240   0.099  0.00  0.00     0.007 A 
ENDBRANCH  74  75
ENDBRANCH  73  74
BRANCH  73  81
HETATM   81  N   UNK N   1      23.910   5.050   4.164  0.00  0.00    -0.418 N 
HETATM   82  H   UNK N   1      24.540   4.278   4.384  0.00  0.00     0.150 HD
HETATM   83  H   UNK N   1      22.902   4.905   4.227  0.00  0.00     0.150 HD
ENDBRANCH  73  81
ENDBRANCH  70  73
ENDBRANCH  35  69
ENDBRANCH   7  10
ENDBRANCH   5   6
BRANCH   5  84
HETATM   84  C   UNK N   1      20.623  12.274  12.290  0.00  0.00     0.191 C 
BRANCH  84  85
HETATM   85  O   UNK N   1      19.630  11.311  12.109  0.00  0.00    -0.399 OA
HETATM   86  H   UNK N   1      18.782  10.885  11.901  0.00  0.00     0.209 HD
ENDBRANCH  84  85
ENDBRANCH   5  84
ENDBRANCH   1   5
TORSDOF 21
ENDMDL
MODEL 4
REMARK VINA RESULT:      -7.5      2.303      3.479
REMARK  21 active torsions:
REMARK  status: ('A' for Active; 'I' for Inactive)
REMARK    1  A    between atoms: C_41  and  C_2 
REMARK    2  A    between atoms: C_12  and  C_24 
REMARK    3  A    between atoms: C_13  and  C_15 
REMARK    4  A    between atoms: C_14  and  N_17 
REMARK       I    between atoms: N_21  and  C_15 
REMARK    5  A    between atoms: C_16  and  C_24 
REMARK       I    between atoms: C_19  and  N_17 
REMARK    6  A    between atoms: C_18  and  C_37 
REMARK    7  A    between atoms: C_30  and  C_19 
REMARK    8  A    between atoms: C_26  and  N_21 
REMARK    9  A    between atoms: C_23  and  C_53 
REMARK   10  A    between atoms: C_43  and  C_26 
REMARK   11  A    between atoms: C_26  and  C_50 
REMARK   12  A    between atoms: C_30  and  C_42 
REMARK   13  A    between atoms: N_44  and  C_30 
REMARK   14  A    between atoms: C_45  and  C_37 
REMARK   15  A    between atoms: C_41  and  O_48 
REMARK   16  A    between atoms: C_46  and  C_42 
REMARK   17  A    between atoms: N_47  and  C_55 
REMARK   18  A    between atoms: O_51  and  C_50 
REMARK   19  A    between atoms: C_62  and  C_53 
REMARK   20  A    between atoms: C_55  and  C_63 
REMARK   21  A    between atoms: C_63  and  C_62 
ROOT
HETATM    1  C   UNK N   1      27.572  19.096   7.268  0.00  0.00     0.139 C 
HETATM    2  O   UNK N   1      26.997  18.160   6.407  0.00  0.00    -0.394 OA
HETATM    3  C   UNK N   1      27.860  20.390   6.530  0.00  0.00     0.041 C 
HETATM    4  H   UNK N   1      26.739  17.487   5.758  0.00  0.00     0.210 HD
ENDROOT
BRANCH   1   5
HETATM    5  C   UNK N   1      28.818  18.551   7.983  0.00  0.00     0.136 C 
BRANCH   5   6
HETATM    6  N   UNK N   1      29.629  17.571   7.268  0.00  0.00    -0.350 N 
HETATM    7  C   UNK N   1      30.987  17.486   7.271  0.00  0.00     0.241 C 
HETATM    8  O   UNK N   1      31.657  18.208   7.994  0.00  0.00    -0.271 OA
HETATM    9  H   UNK N   1      29.145  16.905   6.730  0.00  0.00     0.163 HD
BRANCH   7  10
HETATM   10  C   UNK N   1      31.669  16.551   6.289  0.00  0.00     0.186 C 
HETATM   11  N   UNK N   1      31.075  15.227   6.330  0.00  0.00    -0.345 N 
HETATM   12  C   UNK N   1      30.619  14.507   5.273  0.00  0.00     0.243 C 
HETATM   13  H   UNK N   1      30.994  14.808   7.217  0.00  0.00     0.163 HD
HETATM   14  C   UNK N   1      30.564  15.048   3.860  0.00  0.00     0.205 C 
HETATM   15  O   UNK N   1      30.253  13.360   5.471  0.00  0.00    -0.271 OA
HETATM   16  N   UNK N   1      31.884  15.458   3.413  0.00  0.00    -0.344 N 
HETATM   17  C   UNK N   1      32.855  14.577   3.047  0.00  0.00     0.241 C 
HETATM   18  H   UNK N   1      32.087  16.421   3.374  0.00  0.00     0.163 HD
HETATM   19  C   UNK N   1      32.554  13.098   2.915  0.00  0.00     0.176 C 
HETATM   20  O   UNK N   1      33.952  15.004   2.726  0.00  0.00    -0.271 OA
HETATM   21  N   UNK N   1      33.079  12.195   3.923  0.00  0.00    -0.346 N 
HETATM   22  C   UNK N   1      34.372  11.987   4.282  0.00  0.00     0.241 C 
HETATM   23  H   UNK N   1      32.409  11.663   4.410  0.00  0.00     0.163 HD
HETATM   24  C   UNK N   1      35.504  12.844   3.774  0.00  0.00     0.181 C 
HETATM   25  O   UNK N   1      34.618  11.066   5.042  0.00  0.00    -0.271 OA
HETATM   26  N   UNK N   1      35.893  13.986   4.562  0.00  0.00    -0.346 N 
HETATM   27  C   UNK N   1      35.938  14.117   5.910  0.00  0.00     0.241 C 
HETATM   28  H   UNK N   1      36.165  14.783   4.051  0.00  0.00     0.163 HD
HETATM   29  C   UNK N   1      35.577  12.989   6.886  0.00  0.00     0.180 C 
HETATM   30  O   UNK N   1      36.169  15.232   6.352  0.00  0.00    -0.271 OA
HETATM   31  N   UNK N   1      35.269  13.530   8.194  0.00  0.00    -0.346 N 
HETATM   32  C   UNK N   1      36.213  14.152   8.950  0.00  0.00     0.242 C 
HETATM   33  H   UNK N   1      34.354  13.444   8.546  0.00  0.00     0.163 HD
HETATM   34  O   UNK N   1      37.354  14.275   8.531  0.00  0.00    -0.271 OA
HETATM   35  C   UNK N   1      35.851  14.775  10.256  0.00  0.00     0.186 C 
HETATM   36  C   UNK N   1      34.744  15.790  10.449  0.00  0.00     0.120 C 
HETATM   37  S   UNK N   1      34.616  16.957   9.079  0.00  0.00    -0.095 SA
HETATM   38  S   UNK N   1      33.145  15.641   8.352  0.00  0.00    -0.095 SA
HETATM   39  C   UNK N   1      33.121  16.394   6.703  0.00  0.00     0.120 C 
BRANCH  14  40
HETATM   40  C   UNK N   1      29.522  16.176   3.730  0.00  0.00     0.146 C 
HETATM   41  C   UNK N   1      28.126  15.641   3.491  0.00  0.00     0.042 C 
BRANCH  40  42
HETATM   42  O   UNK N   1      29.829  17.086   2.723  0.00  0.00    -0.393 OA
HETATM   43  H   UNK N   1      29.308  17.796   2.316  0.00  0.00     0.210 HD
ENDBRANCH  40  42
ENDBRANCH  14  40
BRANCH  19  44
HETATM   44  C   UNK N   1      32.728  12.541   1.513  0.00  0.00     0.035 C 
BRANCH  44  45
HETATM   45  C   UNK N   1      31.433  11.891   1.067  0.00  0.00     0.004 C 
BRANCH  45  46
HETATM   46  C   UNK N   1      31.674  10.978  -0.122  0.00  0.00     0.019 C 
BRANCH  46  47
HETATM   47  C   UNK N   1      31.579  11.756  -1.424  0.00  0.00     0.111 C 
BRANCH  47  48
HETATM   48  N   UNK N   1      30.219  11.748  -1.936  0.00  0.00    -0.430 N 
HETATM   49  H   UNK N   1      29.483  12.433  -2.106  0.00  0.00     0.149 HD
HETATM   50  H   UNK N   1      29.922  10.807  -2.196  0.00  0.00     0.149 HD
ENDBRANCH  47  48
ENDBRANCH  46  47
ENDBRANCH  45  46
ENDBRANCH  44  45
ENDBRANCH  19  44
BRANCH  24  51
HETATM   51  C   UNK N   1      36.668  12.201   3.052  0.00  0.00     0.075 C 
BRANCH  51  52
HETATM   52  C   UNK N   1      36.494  12.465   1.607  0.00  0.00    -0.028 A 
HETATM   53  C   UNK N   1      36.702  13.669   0.946  0.00  0.00     0.096 A 
HETATM   54  N   UNK N   1      36.364  13.527  -0.363  0.00  0.00    -0.365 N 
HETATM   55  C   UNK N   1      35.953  12.256  -0.499  0.00  0.00     0.042 A 
HETATM   56  H   UNK N   1      36.409  14.214  -1.067  0.00  0.00     0.165 HD
HETATM   57  C   UNK N   1      36.027  11.578   0.682  0.00  0.00    -0.002 A 
HETATM   58  C   UNK N   1      35.482  11.643  -1.659  0.00  0.00     0.030 A 
HETATM   59  C   UNK N   1      35.648  10.248   0.809  0.00  0.00     0.014 A 
HETATM   60  C   UNK N   1      35.176   9.597  -0.345  0.00  0.00     0.001 A 
HETATM   61  C   UNK N   1      35.090  10.294  -1.572  0.00  0.00     0.002 A 
ENDBRANCH  51  52
ENDBRANCH  24  51
BRANCH  29  62
HETATM   62  C   UNK N   1      36.557  11.823   7.136  0.00  0.00     0.073 C 
BRANCH  62  63
HETATM   63  C   UNK N   1      36.347  10.770   8.165  0.00  0.00    -0.056 A 
HETATM   64  C   UNK N   1      37.248  10.642   9.228  0.00  0.00     0.007 A 
HETATM   65  C   UNK N   1      36.951   9.788  10.296  0.00  0.00     0.001 A 
HETATM   66  C   UNK N   1      35.747   9.076  10.311  0.00  0.00     0.000 A 
HETATM   67  C   UNK N   1      34.837   9.221   9.261  0.00  0.00     0.001 A 
HETATM   68  C   UNK N   1      35.128  10.083   8.201  0.00  0.00     0.007 A 
ENDBRANCH  62  63
ENDBRANCH  29  62
BRANCH  35  69
HETATM   69  N   UNK N   1      36.428  14.311  11.487  0.00  0.00    -0.345 N 
HETATM   70  C   UNK N   1      35.768  13.600  12.428  0.00  0.00     0.240 C 
HETATM   71  O   UNK N   1      34.547  13.563  12.459  0.00  0.00    -0.271 OA
HETATM   72  H   UNK N   1      37.374  14.528  11.658  0.00  0.00     0.163 HD
BRANCH  70  73
HETATM   73  C   UNK N   1      36.572  12.697  13.304  0.00  0.00     0.171 C 
BRANCH  73  74
HETATM   74  C   UNK N   1      36.804  13.385  14.664  0.00  0.00     0.072 C 
BRANCH  74  75
HETATM   75  C   UNK N   1      36.264  12.662  15.874  0.00  0.00    -0.056 A 
HETATM   76  C   UNK N   1      35.584  13.356  16.885  0.00  0.00     0.007 A 
HETATM   77  C   UNK N   1      35.086  12.666  17.998  0.00  0.00     0.001 A 
HETATM   78  C   UNK N   1      35.259  11.282  18.102  0.00  0.00     0.000 A 
HETATM   79  C   UNK N   1      35.938  10.587  17.097  0.00  0.00     0.001 A 
HETATM   80  C   UNK N   1      36.440  11.276  15.986  0.00  0.00     0.007 A 
ENDBRANCH  74  75
ENDBRANCH  73  74
BRANCH  73  81
HETATM   81  N   UNK N   1      37.864  12.419  12.698  0.00  0.00    -0.418 N 
HETATM   82  H   UNK N   1      37.942  11.882  11.834  0.00  0.00     0.150 HD
HETATM   83  H   UNK N   1      38.711  12.769  13.146  0.00  0.00     0.150 HD
ENDBRANCH  73  81
ENDBRANCH  70  73
ENDBRANCH  35  69
ENDBRANCH   7  10
ENDBRANCH   5   6
BRANCH   5  84
HETATM   84  C   UNK N   1      28.601  18.179   9.452  0.00  0.00     0.191 C 
BRANCH  84  85
HETATM   85  O   UNK N   1      29.654  18.625  10.251  0.00  0.00    -0.399 OA
HETATM   86  H   UNK N   1      30.546  18.834  10.572  0.00  0.00     0.209 HD
ENDBRANCH  84  85
ENDBRANCH   5  84
ENDBRANCH   1   5
TORSDOF 21
ENDMDL
MODEL 5
REMARK VINA RESULT:      -7.4      7.272     13.668
REMARK  21 active torsions:
REMARK  status: ('A' for Active; 'I' for Inactive)
REMARK    1  A    between atoms: C_41  and  C_2 
REMARK    2  A    between atoms: C_12  and  C_24 
REMARK    3  A    between atoms: C_13  and  C_15 
REMARK    4  A    between atoms: C_14  and  N_17 
REMARK       I    between atoms: N_21  and  C_15 
REMARK    5  A    between atoms: C_16  and  C_24 
REMARK       I    between atoms: C_19  and  N_17 
REMARK    6  A    between atoms: C_18  and  C_37 
REMARK    7  A    between atoms: C_30  and  C_19 
REMARK    8  A    between atoms: C_26  and  N_21 
REMARK    9  A    between atoms: C_23  and  C_53 
REMARK   10  A    between atoms: C_43  and  C_26 
REMARK   11  A    between atoms: C_26  and  C_50 
REMARK   12  A    between atoms: C_30  and  C_42 
REMARK   13  A    between atoms: N_44  and  C_30 
REMARK   14  A    between atoms: C_45  and  C_37 
REMARK   15  A    between atoms: C_41  and  O_48 
REMARK   16  A    between atoms: C_46  and  C_42 
REMARK   17  A    between atoms: N_47  and  C_55 
REMARK   18  A    between atoms: O_51  and  C_50 
REMARK   19  A    between atoms: C_62  and  C_53 
REMARK   20  A    between atoms: C_55  and  C_63 
REMARK   21  A    between atoms: C_63  and  C_62 
ROOT
HETATM    1  C   UNK N   1      26.934   6.070   4.375  0.00  0.00     0.139 C 
HETATM    2  O   UNK N   1      27.124   4.691   4.462  0.00  0.00    -0.394 OA
HETATM    3  C   UNK N   1      26.592   6.646   5.735  0.00  0.00     0.041 C 
HETATM    4  H   UNK N   1      27.105   3.722   4.525  0.00  0.00     0.210 HD
ENDROOT
BRANCH   1   5
HETATM    5  C   UNK N   1      25.896   6.455   3.308  0.00  0.00     0.136 C 
BRANCH   5   6
HETATM    6  N   UNK N   1      25.325   7.795   3.379  0.00  0.00    -0.350 N 
HETATM    7  C   UNK N   1      25.147   8.656   2.340  0.00  0.00     0.241 C 
HETATM    8  O   UNK N   1      25.378   8.307   1.193  0.00  0.00    -0.271 OA
HETATM    9  H   UNK N   1      25.039   8.107   4.267  0.00  0.00     0.163 HD
BRANCH   7  10
HETATM   10  C   UNK N   1      24.753  10.092   2.634  0.00  0.00     0.186 C 
HETATM   11  N   UNK N   1      24.796  10.902   1.429  0.00  0.00    -0.345 N 
HETATM   12  C   UNK N   1      23.809  11.704   0.954  0.00  0.00     0.243 C 
HETATM   13  H   UNK N   1      25.626  10.865   0.903  0.00  0.00     0.163 HD
HETATM   14  C   UNK N   1      22.431  11.788   1.577  0.00  0.00     0.205 C 
HETATM   15  O   UNK N   1      24.052  12.406  -0.014  0.00  0.00    -0.271 OA
HETATM   16  N   UNK N   1      22.520  12.192   2.970  0.00  0.00    -0.344 N 
HETATM   17  C   UNK N   1      22.784  13.469   3.361  0.00  0.00     0.241 C 
HETATM   18  H   UNK N   1      22.383  11.509   3.665  0.00  0.00     0.163 HD
HETATM   19  C   UNK N   1      22.828  14.599   2.352  0.00  0.00     0.176 C 
HETATM   20  O   UNK N   1      22.884  13.715   4.551  0.00  0.00    -0.271 OA
HETATM   21  N   UNK N   1      24.119  15.169   2.012  0.00  0.00    -0.346 N 
HETATM   22  C   UNK N   1      25.028  15.754   2.833  0.00  0.00     0.241 C 
HETATM   23  H   UNK N   1      24.368  15.127   1.060  0.00  0.00     0.163 HD
HETATM   24  C   UNK N   1      24.895  15.736   4.336  0.00  0.00     0.181 C 
HETATM   25  O   UNK N   1      25.985  16.315   2.328  0.00  0.00    -0.271 OA
HETATM   26  N   UNK N   1      25.533  14.665   5.059  0.00  0.00    -0.346 N 
HETATM   27  C   UNK N   1      26.717  14.054   4.810  0.00  0.00     0.241 C 
HETATM   28  H   UNK N   1      25.041  14.330   5.843  0.00  0.00     0.163 HD
HETATM   29  C   UNK N   1      27.646  14.442   3.651  0.00  0.00     0.180 C 
HETATM   30  O   UNK N   1      26.988  13.073   5.484  0.00  0.00    -0.271 OA
HETATM   31  N   UNK N   1      28.563  13.361   3.355  0.00  0.00    -0.346 N 
HETATM   32  C   UNK N   1      29.511  12.964   4.245  0.00  0.00     0.242 C 
HETATM   33  H   UNK N   1      28.500  12.902   2.486  0.00  0.00     0.163 HD
HETATM   34  O   UNK N   1      29.604  13.516   5.332  0.00  0.00    -0.271 OA
HETATM   35  C   UNK N   1      30.388  11.794   3.951  0.00  0.00     0.186 C 
HETATM   36  C   UNK N   1      29.887  10.416   3.571  0.00  0.00     0.120 C 
HETATM   37  S   UNK N   1      28.395   9.941   4.465  0.00  0.00    -0.095 SA
HETATM   38  S   UNK N   1      27.383  10.667   2.769  0.00  0.00    -0.095 SA
HETATM   39  C   UNK N   1      25.769  10.682   3.596  0.00  0.00     0.120 C 
BRANCH  14  40
HETATM   40  C   UNK N   1      21.652  10.471   1.395  0.00  0.00     0.146 C 
HETATM   41  C   UNK N   1      21.444   9.743   2.706  0.00  0.00     0.042 C 
BRANCH  40  42
HETATM   42  O   UNK N   1      22.257   9.601   0.493  0.00  0.00    -0.393 OA
HETATM   43  H   UNK N   1      22.225   8.635   0.411  0.00  0.00     0.210 HD
ENDBRANCH  40  42
ENDBRANCH  14  40
BRANCH  19  44
HETATM   44  C   UNK N   1      21.774  15.672   2.557  0.00  0.00     0.035 C 
BRANCH  44  45
HETATM   45  C   UNK N   1      20.402  15.088   2.280  0.00  0.00     0.004 C 
BRANCH  45  46
HETATM   46  C   UNK N   1      20.018  15.289   0.826  0.00  0.00     0.019 C 
BRANCH  46  47
HETATM   47  C   UNK N   1      19.994  16.767   0.476  0.00  0.00     0.111 C 
BRANCH  47  48
HETATM   48  N   UNK N   1      19.132  17.502   1.386  0.00  0.00    -0.430 N 
HETATM   49  H   UNK N   1      19.079  18.450   1.760  0.00  0.00     0.149 HD
HETATM   50  H   UNK N   1      18.379  16.915   1.745  0.00  0.00     0.149 HD
ENDBRANCH  47  48
ENDBRANCH  46  47
ENDBRANCH  45  46
ENDBRANCH  44  45
ENDBRANCH  19  44
BRANCH  24  51
HETATM   51  C   UNK N   1      24.880  17.040   5.104  0.00  0.00     0.075 C 
BRANCH  51  52
HETATM   52  C   UNK N   1      23.486  17.535   5.111  0.00  0.00    -0.028 A 
HETATM   53  C   UNK N   1      22.421  17.022   5.841  0.00  0.00     0.096 A 
HETATM   54  N   UNK N   1      21.288  17.702   5.520  0.00  0.00    -0.365 N 
HETATM   55  C   UNK N   1      21.656  18.615   4.607  0.00  0.00     0.042 A 
HETATM   56  H   UNK N   1      20.384  17.556   5.882  0.00  0.00     0.165 HD
HETATM   57  C   UNK N   1      22.991  18.545   4.340  0.00  0.00    -0.002 A 
HETATM   58  C   UNK N   1      20.834  19.535   3.958  0.00  0.00     0.030 A 
HETATM   59  C   UNK N   1      23.617  19.377   3.421  0.00  0.00     0.014 A 
HETATM   60  C   UNK N   1      22.818  20.323   2.755  0.00  0.00     0.001 A 
HETATM   61  C   UNK N   1      21.431  20.397   3.020  0.00  0.00     0.002 A 
ENDBRANCH  51  52
ENDBRANCH  24  51
BRANCH  29  62
HETATM   62  C   UNK N   1      28.513  15.715   3.731  0.00  0.00     0.073 C 
BRANCH  62  63
HETATM   63  C   UNK N   1      28.310  16.795   4.734  0.00  0.00    -0.056 A 
HETATM   64  C   UNK N   1      28.510  16.532   6.093  0.00  0.00     0.007 A 
HETATM   65  C   UNK N   1      28.511  17.585   7.016  0.00  0.00     0.001 A 
HETATM   66  C   UNK N   1      28.331  18.901   6.577  0.00  0.00     0.000 A 
HETATM   67  C   UNK N   1      28.155  19.166   5.216  0.00  0.00     0.001 A 
HETATM   68  C   UNK N   1      28.166  18.116   4.296  0.00  0.00     0.007 A 
ENDBRANCH  62  63
ENDBRANCH  29  62
BRANCH  35  69
HETATM   69  N   UNK N   1      31.812  11.942   3.833  0.00  0.00    -0.345 N 
HETATM   70  C   UNK N   1      32.444  12.506   2.779  0.00  0.00     0.240 C 
HETATM   71  O   UNK N   1      31.884  12.649   1.703  0.00  0.00    -0.271 OA
HETATM   72  H   UNK N   1      32.368  11.609   4.575  0.00  0.00     0.163 HD
BRANCH  70  73
HETATM   73  C   UNK N   1      33.776  13.133   3.025  0.00  0.00     0.171 C 
BRANCH  73  74
HETATM   74  C   UNK N   1      33.723  14.616   2.605  0.00  0.00     0.072 C 
BRANCH  74  75
HETATM   75  C   UNK N   1      33.092  15.564   3.597  0.00  0.00    -0.056 A 
HETATM   76  C   UNK N   1      33.025  15.243   4.960  0.00  0.00     0.007 A 
HETATM   77  C   UNK N   1      32.440  16.138   5.865  0.00  0.00     0.001 A 
HETATM   78  C   UNK N   1      31.925  17.357   5.414  0.00  0.00     0.000 A 
HETATM   79  C   UNK N   1      31.986  17.679   4.054  0.00  0.00     0.001 A 
HETATM   80  C   UNK N   1      32.568  16.784   3.148  0.00  0.00     0.007 A 
ENDBRANCH  74  75
ENDBRANCH  73  74
BRANCH  73  81
HETATM   81  N   UNK N   1      34.804  12.466   2.243  0.00  0.00    -0.418 N 
HETATM   82  H   UNK N   1      35.709  12.226   2.649  0.00  0.00     0.150 HD
HETATM   83  H   UNK N   1      34.617  12.234   1.267  0.00  0.00     0.150 HD
ENDBRANCH  73  81
ENDBRANCH  70  73
ENDBRANCH  35  69
ENDBRANCH   7  10
ENDBRANCH   5   6
BRANCH   5  84
HETATM   84  C   UNK N   1      24.846   5.378   3.021  0.00  0.00     0.191 C 
BRANCH  84  85
HETATM   85  O   UNK N   1      24.529   5.326   1.663  0.00  0.00    -0.399 OA
HETATM   86  H   UNK N   1      24.032   5.252   0.833  0.00  0.00     0.209 HD
ENDBRANCH  84  85
ENDBRANCH   5  84
ENDBRANCH   1   5
TORSDOF 21
ENDMDL
MODEL 6
REMARK VINA RESULT:      -7.1      7.571     14.553
REMARK  21 active torsions:
REMARK  status: ('A' for Active; 'I' for Inactive)
REMARK    1  A    between atoms: C_41  and  C_2 
REMARK    2  A    between atoms: C_12  and  C_24 
REMARK    3  A    between atoms: C_13  and  C_15 
REMARK    4  A    between atoms: C_14  and  N_17 
REMARK       I    between atoms: N_21  and  C_15 
REMARK    5  A    between atoms: C_16  and  C_24 
REMARK       I    between atoms: C_19  and  N_17 
REMARK    6  A    between atoms: C_18  and  C_37 
REMARK    7  A    between atoms: C_30  and  C_19 
REMARK    8  A    between atoms: C_26  and  N_21 
REMARK    9  A    between atoms: C_23  and  C_53 
REMARK   10  A    between atoms: C_43  and  C_26 
REMARK   11  A    between atoms: C_26  and  C_50 
REMARK   12  A    between atoms: C_30  and  C_42 
REMARK   13  A    between atoms: N_44  and  C_30 
REMARK   14  A    between atoms: C_45  and  C_37 
REMARK   15  A    between atoms: C_41  and  O_48 
REMARK   16  A    between atoms: C_46  and  C_42 
REMARK   17  A    between atoms: N_47  and  C_55 
REMARK   18  A    between atoms: O_51  and  C_50 
REMARK   19  A    between atoms: C_62  and  C_53 
REMARK   20  A    between atoms: C_55  and  C_63 
REMARK   21  A    between atoms: C_63  and  C_62 
ROOT
HETATM    1  C   UNK N   1      31.666  11.357  -1.140  0.00  0.00     0.139 C 
HETATM    2  O   UNK N   1      32.022  12.659  -1.495  0.00  0.00    -0.394 OA
HETATM    3  C   UNK N   1      31.951  10.399  -2.281  0.00  0.00     0.041 C 
HETATM    4  H   UNK N   1      32.139  13.566  -1.819  0.00  0.00     0.210 HD
ENDROOT
BRANCH   1   5
HETATM    5  C   UNK N   1      30.212  11.257  -0.653  0.00  0.00     0.136 C 
BRANCH   5   6
HETATM    6  N   UNK N   1      29.709  12.336   0.189  0.00  0.00    -0.350 N 
HETATM    7  C   UNK N   1      30.086  12.609   1.468  0.00  0.00     0.241 C 
HETATM    8  O   UNK N   1      30.996  11.991   1.997  0.00  0.00    -0.271 OA
HETATM    9  H   UNK N   1      29.029  12.927  -0.208  0.00  0.00     0.163 HD
BRANCH   7  10
HETATM   10  C   UNK N   1      29.292  13.626   2.268  0.00  0.00     0.186 C 
HETATM   11  N   UNK N   1      29.571  13.506   3.688  0.00  0.00    -0.345 N 
HETATM   12  C   UNK N   1      29.935  14.506   4.532  0.00  0.00     0.243 C 
HETATM   13  H   UNK N   1      29.487  12.607   4.079  0.00  0.00     0.163 HD
HETATM   14  C   UNK N   1      30.219  15.920   4.073  0.00  0.00     0.205 C 
HETATM   15  O   UNK N   1      30.020  14.253   5.722  0.00  0.00    -0.271 OA
HETATM   16  N   UNK N   1      29.062  16.485   3.400  0.00  0.00    -0.344 N 
HETATM   17  C   UNK N   1      27.951  16.914   4.059  0.00  0.00     0.241 C 
HETATM   18  H   UNK N   1      29.083  16.562   2.419  0.00  0.00     0.163 HD
HETATM   19  C   UNK N   1      27.924  16.989   5.572  0.00  0.00     0.176 C 
HETATM   20  O   UNK N   1      27.006  17.336   3.414  0.00  0.00    -0.271 OA
HETATM   21  N   UNK N   1      27.135  16.010   6.296  0.00  0.00    -0.346 N 
HETATM   22  C   UNK N   1      25.804  15.757   6.201  0.00  0.00     0.241 C 
HETATM   23  H   UNK N   1      27.629  15.456   6.944  0.00  0.00     0.163 HD
HETATM   24  C   UNK N   1      24.935  16.377   5.135  0.00  0.00     0.181 C 
HETATM   25  O   UNK N   1      25.300  15.001   7.014  0.00  0.00    -0.271 OA
HETATM   26  N   UNK N   1      24.749  15.649   3.905  0.00  0.00    -0.346 N 
HETATM   27  C   UNK N   1      24.630  14.313   3.715  0.00  0.00     0.241 C 
HETATM   28  H   UNK N   1      24.703  16.199   3.090  0.00  0.00     0.163 HD
HETATM   29  C   UNK N   1      24.653  13.286   4.855  0.00  0.00     0.180 C 
HETATM   30  O   UNK N   1      24.619  13.916   2.560  0.00  0.00    -0.271 OA
HETATM   31  N   UNK N   1      24.971  11.969   4.344  0.00  0.00    -0.346 N 
HETATM   32  C   UNK N   1      24.134  11.309   3.499  0.00  0.00     0.242 C 
HETATM   33  H   UNK N   1      25.815  11.539   4.615  0.00  0.00     0.163 HD
HETATM   34  O   UNK N   1      23.085  11.826   3.145  0.00  0.00    -0.271 OA
HETATM   35  C   UNK N   1      24.523   9.990   2.921  0.00  0.00     0.186 C 
HETATM   36  C   UNK N   1      25.810   9.726   2.167  0.00  0.00     0.120 C 
HETATM   37  S   UNK N   1      26.301  11.104   1.113  0.00  0.00    -0.095 SA
HETATM   38  S   UNK N   1      27.494  11.676   2.748  0.00  0.00    -0.095 SA
HETATM   39  C   UNK N   1      27.813  13.333   2.085  0.00  0.00     0.120 C 
BRANCH  14  40
HETATM   40  C   UNK N   1      31.493  15.985   3.208  0.00  0.00     0.146 C 
HETATM   41  C   UNK N   1      32.755  15.873   4.038  0.00  0.00     0.042 C 
BRANCH  40  42
HETATM   42  O   UNK N   1      31.568  17.141   2.437  0.00  0.00    -0.393 OA
HETATM   43  H   UNK N   1      31.430  18.074   2.661  0.00  0.00     0.210 HD
ENDBRANCH  40  42
ENDBRANCH  14  40
BRANCH  19  44
HETATM   44  C   UNK N   1      27.740  18.388   6.132  0.00  0.00     0.035 C 
BRANCH  44  45
HETATM   45  C   UNK N   1      28.455  18.493   7.465  0.00  0.00     0.004 C 
BRANCH  45  46
HETATM   46  C   UNK N   1      29.773  17.741   7.427  0.00  0.00     0.019 C 
BRANCH  46  47
HETATM   47  C   UNK N   1      30.249  17.421   8.834  0.00  0.00     0.111 C 
BRANCH  47  48
HETATM   48  N   UNK N   1      29.949  18.512   9.746  0.00  0.00    -0.430 N 
HETATM   49  H   UNK N   1      30.413  19.361  10.069  0.00  0.00     0.149 HD
HETATM   50  H   UNK N   1      29.031  18.399  10.176  0.00  0.00     0.149 HD
ENDBRANCH  47  48
ENDBRANCH  46  47
ENDBRANCH  45  46
ENDBRANCH  44  45
ENDBRANCH  19  44
BRANCH  24  51
HETATM   51  C   UNK N   1      23.716  17.181   5.534  0.00  0.00     0.075 C 
BRANCH  51  52
HETATM   52  C   UNK N   1      23.603  18.313   4.589  0.00  0.00    -0.028 A 
HETATM   53  C   UNK N   1      24.581  19.256   4.293  0.00  0.00     0.096 A 
HETATM   54  N   UNK N   1      24.069  20.177   3.434  0.00  0.00    -0.365 N 
HETATM   55  C   UNK N   1      22.799  19.804   3.211  0.00  0.00     0.042 A 
HETATM   56  H   UNK N   1      24.534  20.958   3.054  0.00  0.00     0.165 HD
HETATM   57  C   UNK N   1      22.484  18.667   3.894  0.00  0.00    -0.002 A 
HETATM   58  C   UNK N   1      21.859  20.454   2.412  0.00  0.00     0.030 A 
HETATM   59  C   UNK N   1      21.226  18.083   3.839  0.00  0.00     0.014 A 
HETATM   60  C   UNK N   1      20.256  18.708   3.036  0.00  0.00     0.001 A 
HETATM   61  C   UNK N   1      20.571  19.892   2.330  0.00  0.00     0.002 A 
ENDBRANCH  51  52
ENDBRANCH  24  51
BRANCH  29  62
HETATM   62  C   UNK N   1      23.422  13.095   5.765  0.00  0.00     0.073 C 
BRANCH  62  63
HETATM   63  C   UNK N   1      22.263  14.026   5.799  0.00  0.00    -0.056 A 
HETATM   64  C   UNK N   1      21.491  14.220   4.648  0.00  0.00     0.007 A 
HETATM   65  C   UNK N   1      20.292  14.939   4.725  0.00  0.00     0.001 A 
HETATM   66  C   UNK N   1      19.856  15.445   5.954  0.00  0.00     0.000 A 
HETATM   67  C   UNK N   1      20.616  15.231   7.107  0.00  0.00     0.001 A 
HETATM   68  C   UNK N   1      21.806  14.505   7.031  0.00  0.00     0.007 A 
ENDBRANCH  62  63
ENDBRANCH  29  62
BRANCH  35  69
HETATM   69  N   UNK N   1      23.763   8.803   3.197  0.00  0.00    -0.345 N 
HETATM   70  C   UNK N   1      23.720   8.177   4.394  0.00  0.00     0.240 C 
HETATM   71  O   UNK N   1      24.567   8.381   5.250  0.00  0.00    -0.271 OA
HETATM   72  H   UNK N   1      23.235   8.418   2.460  0.00  0.00     0.163 HD
BRANCH  70  73
HETATM   73  C   UNK N   1      22.498   7.382   4.716  0.00  0.00     0.171 C 
BRANCH  73  74
HETATM   74  C   UNK N   1      21.573   8.221   5.621  0.00  0.00     0.072 C 
BRANCH  74  75
HETATM   75  C   UNK N   1      20.703   9.237   4.921  0.00  0.00    -0.056 A 
HETATM   76  C   UNK N   1      20.210   8.996   3.630  0.00  0.00     0.007 A 
HETATM   77  C   UNK N   1      19.400   9.950   2.999  0.00  0.00     0.001 A 
HETATM   78  C   UNK N   1      19.076  11.141   3.655  0.00  0.00     0.000 A 
HETATM   79  C   UNK N   1      19.568  11.386   4.940  0.00  0.00     0.001 A 
HETATM   80  C   UNK N   1      20.380  10.436   5.571  0.00  0.00     0.007 A 
ENDBRANCH  74  75
ENDBRANCH  73  74
BRANCH  73  81
HETATM   81  N   UNK N   1      22.856   6.163   5.423  0.00  0.00    -0.418 N 
HETATM   82  H   UNK N   1      22.273   5.794   6.175  0.00  0.00     0.150 HD
HETATM   83  H   UNK N   1      23.706   5.665   5.160  0.00  0.00     0.150 HD
ENDBRANCH  73  81
ENDBRANCH  70  73
ENDBRANCH  35  69
ENDBRANCH   7  10
ENDBRANCH   5   6
BRANCH   5  84
HETATM   84  C   UNK N   1      29.803   9.872  -0.146  0.00  0.00     0.191 C 
BRANCH  84  85
HETATM   85  O   UNK N   1      30.732   9.367   0.765  0.00  0.00    -0.399 OA
HETATM   86  H   UNK N   1      31.236   8.760   1.330  0.00  0.00     0.209 HD
ENDBRANCH  84  85
ENDBRANCH   5  84
ENDBRANCH   1   5
TORSDOF 21
ENDMDL
MODEL 7
REMARK VINA RESULT:      -7.0      1.353      2.021
REMARK  21 active torsions:
REMARK  status: ('A' for Active; 'I' for Inactive)
REMARK    1  A    between atoms: C_41  and  C_2 
REMARK    2  A    between atoms: C_12  and  C_24 
REMARK    3  A    between atoms: C_13  and  C_15 
REMARK    4  A    between atoms: C_14  and  N_17 
REMARK       I    between atoms: N_21  and  C_15 
REMARK    5  A    between atoms: C_16  and  C_24 
REMARK       I    between atoms: C_19  and  N_17 
REMARK    6  A    between atoms: C_18  and  C_37 
REMARK    7  A    between atoms: C_30  and  C_19 
REMARK    8  A    between atoms: C_26  and  N_21 
REMARK    9  A    between atoms: C_23  and  C_53 
REMARK   10  A    between atoms: C_43  and  C_26 
REMARK   11  A    between atoms: C_26  and  C_50 
REMARK   12  A    between atoms: C_30  and  C_42 
REMARK   13  A    between atoms: N_44  and  C_30 
REMARK   14  A    between atoms: C_45  and  C_37 
REMARK   15  A    between atoms: C_41  and  O_48 
REMARK   16  A    between atoms: C_46  and  C_42 
REMARK   17  A    between atoms: N_47  and  C_55 
REMARK   18  A    between atoms: O_51  and  C_50 
REMARK   19  A    between atoms: C_62  and  C_53 
REMARK   20  A    between atoms: C_55  and  C_63 
REMARK   21  A    between atoms: C_63  and  C_62 
ROOT
HETATM    1  C   UNK N   1      28.822  18.006   7.005  0.00  0.00     0.139 C 
HETATM    2  O   UNK N   1      27.637  17.405   7.429  0.00  0.00    -0.394 OA
HETATM    3  C   UNK N   1      29.157  17.582   5.588  0.00  0.00     0.041 C 
HETATM    4  H   UNK N   1      26.897  16.863   7.746  0.00  0.00     0.210 HD
ENDROOT
BRANCH   1   5
HETATM    5  C   UNK N   1      29.989  17.754   7.973  0.00  0.00     0.136 C 
BRANCH   5   6
HETATM    6  N   UNK N   1      31.004  16.789   7.566  0.00  0.00    -0.350 N 
HETATM    7  C   UNK N   1      32.344  17.009   7.477  0.00  0.00     0.241 C 
HETATM    8  O   UNK N   1      32.828  18.067   7.849  0.00  0.00    -0.271 OA
HETATM    9  H   UNK N   1      30.687  15.886   7.332  0.00  0.00     0.163 HD
BRANCH   7  10
HETATM   10  C   UNK N   1      33.221  15.961   6.816  0.00  0.00     0.186 C 
HETATM   11  N   UNK N   1      32.574  14.662   6.819  0.00  0.00    -0.345 N 
HETATM   12  C   UNK N   1      32.389  13.844   5.751  0.00  0.00     0.243 C 
HETATM   13  H   UNK N   1      32.234  14.341   7.685  0.00  0.00     0.163 HD
HETATM   14  C   UNK N   1      32.747  14.232   4.333  0.00  0.00     0.205 C 
HETATM   15  O   UNK N   1      31.927  12.732   5.950  0.00  0.00    -0.271 OA
HETATM   16  N   UNK N   1      34.158  14.566   4.231  0.00  0.00    -0.344 N 
HETATM   17  C   UNK N   1      35.147  13.631   4.234  0.00  0.00     0.241 C 
HETATM   18  H   UNK N   1      34.410  15.514   4.156  0.00  0.00     0.163 HD
HETATM   19  C   UNK N   1      34.822  12.153   4.166  0.00  0.00     0.176 C 
HETATM   20  O   UNK N   1      36.309  13.999   4.187  0.00  0.00    -0.271 OA
HETATM   21  N   UNK N   1      35.007  11.351   5.362  0.00  0.00    -0.346 N 
HETATM   22  C   UNK N   1      36.142  11.155   6.082  0.00  0.00     0.241 C 
HETATM   23  H   UNK N   1      34.205  10.887   5.694  0.00  0.00     0.163 HD
HETATM   24  C   UNK N   1      37.410  11.931   5.827  0.00  0.00     0.181 C 
HETATM   25  O   UNK N   1      36.126  10.316   6.966  0.00  0.00    -0.271 OA
HETATM   26  N   UNK N   1      37.625  13.142   6.577  0.00  0.00    -0.346 N 
HETATM   27  C   UNK N   1      37.307  13.414   7.866  0.00  0.00     0.241 C 
HETATM   28  H   UNK N   1      38.064  13.874   6.087  0.00  0.00     0.163 HD
HETATM   29  C   UNK N   1      36.639  12.403   8.809  0.00  0.00     0.180 C 
HETATM   30  O   UNK N   1      37.464  14.564   8.246  0.00  0.00    -0.271 OA
HETATM   31  N   UNK N   1      36.014  13.086   9.923  0.00  0.00    -0.346 N 
HETATM   32  C   UNK N   1      36.745  13.766  10.846  0.00  0.00     0.242 C 
HETATM   33  H   UNK N   1      35.034  13.057  10.015  0.00  0.00     0.163 HD
HETATM   34  O   UNK N   1      37.962  13.820  10.748  0.00  0.00    -0.271 OA
HETATM   35  C   UNK N   1      36.072  14.531  11.935  0.00  0.00     0.186 C 
HETATM   36  C   UNK N   1      35.005  15.583  11.716  0.00  0.00     0.120 C 
HETATM   37  S   UNK N   1      35.312  16.600  10.259  0.00  0.00    -0.095 SA
HETATM   38  S   UNK N   1      34.033  15.245   9.284  0.00  0.00    -0.095 SA
HETATM   39  C   UNK N   1      34.496  15.819   7.628  0.00  0.00     0.120 C 
BRANCH  14  40
HETATM   40  C   UNK N   1      31.836  15.361   3.813  0.00  0.00     0.146 C 
HETATM   41  C   UNK N   1      30.583  14.828   3.153  0.00  0.00     0.042 C 
BRANCH  40  42
HETATM   42  O   UNK N   1      32.482  16.212   2.920  0.00  0.00    -0.393 OA
HETATM   43  H   UNK N   1      33.381  16.574   2.913  0.00  0.00     0.210 HD
ENDBRANCH  40  42
ENDBRANCH  14  40
BRANCH  19  44
HETATM   44  C   UNK N   1      35.344  11.447   2.927  0.00  0.00     0.035 C 
BRANCH  44  45
HETATM   45  C   UNK N   1      34.411  11.719   1.763  0.00  0.00     0.004 C 
BRANCH  45  46
HETATM   46  C   UNK N   1      35.194  12.175   0.545  0.00  0.00     0.019 C 
BRANCH  46  47
HETATM   47  C   UNK N   1      35.581  13.639   0.673  0.00  0.00     0.111 C 
BRANCH  47  48
HETATM   48  N   UNK N   1      37.025  13.799   0.641  0.00  0.00    -0.430 N 
HETATM   49  H   UNK N   1      37.784  13.589  -0.009  0.00  0.00     0.149 HD
HETATM   50  H   UNK N   1      37.373  14.237   1.494  0.00  0.00     0.149 HD
ENDBRANCH  47  48
ENDBRANCH  46  47
ENDBRANCH  45  46
ENDBRANCH  44  45
ENDBRANCH  19  44
BRANCH  24  51
HETATM   51  C   UNK N   1      38.694  11.191   5.519  0.00  0.00     0.075 C 
BRANCH  51  52
HETATM   52  C   UNK N   1      39.410  11.960   4.478  0.00  0.00    -0.028 A 
HETATM   53  C   UNK N   1      39.097  12.029   3.126  0.00  0.00     0.096 A 
HETATM   54  N   UNK N   1      40.035  12.777   2.486  0.00  0.00    -0.365 N 
HETATM   55  C   UNK N   1      40.908  13.157   3.432  0.00  0.00     0.042 A 
HETATM   56  H   UNK N   1      40.068  12.995   1.526  0.00  0.00     0.165 HD
HETATM   57  C   UNK N   1      40.553  12.682   4.660  0.00  0.00    -0.002 A 
HETATM   58  C   UNK N   1      42.060  13.921   3.256  0.00  0.00     0.030 A 
HETATM   59  C   UNK N   1      41.300  12.927   5.804  0.00  0.00     0.014 A 
HETATM   60  C   UNK N   1      42.465  13.702   5.663  0.00  0.00     0.001 A 
HETATM   61  C   UNK N   1      42.845  14.192   4.392  0.00  0.00     0.002 A 
ENDBRANCH  51  52
ENDBRANCH  24  51
BRANCH  29  62
HETATM   62  C   UNK N   1      37.455  11.251   9.431  0.00  0.00     0.073 C 
BRANCH  62  63
HETATM   63  C   UNK N   1      38.840  10.897   9.016  0.00  0.00    -0.056 A 
HETATM   64  C   UNK N   1      39.856  11.856   9.087  0.00  0.00     0.007 A 
HETATM   65  C   UNK N   1      41.188  11.477   8.886  0.00  0.00     0.001 A 
HETATM   66  C   UNK N   1      41.506  10.138   8.633  0.00  0.00     0.000 A 
HETATM   67  C   UNK N   1      40.493   9.177   8.586  0.00  0.00     0.001 A 
HETATM   68  C   UNK N   1      39.165   9.554   8.798  0.00  0.00     0.007 A 
ENDBRANCH  62  63
ENDBRANCH  29  62
BRANCH  35  69
HETATM   69  N   UNK N   1      36.269  14.188  13.316  0.00  0.00    -0.345 N 
HETATM   70  C   UNK N   1      35.605  13.208  13.969  0.00  0.00     0.240 C 
HETATM   71  O   UNK N   1      34.562  12.745  13.533  0.00  0.00    -0.271 OA
HETATM   72  H   UNK N   1      36.936  14.705  13.824  0.00  0.00     0.163 HD
BRANCH  70  73
HETATM   73  C   UNK N   1      36.286  12.568  15.133  0.00  0.00     0.171 C 
BRANCH  73  74
HETATM   74  C   UNK N   1      35.997  11.053  15.119  0.00  0.00     0.072 C 
BRANCH  74  75
HETATM   75  C   UNK N   1      37.007  10.193  14.398  0.00  0.00    -0.056 A 
HETATM   76  C   UNK N   1      38.144   9.708  15.059  0.00  0.00     0.007 A 
HETATM   77  C   UNK N   1      39.067   8.907  14.374  0.00  0.00     0.001 A 
HETATM   78  C   UNK N   1      38.855   8.583  13.030  0.00  0.00     0.000 A 
HETATM   79  C   UNK N   1      37.724   9.067  12.366  0.00  0.00     0.001 A 
HETATM   80  C   UNK N   1      36.803   9.871  13.049  0.00  0.00     0.007 A 
ENDBRANCH  74  75
ENDBRANCH  73  74
BRANCH  73  81
HETATM   81  N   UNK N   1      35.787  13.122  16.382  0.00  0.00    -0.418 N 
HETATM   82  H   UNK N   1      35.487  14.095  16.449  0.00  0.00     0.150 HD
HETATM   83  H   UNK N   1      35.736  12.525  17.208  0.00  0.00     0.150 HD
ENDBRANCH  73  81
ENDBRANCH  70  73
ENDBRANCH  35  69
ENDBRANCH   7  10
ENDBRANCH   5   6
BRANCH   5  84
HETATM   84  C   UNK N   1      29.580  17.599   9.440  0.00  0.00     0.191 C 
BRANCH  84  85
HETATM   85  O   UNK N   1      28.539  18.466   9.773  0.00  0.00    -0.399 OA
HETATM   86  H   UNK N   1      28.044  19.225  10.121  0.00  0.00     0.209 HD
ENDBRANCH  84  85
ENDBRANCH   5  84
ENDBRANCH   1   5
TORSDOF 21
ENDMDL
MODEL 8
REMARK VINA RESULT:      -7.0      7.997     14.076
REMARK  21 active torsions:
REMARK  status: ('A' for Active; 'I' for Inactive)
REMARK    1  A    between atoms: C_41  and  C_2 
REMARK    2  A    between atoms: C_12  and  C_24 
REMARK    3  A    between atoms: C_13  and  C_15 
REMARK    4  A    between atoms: C_14  and  N_17 
REMARK       I    between atoms: N_21  and  C_15 
REMARK    5  A    between atoms: C_16  and  C_24 
REMARK       I    between atoms: C_19  and  N_17 
REMARK    6  A    between atoms: C_18  and  C_37 
REMARK    7  A    between atoms: C_30  and  C_19 
REMARK    8  A    between atoms: C_26  and  N_21 
REMARK    9  A    between atoms: C_23  and  C_53 
REMARK   10  A    between atoms: C_43  and  C_26 
REMARK   11  A    between atoms: C_26  and  C_50 
REMARK   12  A    between atoms: C_30  and  C_42 
REMARK   13  A    between atoms: N_44  and  C_30 
REMARK   14  A    between atoms: C_45  and  C_37 
REMARK   15  A    between atoms: C_41  and  O_48 
REMARK   16  A    between atoms: C_46  and  C_42 
REMARK   17  A    between atoms: N_47  and  C_55 
REMARK   18  A    between atoms: O_51  and  C_50 
REMARK   19  A    between atoms: C_62  and  C_53 
REMARK   20  A    between atoms: C_55  and  C_63 
REMARK   21  A    between atoms: C_63  and  C_62 
ROOT
HETATM    1  C   UNK N   1      25.212   7.225  -0.848  0.00  0.00     0.139 C 
HETATM    2  O   UNK N   1      26.158   8.083  -1.409  0.00  0.00    -0.394 OA
HETATM    3  C   UNK N   1      25.320   5.841  -1.460  0.00  0.00     0.041 C 
HETATM    4  H   UNK N   1      26.721   8.689  -1.916  0.00  0.00     0.210 HD
ENDROOT
BRANCH   1   5
HETATM    5  C   UNK N   1      23.783   7.784  -0.937  0.00  0.00     0.136 C 
BRANCH   5   6
HETATM    6  N   UNK N   1      23.394   8.792   0.042  0.00  0.00    -0.350 N 
HETATM    7  C   UNK N   1      23.320  10.136  -0.163  0.00  0.00     0.241 C 
HETATM    8  O   UNK N   1      23.491  10.608  -1.276  0.00  0.00    -0.271 OA
HETATM    9  H   UNK N   1      23.160   8.468   0.942  0.00  0.00     0.163 HD
BRANCH   7  10
HETATM   10  C   UNK N   1      23.121  11.053   1.031  0.00  0.00     0.186 C 
HETATM   11  N   UNK N   1      23.273  12.445   0.649  0.00  0.00    -0.345 N 
HETATM   12  C   UNK N   1      22.403  13.457   0.902  0.00  0.00     0.243 C 
HETATM   13  H   UNK N   1      24.092  12.681   0.157  0.00  0.00     0.163 HD
HETATM   14  C   UNK N   1      21.048  13.249   1.545  0.00  0.00     0.205 C 
HETATM   15  O   UNK N   1      22.739  14.593   0.611  0.00  0.00    -0.271 OA
HETATM   16  N   UNK N   1      21.188  12.623   2.849  0.00  0.00    -0.344 N 
HETATM   17  C   UNK N   1      21.620  13.291   3.955  0.00  0.00     0.241 C 
HETATM   18  H   UNK N   1      20.960  11.670   2.938  0.00  0.00     0.163 HD
HETATM   19  C   UNK N   1      21.816  14.793   3.929  0.00  0.00     0.176 C 
HETATM   20  O   UNK N   1      21.750  12.680   5.002  0.00  0.00    -0.271 OA
HETATM   21  N   UNK N   1      23.172  15.311   3.934  0.00  0.00    -0.346 N 
HETATM   22  C   UNK N   1      24.150  15.114   4.854  0.00  0.00     0.241 C 
HETATM   23  H   UNK N   1      23.414  15.882   3.169  0.00  0.00     0.163 HD
HETATM   24  C   UNK N   1      24.014  14.124   5.984  0.00  0.00     0.181 C 
HETATM   25  O   UNK N   1      25.174  15.768   4.757  0.00  0.00    -0.271 OA
HETATM   26  N   UNK N   1      24.502  12.785   5.774  0.00  0.00    -0.346 N 
HETATM   27  C   UNK N   1      25.593  12.374   5.084  0.00  0.00     0.241 C 
HETATM   28  H   UNK N   1      23.968  12.068   6.188  0.00  0.00     0.163 HD
HETATM   29  C   UNK N   1      26.568  13.332   4.384  0.00  0.00     0.180 C 
HETATM   30  O   UNK N   1      25.730  11.171   4.926  0.00  0.00    -0.271 OA
HETATM   31  N   UNK N   1      27.333  12.628   3.376  0.00  0.00    -0.346 N 
HETATM   32  C   UNK N   1      28.218  11.649   3.704  0.00  0.00     0.242 C 
HETATM   33  H   UNK N   1      27.210  12.864   2.428  0.00  0.00     0.163 HD
HETATM   34  O   UNK N   1      28.382  11.335   4.873  0.00  0.00    -0.271 OA
HETATM   35  C   UNK N   1      28.931  10.882   2.642  0.00  0.00     0.186 C 
HETATM   36  C   UNK N   1      28.251  10.157   1.500  0.00  0.00     0.120 C 
HETATM   37  S   UNK N   1      26.707   9.365   1.992  0.00  0.00    -0.095 SA
HETATM   38  S   UNK N   1      25.804  11.125   1.279  0.00  0.00    -0.095 SA
HETATM   39  C   UNK N   1      24.205  10.756   2.051  0.00  0.00     0.120 C 
BRANCH  14  40
HETATM   40  C   UNK N   1      20.099  12.466   0.616  0.00  0.00     0.146 C 
HETATM   41  C   UNK N   1      18.798  13.201   0.376  0.00  0.00     0.042 C 
BRANCH  40  42
HETATM   42  O   UNK N   1      19.809  11.188   1.087  0.00  0.00    -0.393 OA
HETATM   43  H   UNK N   1      20.272  10.343   0.980  0.00  0.00     0.210 HD
ENDBRANCH  40  42
ENDBRANCH  14  40
BRANCH  19  44
HETATM   44  C   UNK N   1      20.914  15.564   4.876  0.00  0.00     0.035 C 
BRANCH  44  45
HETATM   45  C   UNK N   1      19.927  16.387   4.071  0.00  0.00     0.004 C 
BRANCH  45  46
HETATM   46  C   UNK N   1      20.390  16.522   2.632  0.00  0.00     0.019 C 
BRANCH  46  47
HETATM   47  C   UNK N   1      20.232  17.955   2.150  0.00  0.00     0.111 C 
BRANCH  47  48
HETATM   48  N   UNK N   1      18.859  18.405   2.302  0.00  0.00    -0.430 N 
HETATM   49  H   UNK N   1      17.953  17.980   2.503  0.00  0.00     0.149 HD
HETATM   50  H   UNK N   1      18.779  19.414   2.175  0.00  0.00     0.149 HD
ENDBRANCH  47  48
ENDBRANCH  46  47
ENDBRANCH  45  46
ENDBRANCH  44  45
ENDBRANCH  19  44
BRANCH  24  51
HETATM   51  C   UNK N   1      24.171  14.592   7.415  0.00  0.00     0.075 C 
BRANCH  51  52
HETATM   52  C   UNK N   1      23.126  13.922   8.219  0.00  0.00    -0.028 A 
HETATM   53  C   UNK N   1      21.753  13.963   8.006  0.00  0.00     0.096 A 
HETATM   54  N   UNK N   1      21.124  13.283   9.001  0.00  0.00    -0.365 N 
HETATM   55  C   UNK N   1      22.097  12.835   9.810  0.00  0.00     0.042 A 
HETATM   56  H   UNK N   1      20.155  13.147   9.107  0.00  0.00     0.165 HD
HETATM   57  C   UNK N   1      23.331  13.201   9.358  0.00  0.00    -0.002 A 
HETATM   58  C   UNK N   1      21.944  12.102  10.985  0.00  0.00     0.030 A 
HETATM   59  C   UNK N   1      24.503  12.869  10.025  0.00  0.00     0.014 A 
HETATM   60  C   UNK N   1      24.384  12.122  11.210  0.00  0.00     0.001 A 
HETATM   61  C   UNK N   1      23.108  11.745  11.690  0.00  0.00     0.002 A 
ENDBRANCH  51  52
ENDBRANCH  24  51
BRANCH  29  62
HETATM   62  C   UNK N   1      27.597  14.140   5.201  0.00  0.00     0.073 C 
BRANCH  62  63
HETATM   63  C   UNK N   1      28.324  15.327   4.676  0.00  0.00    -0.056 A 
HETATM   64  C   UNK N   1      28.630  16.392   5.530  0.00  0.00     0.007 A 
HETATM   65  C   UNK N   1      29.479  17.416   5.093  0.00  0.00     0.001 A 
HETATM   66  C   UNK N   1      30.035  17.366   3.811  0.00  0.00     0.000 A 
HETATM   67  C   UNK N   1      29.747  16.290   2.966  0.00  0.00     0.001 A 
HETATM   68  C   UNK N   1      28.910  15.263   3.407  0.00  0.00     0.007 A 
ENDBRANCH  62  63
ENDBRANCH  29  62
BRANCH  35  69
HETATM   69  N   UNK N   1      30.362  10.926   2.526  0.00  0.00    -0.345 N 
HETATM   70  C   UNK N   1      31.065  11.981   2.057  0.00  0.00     0.240 C 
HETATM   71  O   UNK N   1      30.532  12.860   1.399  0.00  0.00    -0.271 OA
HETATM   72  H   UNK N   1      30.867  10.129   2.810  0.00  0.00     0.163 HD
BRANCH  70  73
HETATM   73  C   UNK N   1      32.470  12.145   2.538  0.00  0.00     0.171 C 
BRANCH  73  74
HETATM   74  C   UNK N   1      32.816  13.647   2.586  0.00  0.00     0.072 C 
BRANCH  74  75
HETATM   75  C   UNK N   1      32.657  14.321   3.927  0.00  0.00    -0.056 A 
HETATM   76  C   UNK N   1      31.883  13.737   4.941  0.00  0.00     0.007 A 
HETATM   77  C   UNK N   1      31.752  14.377   6.180  0.00  0.00     0.001 A 
HETATM   78  C   UNK N   1      32.396  15.595   6.415  0.00  0.00     0.000 A 
HETATM   79  C   UNK N   1      33.166  16.182   5.406  0.00  0.00     0.001 A 
HETATM   80  C   UNK N   1      33.295  15.546   4.165  0.00  0.00     0.007 A 
ENDBRANCH  74  75
ENDBRANCH  73  74
BRANCH  73  81
HETATM   81  N   UNK N   1      33.397  11.485   1.633  0.00  0.00    -0.418 N 
HETATM   82  H   UNK N   1      33.818  10.585   1.867  0.00  0.00     0.150 HD
HETATM   83  H   UNK N   1      33.630  11.930   0.745  0.00  0.00     0.150 HD
ENDBRANCH  73  81
ENDBRANCH  70  73
ENDBRANCH  35  69
ENDBRANCH   7  10
ENDBRANCH   5   6
BRANCH   5  84
HETATM   84  C   UNK N   1      22.697   6.730  -1.164  0.00  0.00     0.191 C 
BRANCH  84  85
HETATM   85  O   UNK N   1      21.829   6.650  -0.075  0.00  0.00    -0.399 OA
HETATM   86  H   UNK N   1      21.023   6.649   0.467  0.00  0.00     0.209 HD
ENDBRANCH  84  85
ENDBRANCH   5  84
ENDBRANCH   1   5
TORSDOF 21
ENDMDL
MODEL 9
REMARK VINA RESULT:      -7.0      6.841     10.371
REMARK  21 active torsions:
REMARK  status: ('A' for Active; 'I' for Inactive)
REMARK    1  A    between atoms: C_41  and  C_2 
REMARK    2  A    between atoms: C_12  and  C_24 
REMARK    3  A    between atoms: C_13  and  C_15 
REMARK    4  A    between atoms: C_14  and  N_17 
REMARK       I    between atoms: N_21  and  C_15 
REMARK    5  A    between atoms: C_16  and  C_24 
REMARK       I    between atoms: C_19  and  N_17 
REMARK    6  A    between atoms: C_18  and  C_37 
REMARK    7  A    between atoms: C_30  and  C_19 
REMARK    8  A    between atoms: C_26  and  N_21 
REMARK    9  A    between atoms: C_23  and  C_53 
REMARK   10  A    between atoms: C_43  and  C_26 
REMARK   11  A    between atoms: C_26  and  C_50 
REMARK   12  A    between atoms: C_30  and  C_42 
REMARK   13  A    between atoms: N_44  and  C_30 
REMARK   14  A    between atoms: C_45  and  C_37 
REMARK   15  A    between atoms: C_41  and  O_48 
REMARK   16  A    between atoms: C_46  and  C_42 
REMARK   17  A    between atoms: N_47  and  C_55 
REMARK   18  A    between atoms: O_51  and  C_50 
REMARK   19  A    between atoms: C_62  and  C_53 
REMARK   20  A    between atoms: C_55  and  C_63 
REMARK   21  A    between atoms: C_63  and  C_62 
ROOT
HETATM    1  C   UNK N   1      20.710  16.720   5.762  0.00  0.00     0.139 C 
HETATM    2  O   UNK N   1      21.145  17.852   5.071  0.00  0.00    -0.394 OA
HETATM    3  C   UNK N   1      21.619  16.437   6.943  0.00  0.00     0.041 C 
HETATM    4  H   UNK N   1      21.551  18.547   4.529  0.00  0.00     0.210 HD
ENDROOT
BRANCH   1   5
HETATM    5  C   UNK N   1      20.556  15.494   4.848  0.00  0.00     0.136 C 
BRANCH   5   6
HETATM    6  N   UNK N   1      21.764  14.747   4.516  0.00  0.00    -0.350 N 
HETATM    7  C   UNK N   1      22.713  15.103   3.608  0.00  0.00     0.241 C 
HETATM    8  O   UNK N   1      22.665  16.185   3.045  0.00  0.00    -0.271 OA
HETATM    9  H   UNK N   1      21.907  13.900   4.998  0.00  0.00     0.163 HD
BRANCH   7  10
HETATM   10  C   UNK N   1      23.782  14.093   3.226  0.00  0.00     0.186 C 
HETATM   11  N   UNK N   1      23.931  13.078   4.253  0.00  0.00    -0.345 N 
HETATM   12  C   UNK N   1      23.908  11.732   4.074  0.00  0.00     0.243 C 
HETATM   13  H   UNK N   1      24.062  13.398   5.174  0.00  0.00     0.163 HD
HETATM   14  C   UNK N   1      23.604  11.074   2.744  0.00  0.00     0.205 C 
HETATM   15  O   UNK N   1      24.164  11.018   5.030  0.00  0.00    -0.271 OA
HETATM   16  N   UNK N   1      24.545  11.510   1.727  0.00  0.00    -0.344 N 
HETATM   17  C   UNK N   1      25.831  11.066   1.661  0.00  0.00     0.241 C 
HETATM   18  H   UNK N   1      24.238  12.157   1.052  0.00  0.00     0.163 HD
HETATM   19  C   UNK N   1      26.313   9.942   2.555  0.00  0.00     0.176 C 
HETATM   20  O   UNK N   1      26.568  11.515   0.800  0.00  0.00    -0.271 OA
HETATM   21  N   UNK N   1      27.209  10.268   3.649  0.00  0.00    -0.346 N 
HETATM   22  C   UNK N   1      28.428  10.862   3.596  0.00  0.00     0.241 C 
HETATM   23  H   UNK N   1      26.891  10.025   4.549  0.00  0.00     0.163 HD
HETATM   24  C   UNK N   1      28.983  11.465   2.329  0.00  0.00     0.181 C 
HETATM   25  O   UNK N   1      29.095  10.904   4.616  0.00  0.00    -0.271 OA
HETATM   26  N   UNK N   1      28.740  12.863   2.082  0.00  0.00    -0.346 N 
HETATM   27  C   UNK N   1      28.699  13.891   2.965  0.00  0.00     0.241 C 
HETATM   28  H   UNK N   1      28.581  13.107   1.142  0.00  0.00     0.163 HD
HETATM   29  C   UNK N   1      28.943  13.727   4.472  0.00  0.00     0.180 C 
HETATM   30  O   UNK N   1      28.337  14.976   2.538  0.00  0.00    -0.271 OA
HETATM   31  N   UNK N   1      28.392  14.853   5.199  0.00  0.00    -0.346 N 
HETATM   32  C   UNK N   1      28.889  16.110   5.052  0.00  0.00     0.242 C 
HETATM   33  H   UNK N   1      27.639  14.704   5.815  0.00  0.00     0.163 HD
HETATM   34  O   UNK N   1      29.819  16.319   4.288  0.00  0.00    -0.271 OA
HETATM   35  C   UNK N   1      28.251  17.265   5.748  0.00  0.00     0.186 C 
HETATM   36  C   UNK N   1      26.782  17.622   5.653  0.00  0.00     0.120 C 
HETATM   37  S   UNK N   1      26.100  17.358   4.004  0.00  0.00    -0.095 SA
HETATM   38  S   UNK N   1      25.494  15.493   4.767  0.00  0.00    -0.095 SA
HETATM   39  C   UNK N   1      25.113  14.817   3.128  0.00  0.00     0.120 C 
BRANCH  14  40
HETATM   40  C   UNK N   1      22.138  11.304   2.327  0.00  0.00     0.146 C 
HETATM   41  C   UNK N   1      22.024  12.163   1.086  0.00  0.00     0.042 C 
BRANCH  40  42
HETATM   42  O   UNK N   1      21.368  11.875   3.336  0.00  0.00    -0.393 OA
HETATM   43  H   UNK N   1      21.237  11.626   4.264  0.00  0.00     0.210 HD
ENDBRANCH  40  42
ENDBRANCH  14  40
BRANCH  19  44
HETATM   44  C   UNK N   1      26.756   8.692   1.815  0.00  0.00     0.035 C 
BRANCH  44  45
HETATM   45  C   UNK N   1      25.581   8.120   1.047  0.00  0.00     0.004 C 
BRANCH  45  46
HETATM   46  C   UNK N   1      25.877   8.092  -0.441  0.00  0.00     0.019 C 
BRANCH  46  47
HETATM   47  C   UNK N   1      24.597   8.240  -1.246  0.00  0.00     0.111 C 
BRANCH  47  48
HETATM   48  N   UNK N   1      23.660   9.124  -0.574  0.00  0.00    -0.430 N 
HETATM   49  H   UNK N   1      23.151   9.136   0.311  0.00  0.00     0.149 HD
HETATM   50  H   UNK N   1      23.458   9.952  -1.133  0.00  0.00     0.149 HD
ENDBRANCH  47  48
ENDBRANCH  46  47
ENDBRANCH  45  46
ENDBRANCH  44  45
ENDBRANCH  19  44
BRANCH  24  51
HETATM   51  C   UNK N   1      30.320  10.996   1.797  0.00  0.00     0.075 C 
BRANCH  51  52
HETATM   52  C   UNK N   1      30.270  11.095   0.322  0.00  0.00    -0.028 A 
HETATM   53  C   UNK N   1      30.421  12.245  -0.444  0.00  0.00     0.096 A 
HETATM   54  N   UNK N   1      30.236  11.937  -1.755  0.00  0.00    -0.365 N 
HETATM   55  C   UNK N   1      29.975  10.621  -1.789  0.00  0.00     0.042 A 
HETATM   56  H   UNK N   1      30.284  12.553  -2.522  0.00  0.00     0.165 HD
HETATM   57  C   UNK N   1      29.996  10.075  -0.540  0.00  0.00    -0.002 A 
HETATM   58  C   UNK N   1      29.693   9.848  -2.914  0.00  0.00     0.030 A 
HETATM   59  C   UNK N   1      29.745   8.729  -0.305  0.00  0.00     0.014 A 
HETATM   60  C   UNK N   1      29.464   7.919  -1.420  0.00  0.00     0.001 A 
HETATM   61  C   UNK N   1      29.434   8.479  -2.718  0.00  0.00     0.002 A 
ENDBRANCH  51  52
ENDBRANCH  24  51
BRANCH  29  62
HETATM   62  C   UNK N   1      30.372  13.535   5.020  0.00  0.00     0.073 C 
BRANCH  62  63
HETATM   63  C   UNK N   1      31.556  13.244   4.167  0.00  0.00    -0.056 A 
HETATM   64  C   UNK N   1      31.954  14.162   3.190  0.00  0.00     0.007 A 
HETATM   65  C   UNK N   1      33.172  13.987   2.522  0.00  0.00     0.001 A 
HETATM   66  C   UNK N   1      33.998  12.906   2.845  0.00  0.00     0.000 A 
HETATM   67  C   UNK N   1      33.611  12.002   3.838  0.00  0.00     0.001 A 
HETATM   68  C   UNK N   1      32.401  12.184   4.511  0.00  0.00     0.007 A 
ENDBRANCH  62  63
ENDBRANCH  29  62
BRANCH  35  69
HETATM   69  N   UNK N   1      28.970  18.038   6.721  0.00  0.00    -0.345 N 
HETATM   70  C   UNK N   1      28.920  17.834   8.057  0.00  0.00     0.240 C 
HETATM   71  O   UNK N   1      28.019  17.186   8.569  0.00  0.00    -0.271 OA
HETATM   72  H   UNK N   1      29.542  18.769   6.392  0.00  0.00     0.163 HD
BRANCH  70  73
HETATM   73  C   UNK N   1      30.104  18.249   8.866  0.00  0.00     0.171 C 
BRANCH  73  74
HETATM   74  C   UNK N   1      31.057  17.047   9.024  0.00  0.00     0.072 C 
BRANCH  74  75
HETATM   75  C   UNK N   1      32.151  16.929   7.991  0.00  0.00    -0.056 A 
HETATM   76  C   UNK N   1      33.109  17.941   7.835  0.00  0.00     0.007 A 
HETATM   77  C   UNK N   1      34.120  17.810   6.874  0.00  0.00     0.001 A 
HETATM   78  C   UNK N   1      34.181  16.667   6.070  0.00  0.00     0.000 A 
HETATM   79  C   UNK N   1      33.226  15.657   6.220  0.00  0.00     0.001 A 
HETATM   80  C   UNK N   1      32.213  15.788   7.178  0.00  0.00     0.007 A 
ENDBRANCH  74  75
ENDBRANCH  73  74
BRANCH  73  81
HETATM   81  N   UNK N   1      29.687  18.687  10.189  0.00  0.00    -0.418 N 
HETATM   82  H   UNK N   1      30.265  18.515  11.012  0.00  0.00     0.150 HD
HETATM   83  H   UNK N   1      28.800  19.178  10.295  0.00  0.00     0.150 HD
ENDBRANCH  73  81
ENDBRANCH  70  73
ENDBRANCH  35  69
ENDBRANCH   7  10
ENDBRANCH   5   6
BRANCH   5  84
HETATM   84  C   UNK N   1      19.644  15.711   3.638  0.00  0.00     0.191 C 
BRANCH  84  85
HETATM   85  O   UNK N   1      18.813  16.818   3.818  0.00  0.00    -0.399 OA
HETATM   86  H   UNK N   1      18.282  17.516   4.232  0.00  0.00     0.209 HD
ENDBRANCH  84  85
ENDBRANCH   5  84
ENDBRANCH   1   5
TORSDOF 21
ENDMDL
