MODEL 1
REMARK VINA RESULT:      -5.8      0.000      0.000
REMARK  2 active torsions:
REMARK  status: ('A' for Active; 'I' for Inactive)
REMARK    1  A    between atoms: Fe_7  and  N_12 
REMARK    2  A    between atoms: N_12  and  O_14 
ROOT
HETATM    1  N   UNK N   1      32.706  14.933   6.018  0.00  0.00    -0.180 NA
HETATM    2  C   UNK N   1      33.930  14.937  10.369  0.00  0.00     0.180 C 
HETATM    3  C   UNK N   1      33.169  15.378   6.992  0.00  0.00     0.180 C 
HETATM    4  C   UNK N   1      34.741  18.112   8.454  0.00  0.00     0.180 C 
HETATM    5  N   UNK N   1      33.918  14.274  11.325  0.00  0.00    -0.180 NA
HETATM    6  N   UNK N   1      35.181  19.189   8.392  0.00  0.00    -0.180 NA
HETATM    7 Fe   UNK N   1      34.005  16.201   8.724  0.00  0.00     0.000 Fe
HETATM    8  C   UNK N   1      33.169  14.280   8.651  0.00  0.00     0.180 C 
HETATM    9  N   UNK N   1      32.703  13.209   8.613  0.00  0.00    -0.180 NA
HETATM   10  C   UNK N   1      33.944  17.255   6.915  0.00  0.00     0.180 C 
HETATM   11  N   UNK N   1      33.901  17.826   5.898  0.00  0.00    -0.180 NA
ENDROOT
BRANCH   7  12
HETATM   12  N   UNK N   1      34.862  17.163  10.321  0.00  0.00    -0.191 N 
ATOM     13  HN  UNK N   1      34.186  17.565  10.969  1.00  0.00     0.217 HD
BRANCH  12  14
HETATM   14  O   UNK N   1      36.004  17.346  10.640  0.00  0.00    -0.273 OA
ATOM     15  HO  UNK N   1      36.400  17.805  11.372  1.00  0.00     0.246 HD
ENDBRANCH  12  14
ENDBRANCH   7  12
TORSDOF 2
ENDMDL
MODEL 2
REMARK VINA RESULT:      -5.6      0.123      3.751
REMARK  2 active torsions:
REMARK  status: ('A' for Active; 'I' for Inactive)
REMARK    1  A    between atoms: Fe_7  and  N_12 
REMARK    2  A    between atoms: N_12  and  O_14 
ROOT
HETATM    1  N   UNK N   1      32.731  14.908   6.012  0.00  0.00    -0.180 NA
HETATM    2  C   UNK N   1      34.795  18.140   8.402  0.00  0.00     0.180 C 
HETATM    3  C   UNK N   1      33.204  15.389   6.964  0.00  0.00     0.180 C 
HETATM    4  C   UNK N   1      33.964  14.978  10.330  0.00  0.00     0.180 C 
HETATM    5  N   UNK N   1      35.233  19.214   8.305  0.00  0.00    -0.180 NA
HETATM    6  N   UNK N   1      33.961  14.343  11.307  0.00  0.00    -0.180 NA
HETATM    7 Fe   UNK N   1      34.046  16.226   8.686  0.00  0.00     0.000 Fe
HETATM    8  C   UNK N   1      33.964  17.223   6.844  0.00  0.00     0.180 C 
HETATM    9  N   UNK N   1      33.920  17.781   5.818  0.00  0.00    -0.180 NA
HETATM   10  C   UNK N   1      33.213  14.303   8.682  0.00  0.00     0.180 C 
HETATM   11  N   UNK N   1      32.745  13.235   8.660  0.00  0.00    -0.180 NA
ENDROOT
BRANCH   7  12
HETATM   12  N   UNK N   1      34.827  16.886  10.465  0.00  0.00    -0.191 N 
ATOM     13  HN  UNK N   1      34.219  16.718  11.266  1.00  0.00     0.217 HD
BRANCH  12  14
HETATM   14  O   UNK N   1      35.858  17.429  10.746  0.00  0.00    -0.273 OA
ATOM     15  HO  UNK N   1      36.065  18.155  11.324  1.00  0.00     0.246 HD
ENDBRANCH  12  14
ENDBRANCH   7  12
TORSDOF 2
ENDMDL
MODEL 3
REMARK VINA RESULT:      -5.5      1.637      3.522
REMARK  2 active torsions:
REMARK  status: ('A' for Active; 'I' for Inactive)
REMARK    1  A    between atoms: Fe_7  and  N_12 
REMARK    2  A    between atoms: N_12  and  O_14 
ROOT
HETATM    1  N   UNK N   1      34.453  14.250  10.877  0.00  0.00    -0.180 NA
HETATM    2  C   UNK N   1      32.421  15.332   6.988  0.00  0.00     0.180 C 
HETATM    3  C   UNK N   1      34.187  14.935   9.970  0.00  0.00     0.180 C 
HETATM    4  C   UNK N   1      34.669  18.021   8.445  0.00  0.00     0.180 C 
HETATM    5  N   UNK N   1      31.691  14.909   6.186  0.00  0.00    -0.180 NA
HETATM    6  N   UNK N   1      35.157  19.078   8.414  0.00  0.00    -0.180 NA
HETATM    7 Fe   UNK N   1      33.728  16.184   8.356  0.00  0.00     0.000 Fe
HETATM    8  C   UNK N   1      32.944  14.252   8.576  0.00  0.00     0.180 C 
HETATM    9  N   UNK N   1      32.505  13.176   8.695  0.00  0.00    -0.180 NA
HETATM   10  C   UNK N   1      35.023  16.786   9.889  0.00  0.00     0.180 C 
HETATM   11  N   UNK N   1      35.742  17.102  10.753  0.00  0.00    -0.180 NA
ENDROOT
BRANCH   7  12
HETATM   12  N   UNK N   1      33.392  17.538   6.853  0.00  0.00    -0.191 N 
ATOM     13  HN  UNK N   1      32.462  17.955   6.876  1.00  0.00     0.217 HD
BRANCH  12  14
HETATM   14  O   UNK N   1      34.076  17.936   5.951  0.00  0.00    -0.273 OA
ATOM     15  HO  UNK N   1      34.979  17.769   5.709  1.00  0.00     0.246 HD
ENDBRANCH  12  14
ENDBRANCH   7  12
TORSDOF 2
ENDMDL
MODEL 4
REMARK VINA RESULT:      -5.5      1.279      3.751
REMARK  2 active torsions:
REMARK  status: ('A' for Active; 'I' for Inactive)
REMARK    1  A    between atoms: Fe_7  and  N_12 
REMARK    2  A    between atoms: N_12  and  O_14 
ROOT
HETATM    1  N   UNK N   1      33.839  17.861   5.772  0.00  0.00    -0.180 NA
HETATM    2  C   UNK N   1      34.854  16.857  10.060  0.00  0.00     0.180 C 
HETATM    3  C   UNK N   1      33.872  17.194   6.729  0.00  0.00     0.180 C 
HETATM    4  C   UNK N   1      33.015  14.141   8.151  0.00  0.00     0.180 C 
HETATM    5  N   UNK N   1      35.368  17.296  11.007  0.00  0.00    -0.180 NA
HETATM    6  N   UNK N   1      32.528  13.084   8.082  0.00  0.00    -0.180 NA
HETATM    7 Fe   UNK N   1      33.916  15.978   8.431  0.00  0.00     0.000 Fe
HETATM    8  C   UNK N   1      34.741  17.905   8.371  0.00  0.00     0.180 C 
HETATM    9  N   UNK N   1      35.201  18.978   8.342  0.00  0.00    -0.180 NA
HETATM   10  C   UNK N   1      33.031  15.346   6.640  0.00  0.00     0.180 C 
HETATM   11  N   UNK N   1      32.543  15.012   5.634  0.00  0.00    -0.180 NA
ENDROOT
BRANCH   7  12
HETATM   12  N   UNK N   1      33.867  14.654   9.997  0.00  0.00    -0.191 N 
ATOM     13  HN  UNK N   1      34.141  13.706   9.741  1.00  0.00     0.217 HD
BRANCH  12  14
HETATM   14  O   UNK N   1      33.579  14.778  11.155  0.00  0.00    -0.273 OA
ATOM     15  HO  UNK N   1      34.098  14.765  11.951  1.00  0.00     0.246 HD
ENDBRANCH  12  14
ENDBRANCH   7  12
TORSDOF 2
ENDMDL
MODEL 5
REMARK VINA RESULT:      -5.4      1.941      4.268
REMARK  2 active torsions:
REMARK  status: ('A' for Active; 'I' for Inactive)
REMARK    1  A    between atoms: Fe_7  and  N_12 
REMARK    2  A    between atoms: N_12  and  O_14 
ROOT
HETATM    1  N   UNK N   1      34.904  18.650   7.922  0.00  0.00    -0.180 NA
HETATM    2  C   UNK N   1      32.085  15.156   7.402  0.00  0.00     0.180 C 
HETATM    3  C   UNK N   1      34.387  17.647   8.220  0.00  0.00     0.180 C 
HETATM    4  C   UNK N   1      34.141  15.119  10.592  0.00  0.00     0.180 C 
HETATM    5  N   UNK N   1      31.295  14.717   6.669  0.00  0.00    -0.180 NA
HETATM    6  N   UNK N   1      34.457  14.635  11.604  0.00  0.00    -0.180 NA
HETATM    7 Fe   UNK N   1      33.475  15.849   8.778  0.00  0.00     0.000 Fe
HETATM    8  C   UNK N   1      33.030  16.860   6.996  0.00  0.00     0.180 C 
HETATM    9  N   UNK N   1      32.780  17.421   6.003  0.00  0.00    -0.180 NA
HETATM   10  C   UNK N   1      34.918  16.779   9.979  0.00  0.00     0.180 C 
HETATM   11  N   UNK N   1      35.724  17.312  10.633  0.00  0.00    -0.180 NA
ENDROOT
BRANCH   7  12
HETATM   12  N   UNK N   1      32.687  14.091   9.483  0.00  0.00    -0.191 N 
ATOM     13  HN  UNK N   1      32.477  14.106  10.481  1.00  0.00     0.217 HD
BRANCH  12  14
HETATM   14  O   UNK N   1      32.425  13.048   8.951  0.00  0.00    -0.273 OA
ATOM     15  HO  UNK N   1      32.852  12.555   8.260  1.00  0.00     0.246 HD
ENDBRANCH  12  14
ENDBRANCH   7  12
TORSDOF 2
ENDMDL
MODEL 6
REMARK VINA RESULT:      -5.4     13.309     14.861
REMARK  2 active torsions:
REMARK  status: ('A' for Active; 'I' for Inactive)
REMARK    1  A    between atoms: Fe_7  and  N_12 
REMARK    2  A    between atoms: N_12  and  O_14 
ROOT
HETATM    1  N   UNK N   1      24.094  18.795   4.658  0.00  0.00    -0.180 NA
HETATM    2  C   UNK N   1      20.906  20.276   1.816  0.00  0.00     0.180 C 
HETATM    3  C   UNK N   1      23.087  18.746   4.070  0.00  0.00     0.180 C 
HETATM    4  C   UNK N   1      20.214  16.904   3.414  0.00  0.00     0.180 C 
HETATM    5  N   UNK N   1      20.644  21.170   1.119  0.00  0.00    -0.180 NA
HETATM    6  N   UNK N   1      19.548  15.960   3.572  0.00  0.00    -0.180 NA
HETATM    7 Fe   UNK N   1      21.276  18.633   3.028  0.00  0.00     0.000 Fe
HETATM    8  C   UNK N   1      22.597  20.253   2.866  0.00  0.00     0.180 C 
HETATM    9  N   UNK N   1      23.331  21.157   2.774  0.00  0.00    -0.180 NA
HETATM   10  C   UNK N   1      21.905  17.112   4.326  0.00  0.00     0.180 C 
HETATM   11  N   UNK N   1      22.273  16.277   5.052  0.00  0.00    -0.180 NA
ENDROOT
BRANCH   7  12
HETATM   12  N   UNK N   1      19.473  18.353   2.091  0.00  0.00    -0.191 N 
ATOM     13  HN  UNK N   1      19.550  17.907   1.177  1.00  0.00     0.217 HD
BRANCH  12  14
HETATM   14  O   UNK N   1      18.345  18.611   2.407  0.00  0.00    -0.273 OA
ATOM     15  HO  UNK N   1      17.521  18.158   2.274  1.00  0.00     0.246 HD
ENDBRANCH  12  14
ENDBRANCH   7  12
TORSDOF 2
ENDMDL
MODEL 7
REMARK VINA RESULT:      -5.1      1.911      3.588
REMARK  2 active torsions:
REMARK  status: ('A' for Active; 'I' for Inactive)
REMARK    1  A    between atoms: Fe_7  and  N_12 
REMARK    2  A    between atoms: N_12  and  O_14 
ROOT
HETATM    1  N   UNK N   1      35.349  17.253  10.924  0.00  0.00    -0.180 NA
HETATM    2  C   UNK N   1      33.071  14.083   8.648  0.00  0.00     0.180 C 
HETATM    3  C   UNK N   1      34.809  16.789  10.000  0.00  0.00     0.180 C 
HETATM    4  C   UNK N   1      33.859  17.236   6.687  0.00  0.00     0.180 C 
HETATM    5  N   UNK N   1      32.615  13.019   8.766  0.00  0.00    -0.180 NA
HETATM    6  N   UNK N   1      33.818  17.877   5.715  0.00  0.00    -0.180 NA
HETATM    7 Fe   UNK N   1      33.846  15.981   8.328  0.00  0.00     0.000 Fe
HETATM    8  C   UNK N   1      34.015  14.972  10.158  0.00  0.00     0.180 C 
HETATM    9  N   UNK N   1      34.107  14.407  11.176  0.00  0.00    -0.180 NA
HETATM   10  C   UNK N   1      34.722  17.884   8.290  0.00  0.00     0.180 C 
HETATM   11  N   UNK N   1      35.216  18.942   8.289  0.00  0.00    -0.180 NA
ENDROOT
BRANCH   7  12
HETATM   12  N   UNK N   1      32.945  15.350   6.596  0.00  0.00    -0.191 N 
ATOM     13  HN  UNK N   1      33.540  15.430   5.772  1.00  0.00     0.217 HD
BRANCH  12  14
HETATM   14  O   UNK N   1      31.856  14.905   6.364  0.00  0.00    -0.273 OA
ATOM     15  HO  UNK N   1      31.519  14.017   6.331  1.00  0.00     0.246 HD
ENDBRANCH  12  14
ENDBRANCH   7  12
TORSDOF 2
ENDMDL
MODEL 8
REMARK VINA RESULT:      -5.1      1.441      2.881
REMARK  2 active torsions:
REMARK  status: ('A' for Active; 'I' for Inactive)
REMARK    1  A    between atoms: Fe_7  and  N_12 
REMARK    2  A    between atoms: N_12  and  O_14 
ROOT
HETATM    1  N   UNK N   1      33.910  17.869   5.711  0.00  0.00    -0.180 NA
HETATM    2  C   UNK N   1      33.060  14.040   7.956  0.00  0.00     0.180 C 
HETATM    3  C   UNK N   1      33.913  17.153   6.633  0.00  0.00     0.180 C 
HETATM    4  C   UNK N   1      34.815  16.740   9.963  0.00  0.00     0.180 C 
HETATM    5  N   UNK N   1      32.584  12.986   7.823  0.00  0.00    -0.180 NA
HETATM    6  N   UNK N   1      35.296  17.139  10.947  0.00  0.00    -0.180 NA
HETATM    7 Fe   UNK N   1      33.931  15.891   8.300  0.00  0.00     0.000 Fe
HETATM    8  C   UNK N   1      33.110  15.342   6.451  0.00  0.00     0.180 C 
HETATM    9  N   UNK N   1      32.652  15.033   5.422  0.00  0.00    -0.180 NA
HETATM   10  C   UNK N   1      34.744  17.821   8.363  0.00  0.00     0.180 C 
HETATM   11  N   UNK N   1      35.192  18.899   8.377  0.00  0.00    -0.180 NA
ENDROOT
BRANCH   7  12
HETATM   12  N   UNK N   1      34.037  14.793  10.030  0.00  0.00    -0.191 N 
ATOM     13  HN  UNK N   1      34.052  15.362  10.877  1.00  0.00     0.217 HD
BRANCH  12  14
HETATM   14  O   UNK N   1      34.085  13.614  10.241  0.00  0.00    -0.273 OA
ATOM     15  HO  UNK N   1      34.050  12.857   9.667  1.00  0.00     0.246 HD
ENDBRANCH  12  14
ENDBRANCH   7  12
TORSDOF 2
ENDMDL
MODEL 9
REMARK VINA RESULT:      -4.9     13.383     14.863
REMARK  2 active torsions:
REMARK  status: ('A' for Active; 'I' for Inactive)
REMARK    1  A    between atoms: Fe_7  and  N_12 
REMARK    2  A    between atoms: N_12  and  O_14 
ROOT
HETATM    1  N   UNK N   1      22.631  15.760   4.295  0.00  0.00    -0.180 NA
HETATM    2  C   UNK N   1      21.834  19.941   2.775  0.00  0.00     0.180 C 
HETATM    3  C   UNK N   1      22.144  16.567   3.607  0.00  0.00     0.180 C 
HETATM    4  C   UNK N   1      19.976  17.175   0.959  0.00  0.00     0.180 C 
HETATM    5  N   UNK N   1      22.121  21.053   2.960  0.00  0.00    -0.180 NA
HETATM    6  N   UNK N   1      19.238  16.801   0.138  0.00  0.00    -0.180 NA
HETATM    7 Fe   UNK N   1      21.256  17.992   2.360  0.00  0.00     0.000 Fe
HETATM    8  C   UNK N   1      22.605  18.482   3.888  0.00  0.00     0.180 C 
HETATM    9  N   UNK N   1      23.356  18.758   4.738  0.00  0.00    -0.180 NA
HETATM   10  C   UNK N   1      20.852  15.945   2.166  0.00  0.00     0.180 C 
HETATM   11  N   UNK N   1      20.641  14.801   2.074  0.00  0.00    -0.180 NA
ENDROOT
BRANCH   7  12
HETATM   12  N   UNK N   1      20.295  19.246   1.050  0.00  0.00    -0.191 N 
ATOM     13  HN  UNK N   1      19.367  19.532   1.363  1.00  0.00     0.217 HD
BRANCH  12  14
HETATM   14  O   UNK N   1      20.610  19.708  -0.010  0.00  0.00    -0.273 OA
ATOM     15  HO  UNK N   1      20.579  19.363  -0.896  1.00  0.00     0.246 HD
ENDBRANCH  12  14
ENDBRANCH   7  12
TORSDOF 2
ENDMDL
