MODEL 1
REMARK VINA RESULT:      -7.5      0.000      0.000
REMARK  5 active torsions:
REMARK  status: ('A' for Active; 'I' for Inactive)
REMARK    1  A    between atoms: C_7  and  C_9 
REMARK    2  A    between atoms: C_9  and  C_8 
REMARK    3  A    between atoms: C_9  and  C_10 
REMARK    4  A    between atoms: C_10  and  C_21 
REMARK    5  A    between atoms: C_11  and  O_12 
ROOT
HETATM    1  C   UNK N   1      28.071  28.061  -5.377  0.00  0.00     0.017 A 
HETATM    2  C   UNK N   1      27.280  29.200  -5.200  0.00  0.00     0.001 A 
HETATM    3  C   UNK N   1      26.204  29.173  -4.309  0.00  0.00     0.003 A 
HETATM    4  C   UNK N   1      25.910  28.004  -3.598  0.00  0.00     0.038 A 
HETATM    5  C   UNK N   1      27.783  26.887  -4.665  0.00  0.00     0.032 A 
HETATM    6  C   UNK N   1      26.694  26.859  -3.776  0.00  0.00     0.092 A 
HETATM    7  C   UNK N   1      28.235  24.567  -4.097  0.00  0.00     0.060 A 
HETATM    8  C   UNK N   1      28.558  25.739  -4.819  0.00  0.00     0.091 A 
HETATM    9  O   UNK N   1      26.404  25.749  -3.107  0.00  0.00    -0.274 OA
HETATM   10  C   UNK N   1      27.107  24.626  -3.232  0.00  0.00     0.298 A 
HETATM   11  O   UNK N   1      26.755  23.651  -2.593  0.00  0.00    -0.259 OA
ENDROOT
BRANCH   7  12
HETATM   12  C   UNK N   1      29.116  23.324  -4.292  0.00  0.00     0.067 C 
BRANCH  12  13
HETATM   13  C   UNK N   1      29.007  22.551  -5.597  0.00  0.00    -0.049 A 
HETATM   14  C   UNK N   1      29.960  21.575  -5.947  0.00  0.00     0.008 A 
HETATM   15  C   UNK N   1      29.841  20.859  -7.141  0.00  0.00     0.001 A 
HETATM   16  C   UNK N   1      28.769  21.111  -8.000  0.00  0.00     0.000 A 
HETATM   17  C   UNK N   1      27.811  22.070  -7.660  0.00  0.00     0.001 A 
HETATM   18  C   UNK N   1      27.924  22.780  -6.459  0.00  0.00     0.008 A 
ENDBRANCH  12  13
BRANCH  12  19
HETATM   19  C   UNK N   1      30.572  23.642  -3.930  0.00  0.00     0.092 C 
BRANCH  19  20
HETATM   20  C   UNK N   1      30.996  22.859  -2.726  0.00  0.00     0.124 C 
HETATM   21  O   UNK N   1      30.526  23.109  -1.628  0.00  0.00    -0.298 OA
HETATM   22  C   UNK N   1      31.998  21.766  -2.870  0.00  0.00     0.091 C 
ENDBRANCH  19  20
ENDBRANCH  12  19
ENDBRANCH   7  12
BRANCH   8  23
HETATM   23  O   UNK N   1      29.614  25.756  -5.657  0.00  0.00    -0.359 OA
HETATM   24  H   UNK N   1      29.923  24.970  -6.063  0.00  0.00     0.217 HD
ENDBRANCH   8  23
TORSDOF 5
ENDMDL
MODEL 2
REMARK VINA RESULT:      -7.3     13.565     17.090
REMARK  5 active torsions:
REMARK  status: ('A' for Active; 'I' for Inactive)
REMARK    1  A    between atoms: C_7  and  C_9 
REMARK    2  A    between atoms: C_9  and  C_8 
REMARK    3  A    between atoms: C_9  and  C_10 
REMARK    4  A    between atoms: C_10  and  C_21 
REMARK    5  A    between atoms: C_11  and  O_12 
ROOT
HETATM    1  C   UNK N   1      34.275  14.008  10.999  0.00  0.00     0.017 A 
HETATM    2  C   UNK N   1      35.153  13.828  12.071  0.00  0.00     0.001 A 
HETATM    3  C   UNK N   1      36.046  14.844  12.422  0.00  0.00     0.003 A 
HETATM    4  C   UNK N   1      36.071  16.039  11.695  0.00  0.00     0.038 A 
HETATM    5  C   UNK N   1      34.293  15.206  10.269  0.00  0.00     0.032 A 
HETATM    6  C   UNK N   1      35.200  16.222  10.617  0.00  0.00     0.092 A 
HETATM    7  C   UNK N   1      33.476  16.626   8.473  0.00  0.00     0.060 A 
HETATM    8  C   UNK N   1      33.425  15.414   9.197  0.00  0.00     0.091 A 
HETATM    9  O   UNK N   1      35.235  17.355   9.924  0.00  0.00    -0.274 OA
HETATM   10  C   UNK N   1      34.436  17.591   8.886  0.00  0.00     0.298 A 
HETATM   11  O   UNK N   1      34.553  18.652   8.298  0.00  0.00    -0.259 OA
ENDROOT
BRANCH   7  12
HETATM   12  C   UNK N   1      32.501  16.817   7.302  0.00  0.00     0.067 C 
BRANCH  12  13
HETATM   13  C   UNK N   1      31.143  17.444   7.578  0.00  0.00    -0.049 A 
HETATM   14  C   UNK N   1      30.087  17.332   6.653  0.00  0.00     0.008 A 
HETATM   15  C   UNK N   1      28.839  17.898   6.926  0.00  0.00     0.001 A 
HETATM   16  C   UNK N   1      28.631  18.583   8.125  0.00  0.00     0.000 A 
HETATM   17  C   UNK N   1      29.667  18.692   9.056  0.00  0.00     0.001 A 
HETATM   18  C   UNK N   1      30.915  18.116   8.789  0.00  0.00     0.008 A 
ENDBRANCH  12  13
BRANCH  12  19
HETATM   19  C   UNK N   1      33.213  17.485   6.119  0.00  0.00     0.092 C 
BRANCH  19  20
HETATM   20  C   UNK N   1      33.901  16.459   5.273  0.00  0.00     0.124 C 
HETATM   21  O   UNK N   1      34.977  15.997   5.613  0.00  0.00    -0.298 OA
HETATM   22  C   UNK N   1      33.265  15.998   4.007  0.00  0.00     0.091 C 
ENDBRANCH  19  20
ENDBRANCH  12  19
ENDBRANCH   7  12
BRANCH   8  23
HETATM   23  O   UNK N   1      32.541  14.453   8.862  0.00  0.00    -0.359 OA
HETATM   24  H   UNK N   1      32.829  13.610   8.573  0.00  0.00     0.217 HD
ENDBRANCH   8  23
TORSDOF 5
ENDMDL
MODEL 3
REMARK VINA RESULT:      -7.2      9.650     11.204
REMARK  5 active torsions:
REMARK  status: ('A' for Active; 'I' for Inactive)
REMARK    1  A    between atoms: C_7  and  C_9 
REMARK    2  A    between atoms: C_9  and  C_8 
REMARK    3  A    between atoms: C_9  and  C_10 
REMARK    4  A    between atoms: C_10  and  C_21 
REMARK    5  A    between atoms: C_11  and  O_12 
ROOT
HETATM    1  C   UNK N   1      21.520  18.716   4.291  0.00  0.00     0.017 A 
HETATM    2  C   UNK N   1      20.302  19.141   3.754  0.00  0.00     0.001 A 
HETATM    3  C   UNK N   1      20.282  20.098   2.736  0.00  0.00     0.003 A 
HETATM    4  C   UNK N   1      21.480  20.640   2.258  0.00  0.00     0.038 A 
HETATM    5  C   UNK N   1      22.724  19.254   3.814  0.00  0.00     0.032 A 
HETATM    6  C   UNK N   1      22.702  20.224   2.797  0.00  0.00     0.092 A 
HETATM    7  C   UNK N   1      25.150  19.415   3.836  0.00  0.00     0.060 A 
HETATM    8  C   UNK N   1      23.954  18.845   4.329  0.00  0.00     0.091 A 
HETATM    9  O   UNK N   1      23.836  20.750   2.347  0.00  0.00    -0.274 OA
HETATM   10  C   UNK N   1      25.030  20.400   2.818  0.00  0.00     0.298 A 
HETATM   11  O   UNK N   1      26.015  20.951   2.358  0.00  0.00    -0.259 OA
ENDROOT
BRANCH   7  12
HETATM   12  C   UNK N   1      26.484  18.934   4.427  0.00  0.00     0.067 C 
BRANCH  12  13
HETATM   13  C   UNK N   1      27.164  17.725   3.804  0.00  0.00    -0.049 A 
HETATM   14  C   UNK N   1      26.424  16.753   3.105  0.00  0.00     0.008 A 
HETATM   15  C   UNK N   1      27.062  15.654   2.523  0.00  0.00     0.001 A 
HETATM   16  C   UNK N   1      28.447  15.514   2.634  0.00  0.00     0.000 A 
HETATM   17  C   UNK N   1      29.195  16.476   3.317  0.00  0.00     0.001 A 
HETATM   18  C   UNK N   1      28.558  17.582   3.891  0.00  0.00     0.008 A 
ENDBRANCH  12  13
BRANCH  12  19
HETATM   19  C   UNK N   1      27.448  20.115   4.595  0.00  0.00     0.092 C 
BRANCH  19  20
HETATM   20  C   UNK N   1      27.401  20.635   5.998  0.00  0.00     0.124 C 
HETATM   21  O   UNK N   1      27.045  21.780   6.222  0.00  0.00    -0.298 OA
HETATM   22  C   UNK N   1      27.789  19.747   7.130  0.00  0.00     0.091 C 
ENDBRANCH  19  20
ENDBRANCH  12  19
ENDBRANCH   7  12
BRANCH   8  23
HETATM   23  O   UNK N   1      23.991  17.905   5.294  0.00  0.00    -0.359 OA
HETATM   24  H   UNK N   1      24.661  17.910   5.949  0.00  0.00     0.217 HD
ENDBRANCH   8  23
TORSDOF 5
ENDMDL
MODEL 4
REMARK VINA RESULT:      -7.0     12.484     16.376
REMARK  5 active torsions:
REMARK  status: ('A' for Active; 'I' for Inactive)
REMARK    1  A    between atoms: C_7  and  C_9 
REMARK    2  A    between atoms: C_9  and  C_8 
REMARK    3  A    between atoms: C_9  and  C_10 
REMARK    4  A    between atoms: C_10  and  C_21 
REMARK    5  A    between atoms: C_11  and  O_12 
ROOT
HETATM    1  C   UNK N   1      35.237  16.411  10.644  0.00  0.00     0.017 A 
HETATM    2  C   UNK N   1      36.096  15.579  11.368  0.00  0.00     0.001 A 
HETATM    3  C   UNK N   1      36.066  14.196  11.164  0.00  0.00     0.003 A 
HETATM    4  C   UNK N   1      35.171  13.641  10.243  0.00  0.00     0.038 A 
HETATM    5  C   UNK N   1      34.340  15.860   9.717  0.00  0.00     0.032 A 
HETATM    6  C   UNK N   1      34.305  14.469   9.521  0.00  0.00     0.092 A 
HETATM    7  C   UNK N   1      32.574  16.082   8.061  0.00  0.00     0.060 A 
HETATM    8  C   UNK N   1      33.476  16.668   8.978  0.00  0.00     0.091 A 
HETATM    9  O   UNK N   1      33.450  13.935   8.655  0.00  0.00    -0.274 OA
HETATM   10  C   UNK N   1      32.598  14.665   7.940  0.00  0.00     0.298 A 
HETATM   11  O   UNK N   1      31.837  14.087   7.184  0.00  0.00    -0.259 OA
ENDROOT
BRANCH   7  12
HETATM   12  C   UNK N   1      31.642  17.006   7.264  0.00  0.00     0.067 C 
BRANCH  12  13
HETATM   13  C   UNK N   1      31.737  17.007   5.746  0.00  0.00    -0.049 A 
HETATM   14  C   UNK N   1      32.953  17.283   5.093  0.00  0.00     0.008 A 
HETATM   15  C   UNK N   1      33.033  17.265   3.697  0.00  0.00     0.001 A 
HETATM   16  C   UNK N   1      31.897  16.971   2.939  0.00  0.00     0.000 A 
HETATM   17  C   UNK N   1      30.687  16.685   3.575  0.00  0.00     0.001 A 
HETATM   18  C   UNK N   1      30.609  16.693   4.973  0.00  0.00     0.008 A 
ENDBRANCH  12  13
BRANCH  12  19
HETATM   19  C   UNK N   1      30.196  16.851   7.750  0.00  0.00     0.092 C 
BRANCH  19  20
HETATM   20  C   UNK N   1      29.813  17.999   8.632  0.00  0.00     0.124 C 
HETATM   21  O   UNK N   1      30.659  18.780   9.035  0.00  0.00    -0.298 OA
HETATM   22  C   UNK N   1      28.387  18.190   9.020  0.00  0.00     0.091 C 
ENDBRANCH  19  20
ENDBRANCH  12  19
ENDBRANCH   7  12
BRANCH   8  23
HETATM   23  O   UNK N   1      33.509  18.005   9.146  0.00  0.00    -0.359 OA
HETATM   24  H   UNK N   1      33.305  18.394   9.973  0.00  0.00     0.217 HD
ENDBRANCH   8  23
TORSDOF 5
ENDMDL
MODEL 5
REMARK VINA RESULT:      -7.0     12.523     16.516
REMARK  5 active torsions:
REMARK  status: ('A' for Active; 'I' for Inactive)
REMARK    1  A    between atoms: C_7  and  C_9 
REMARK    2  A    between atoms: C_9  and  C_8 
REMARK    3  A    between atoms: C_9  and  C_10 
REMARK    4  A    between atoms: C_10  and  C_21 
REMARK    5  A    between atoms: C_11  and  O_12 
ROOT
HETATM    1  C   UNK N   1      34.117  14.156  10.588  0.00  0.00     0.017 A 
HETATM    2  C   UNK N   1      35.048  13.856  11.585  0.00  0.00     0.001 A 
HETATM    3  C   UNK N   1      36.026  14.792  11.934  0.00  0.00     0.003 A 
HETATM    4  C   UNK N   1      36.080  16.027  11.279  0.00  0.00     0.038 A 
HETATM    5  C   UNK N   1      34.165  15.393   9.930  0.00  0.00     0.032 A 
HETATM    6  C   UNK N   1      35.155  16.329  10.275  0.00  0.00     0.092 A 
HETATM    7  C   UNK N   1      33.327  16.970   8.280  0.00  0.00     0.060 A 
HETATM    8  C   UNK N   1      33.245  15.720   8.933  0.00  0.00     0.091 A 
HETATM    9  O   UNK N   1      35.218  17.499   9.649  0.00  0.00    -0.274 OA
HETATM   10  C   UNK N   1      34.371  17.848   8.683  0.00  0.00     0.298 A 
HETATM   11  O   UNK N   1      34.518  18.935   8.151  0.00  0.00    -0.259 OA
ENDROOT
BRANCH   7  12
HETATM   12  C   UNK N   1      32.293  17.293   7.191  0.00  0.00     0.067 C 
BRANCH  12  13
HETATM   13  C   UNK N   1      32.605  16.910   5.752  0.00  0.00    -0.049 A 
HETATM   14  C   UNK N   1      33.554  15.914   5.453  0.00  0.00     0.008 A 
HETATM   15  C   UNK N   1      33.821  15.559   4.128  0.00  0.00     0.001 A 
HETATM   16  C   UNK N   1      33.144  16.197   3.086  0.00  0.00     0.000 A 
HETATM   17  C   UNK N   1      32.192  17.179   3.370  0.00  0.00     0.001 A 
HETATM   18  C   UNK N   1      31.917  17.528   4.697  0.00  0.00     0.008 A 
ENDBRANCH  12  13
BRANCH  12  19
HETATM   19  C   UNK N   1      30.900  16.821   7.623  0.00  0.00     0.092 C 
BRANCH  19  20
HETATM   20  C   UNK N   1      30.101  17.967   8.161  0.00  0.00     0.124 C 
HETATM   21  O   UNK N   1      30.500  18.603   9.122  0.00  0.00    -0.298 OA
HETATM   22  C   UNK N   1      28.809  18.335   7.515  0.00  0.00     0.091 C 
ENDBRANCH  19  20
ENDBRANCH  12  19
ENDBRANCH   7  12
BRANCH   8  23
HETATM   23  O   UNK N   1      32.282  14.837   8.603  0.00  0.00    -0.359 OA
HETATM   24  H   UNK N   1      32.497  13.972   8.313  0.00  0.00     0.217 HD
ENDBRANCH   8  23
TORSDOF 5
ENDMDL
MODEL 6
REMARK VINA RESULT:      -6.9      1.498      3.466
REMARK  5 active torsions:
REMARK  status: ('A' for Active; 'I' for Inactive)
REMARK    1  A    between atoms: C_7  and  C_9 
REMARK    2  A    between atoms: C_9  and  C_8 
REMARK    3  A    between atoms: C_9  and  C_10 
REMARK    4  A    between atoms: C_10  and  C_21 
REMARK    5  A    between atoms: C_11  and  O_12 
ROOT
HETATM    1  C   UNK N   1      27.829  28.794  -5.445  0.00  0.00     0.017 A 
HETATM    2  C   UNK N   1      27.258  29.944  -4.892  0.00  0.00     0.001 A 
HETATM    3  C   UNK N   1      26.367  29.836  -3.820  0.00  0.00     0.003 A 
HETATM    4  C   UNK N   1      26.037  28.577  -3.305  0.00  0.00     0.038 A 
HETATM    5  C   UNK N   1      27.504  27.531  -4.932  0.00  0.00     0.032 A 
HETATM    6  C   UNK N   1      26.600  27.424  -3.860  0.00  0.00     0.092 A 
HETATM    7  C   UNK N   1      27.705  25.108  -4.931  0.00  0.00     0.060 A 
HETATM    8  C   UNK N   1      28.062  26.368  -5.462  0.00  0.00     0.091 A 
HETATM    9  O   UNK N   1      26.275  26.231  -3.374  0.00  0.00    -0.274 OA
HETATM   10  C   UNK N   1      26.771  25.095  -3.858  0.00  0.00     0.298 A 
HETATM   11  O   UNK N   1      26.400  24.046  -3.362  0.00  0.00    -0.259 OA
ENDROOT
BRANCH   7  12
HETATM   12  C   UNK N   1      28.344  23.852  -5.541  0.00  0.00     0.067 C 
BRANCH  12  13
HETATM   13  C   UNK N   1      29.345  23.064  -4.708  0.00  0.00    -0.049 A 
HETATM   14  C   UNK N   1      29.846  23.576  -3.496  0.00  0.00     0.008 A 
HETATM   15  C   UNK N   1      30.752  22.837  -2.731  0.00  0.00     0.001 A 
HETATM   16  C   UNK N   1      31.169  21.578  -3.170  0.00  0.00     0.000 A 
HETATM   17  C   UNK N   1      30.671  21.054  -4.365  0.00  0.00     0.001 A 
HETATM   18  C   UNK N   1      29.755  21.789  -5.127  0.00  0.00     0.008 A 
ENDBRANCH  12  13
BRANCH  12  19
HETATM   19  C   UNK N   1      27.266  22.948  -6.153  0.00  0.00     0.092 C 
BRANCH  19  20
HETATM   20  C   UNK N   1      26.592  23.638  -7.297  0.00  0.00     0.124 C 
HETATM   21  O   UNK N   1      25.402  23.906  -7.245  0.00  0.00    -0.298 OA
HETATM   22  C   UNK N   1      27.379  24.003  -8.509  0.00  0.00     0.091 C 
ENDBRANCH  19  20
ENDBRANCH  12  19
ENDBRANCH   7  12
BRANCH   8  23
HETATM   23  O   UNK N   1      28.941  26.457  -6.480  0.00  0.00    -0.359 OA
HETATM   24  H   UNK N   1      29.458  27.228  -6.607  0.00  0.00     0.217 HD
ENDBRANCH   8  23
TORSDOF 5
ENDMDL
MODEL 7
REMARK VINA RESULT:      -6.8     10.778     13.701
REMARK  5 active torsions:
REMARK  status: ('A' for Active; 'I' for Inactive)
REMARK    1  A    between atoms: C_7  and  C_9 
REMARK    2  A    between atoms: C_9  and  C_8 
REMARK    3  A    between atoms: C_9  and  C_10 
REMARK    4  A    between atoms: C_10  and  C_21 
REMARK    5  A    between atoms: C_11  and  O_12 
ROOT
HETATM    1  C   UNK N   1      27.746  19.614   4.204  0.00  0.00     0.017 A 
HETATM    2  C   UNK N   1      26.707  20.543   4.309  0.00  0.00     0.001 A 
HETATM    3  C   UNK N   1      26.238  20.929   5.567  0.00  0.00     0.003 A 
HETATM    4  C   UNK N   1      26.799  20.379   6.725  0.00  0.00     0.038 A 
HETATM    5  C   UNK N   1      28.315  19.062   5.361  0.00  0.00     0.032 A 
HETATM    6  C   UNK N   1      27.834  19.444   6.626  0.00  0.00     0.092 A 
HETATM    7  C   UNK N   1      29.899  17.589   6.470  0.00  0.00     0.060 A 
HETATM    8  C   UNK N   1      29.355  18.137   5.286  0.00  0.00     0.091 A 
HETATM    9  O   UNK N   1      28.357  18.918   7.728  0.00  0.00    -0.274 OA
HETATM   10  C   UNK N   1      29.340  18.022   7.704  0.00  0.00     0.298 A 
HETATM   11  O   UNK N   1      29.743  17.578   8.765  0.00  0.00    -0.259 OA
ENDROOT
BRANCH   7  12
HETATM   12  C   UNK N   1      31.046  16.575   6.344  0.00  0.00     0.067 C 
BRANCH  12  13
HETATM   13  C   UNK N   1      32.243  16.708   7.274  0.00  0.00    -0.049 A 
HETATM   14  C   UNK N   1      32.557  15.700   8.205  0.00  0.00     0.008 A 
HETATM   15  C   UNK N   1      33.669  15.826   9.043  0.00  0.00     0.001 A 
HETATM   16  C   UNK N   1      34.477  16.962   8.962  0.00  0.00     0.000 A 
HETATM   17  C   UNK N   1      34.182  17.965   8.036  0.00  0.00     0.001 A 
HETATM   18  C   UNK N   1      33.075  17.835   7.188  0.00  0.00     0.008 A 
ENDBRANCH  12  13
BRANCH  12  19
HETATM   19  C   UNK N   1      30.493  15.145   6.318  0.00  0.00     0.092 C 
BRANCH  19  20
HETATM   20  C   UNK N   1      30.888  14.453   5.051  0.00  0.00     0.124 C 
HETATM   21  O   UNK N   1      30.405  14.793   3.983  0.00  0.00    -0.298 OA
HETATM   22  C   UNK N   1      31.880  13.342   5.093  0.00  0.00     0.091 C 
ENDBRANCH  19  20
ENDBRANCH  12  19
ENDBRANCH   7  12
BRANCH   8  23
HETATM   23  O   UNK N   1      29.835  17.773   4.080  0.00  0.00    -0.359 OA
HETATM   24  H   UNK N   1      29.623  16.940   3.706  0.00  0.00     0.217 HD
ENDBRANCH   8  23
TORSDOF 5
ENDMDL
MODEL 8
REMARK VINA RESULT:      -6.8     10.044     12.506
REMARK  5 active torsions:
REMARK  status: ('A' for Active; 'I' for Inactive)
REMARK    1  A    between atoms: C_7  and  C_9 
REMARK    2  A    between atoms: C_9  and  C_8 
REMARK    3  A    between atoms: C_9  and  C_10 
REMARK    4  A    between atoms: C_10  and  C_21 
REMARK    5  A    between atoms: C_11  and  O_12 
ROOT
HETATM    1  C   UNK N   1      25.551  20.426   3.084  0.00  0.00     0.017 A 
HETATM    2  C   UNK N   1      24.227  20.691   2.726  0.00  0.00     0.001 A 
HETATM    3  C   UNK N   1      23.201  19.852   3.170  0.00  0.00     0.003 A 
HETATM    4  C   UNK N   1      23.498  18.740   3.966  0.00  0.00     0.038 A 
HETATM    5  C   UNK N   1      25.855  19.315   3.884  0.00  0.00     0.032 A 
HETATM    6  C   UNK N   1      24.823  18.467   4.322  0.00  0.00     0.092 A 
HETATM    7  C   UNK N   1      27.443  17.896   5.057  0.00  0.00     0.060 A 
HETATM    8  C   UNK N   1      27.167  19.030   4.260  0.00  0.00     0.091 A 
HETATM    9  O   UNK N   1      25.100  17.404   5.069  0.00  0.00    -0.274 OA
HETATM   10  C   UNK N   1      26.338  17.086   5.440  0.00  0.00     0.298 A 
HETATM   11  O   UNK N   1      26.499  16.081   6.110  0.00  0.00    -0.259 OA
ENDROOT
BRANCH   7  12
HETATM   12  C   UNK N   1      28.901  17.620   5.452  0.00  0.00     0.067 C 
BRANCH  12  13
HETATM   13  C   UNK N   1      29.296  17.745   6.916  0.00  0.00    -0.049 A 
HETATM   14  C   UNK N   1      30.494  17.184   7.397  0.00  0.00     0.008 A 
HETATM   15  C   UNK N   1      30.855  17.319   8.740  0.00  0.00     0.001 A 
HETATM   16  C   UNK N   1      30.022  18.016   9.618  0.00  0.00     0.000 A 
HETATM   17  C   UNK N   1      28.835  18.587   9.151  0.00  0.00     0.001 A 
HETATM   18  C   UNK N   1      28.479  18.461   7.804  0.00  0.00     0.008 A 
ENDBRANCH  12  13
BRANCH  12  19
HETATM   19  C   UNK N   1      29.378  16.298   4.838  0.00  0.00     0.092 C 
BRANCH  19  20
HETATM   20  C   UNK N   1      30.181  16.554   3.601  0.00  0.00     0.124 C 
HETATM   21  O   UNK N   1      29.678  16.421   2.497  0.00  0.00    -0.298 OA
HETATM   22  C   UNK N   1      31.605  16.977   3.718  0.00  0.00     0.091 C 
ENDBRANCH  19  20
ENDBRANCH  12  19
ENDBRANCH   7  12
BRANCH   8  23
HETATM   23  O   UNK N   1      28.164  19.843   3.859  0.00  0.00    -0.359 OA
HETATM   24  H   UNK N   1      28.153  20.241   3.011  0.00  0.00     0.217 HD
ENDBRANCH   8  23
TORSDOF 5
ENDMDL
MODEL 9
REMARK VINA RESULT:      -6.8     13.352     17.310
REMARK  5 active torsions:
REMARK  status: ('A' for Active; 'I' for Inactive)
REMARK    1  A    between atoms: C_7  and  C_9 
REMARK    2  A    between atoms: C_9  and  C_8 
REMARK    3  A    between atoms: C_9  and  C_10 
REMARK    4  A    between atoms: C_10  and  C_21 
REMARK    5  A    between atoms: C_11  and  O_12 
ROOT
HETATM    1  C   UNK N   1      35.293  16.060  11.264  0.00  0.00     0.017 A 
HETATM    2  C   UNK N   1      36.021  15.272  12.159  0.00  0.00     0.001 A 
HETATM    3  C   UNK N   1      35.932  13.878  12.096  0.00  0.00     0.003 A 
HETATM    4  C   UNK N   1      35.108  13.269  11.144  0.00  0.00     0.038 A 
HETATM    5  C   UNK N   1      34.468  15.455  10.305  0.00  0.00     0.032 A 
HETATM    6  C   UNK N   1      34.372  14.054  10.250  0.00  0.00     0.092 A 
HETATM    7  C   UNK N   1      32.901  15.579   8.450  0.00  0.00     0.060 A 
HETATM    8  C   UNK N   1      33.734  16.218   9.397  0.00  0.00     0.091 A 
HETATM    9  O   UNK N   1      33.583  13.470   9.355  0.00  0.00    -0.274 OA
HETATM   10  C   UNK N   1      32.855  14.158   8.479  0.00  0.00     0.298 A 
HETATM   11  O   UNK N   1      32.144  13.538   7.707  0.00  0.00    -0.259 OA
ENDROOT
BRANCH   7  12
HETATM   12  C   UNK N   1      32.112  16.455   7.465  0.00  0.00     0.067 C 
BRANCH  12  13
HETATM   13  C   UNK N   1      30.753  16.988   7.891  0.00  0.00    -0.049 A 
HETATM   14  C   UNK N   1      30.396  17.071   9.250  0.00  0.00     0.008 A 
HETATM   15  C   UNK N   1      29.150  17.578   9.630  0.00  0.00     0.001 A 
HETATM   16  C   UNK N   1      28.246  18.007   8.655  0.00  0.00     0.000 A 
HETATM   17  C   UNK N   1      28.592  17.940   7.304  0.00  0.00     0.001 A 
HETATM   18  C   UNK N   1      29.844  17.442   6.923  0.00  0.00     0.008 A 
ENDBRANCH  12  13
BRANCH  12  19
HETATM   19  C   UNK N   1      33.012  17.558   6.896  0.00  0.00     0.092 C 
BRANCH  19  20
HETATM   20  C   UNK N   1      33.575  17.145   5.572  0.00  0.00     0.124 C 
HETATM   21  O   UNK N   1      34.598  16.483   5.513  0.00  0.00    -0.298 OA
HETATM   22  C   UNK N   1      32.879  17.544   4.316  0.00  0.00     0.091 C 
ENDBRANCH  19  20
ENDBRANCH  12  19
ENDBRANCH   7  12
BRANCH   8  23
HETATM   23  O   UNK N   1      33.827  17.562   9.429  0.00  0.00    -0.359 OA
HETATM   24  H   UNK N   1      33.948  18.058   8.644  0.00  0.00     0.217 HD
ENDBRANCH   8  23
TORSDOF 5
ENDMDL
