MODEL 1
REMARK VINA RESULT:      -5.6      0.000      0.000
REMARK  7 active torsions:
REMARK  status: ('A' for Active; 'I' for Inactive)
REMARK    1  A    between atoms: O_11  and  C_2 
REMARK    2  A    between atoms: C_9  and  C_3 
REMARK    3  A    between atoms: C_6  and  C_8 
REMARK    4  A    between atoms: O_10  and  C_6 
REMARK    5  A    between atoms: C_8  and  C_9 
REMARK    6  A    between atoms: C_8  and  N_15 
REMARK    7  A    between atoms: C_12  and  O_13 
ROOT
HETATM    1  C   UNK N   1      35.409  11.357  18.555  0.00  0.00     0.040 A 
HETATM    2  C   UNK N   1      35.364  12.643  19.096  0.00  0.00     0.098 A 
HETATM    3  C   UNK N   1      35.148  12.283  16.330  0.00  0.00    -0.052 A 
HETATM    4  C   UNK N   1      35.124  13.571  16.876  0.00  0.00     0.046 A 
HETATM    5  C   UNK N   1      35.294  11.175  17.171  0.00  0.00     0.010 A 
HETATM    6  C   UNK N   1      35.224  13.757  18.258  0.00  0.00     0.099 A 
ENDROOT
BRANCH   3   7
HETATM    7  C   UNK N   1      34.933  12.072  14.857  0.00  0.00     0.080 C 
BRANCH   7   8
HETATM    8  C   UNK N   1      36.142  12.502  14.003  0.00  0.00     0.110 C 
HETATM    9  C   UNK N   1      36.366  11.470  12.904  0.00  0.00     0.050 C 
BRANCH   8  10
HETATM   10  C   UNK N   1      35.889  13.862  13.401  0.00  0.00     0.168 C 
HETATM   11  O   UNK N   1      34.893  14.048  12.720  0.00  0.00    -0.648 OA
BRANCH  10  12
HETATM   12  O   UNK N   1      36.732  14.888  13.633  0.00  0.00    -0.775 OA
HETATM   13  H   UNK N   1      36.527  15.781  13.832  0.00  0.00     0.167 HD
ENDBRANCH  10  12
ENDBRANCH   8  10
BRANCH   8  14
HETATM   14  N   UNK N   1      37.342  12.584  14.823  0.00  0.00    -0.413 N 
HETATM   15  H   UNK N   1      37.898  12.619  15.677  0.00  0.00     0.151 HD
HETATM   16  H   UNK N   1      38.068  12.641  14.109  0.00  0.00     0.151 HD
ENDBRANCH   8  14
ENDBRANCH   7   8
ENDBRANCH   3   7
BRANCH   6  17
HETATM   17  O   UNK N   1      35.170  14.996  18.765  0.00  0.00    -0.358 OA
HETATM   18  H   UNK N   1      35.742  15.270  19.455  0.00  0.00     0.217 HD
ENDBRANCH   6  17
BRANCH   2  19
HETATM   19  O   UNK N   1      35.447  12.811  20.430  0.00  0.00    -0.358 OA
HETATM   20  H   UNK N   1      34.727  12.643  21.006  0.00  0.00     0.217 HD
ENDBRANCH   2  19
TORSDOF 7
ENDMDL
MODEL 2
REMARK VINA RESULT:      -5.6      9.143     10.430
REMARK  7 active torsions:
REMARK  status: ('A' for Active; 'I' for Inactive)
REMARK    1  A    between atoms: O_11  and  C_2 
REMARK    2  A    between atoms: C_9  and  C_3 
REMARK    3  A    between atoms: C_6  and  C_8 
REMARK    4  A    between atoms: O_10  and  C_6 
REMARK    5  A    between atoms: C_8  and  C_9 
REMARK    6  A    between atoms: C_8  and  N_15 
REMARK    7  A    between atoms: C_12  and  O_13 
ROOT
HETATM    1  C   UNK N   1      28.777  17.161   7.494  0.00  0.00     0.040 A 
HETATM    2  C   UNK N   1      28.688  17.813   8.725  0.00  0.00     0.098 A 
HETATM    3  C   UNK N   1      31.180  17.481   7.496  0.00  0.00    -0.052 A 
HETATM    4  C   UNK N   1      31.087  18.116   8.739  0.00  0.00     0.046 A 
HETATM    5  C   UNK N   1      30.022  17.001   6.874  0.00  0.00     0.010 A 
HETATM    6  C   UNK N   1      29.845  18.292   9.355  0.00  0.00     0.099 A 
ENDROOT
BRANCH   3   7
HETATM    7  C   UNK N   1      32.499  17.387   6.781  0.00  0.00     0.080 C 
BRANCH   7   8
HETATM    8  C   UNK N   1      33.572  16.632   7.591  0.00  0.00     0.110 C 
HETATM    9  C   UNK N   1      34.541  15.960   6.626  0.00  0.00     0.050 C 
BRANCH   8  10
HETATM   10  C   UNK N   1      34.309  17.593   8.489  0.00  0.00     0.168 C 
HETATM   11  O   UNK N   1      34.755  18.633   8.030  0.00  0.00    -0.648 OA
BRANCH  10  12
HETATM   12  O   UNK N   1      34.454  17.337   9.805  0.00  0.00    -0.775 OA
HETATM   13  H   UNK N   1      33.915  16.809  10.362  0.00  0.00     0.167 HD
ENDBRANCH  10  12
ENDBRANCH   8  10
BRANCH   8  14
HETATM   14  N   UNK N   1      32.955  15.612   8.426  0.00  0.00    -0.413 N 
HETATM   15  H   UNK N   1      32.643  14.679   8.699  0.00  0.00     0.151 HD
HETATM   16  H   UNK N   1      32.647  16.166   9.225  0.00  0.00     0.151 HD
ENDBRANCH   8  14
ENDBRANCH   7   8
ENDBRANCH   3   7
BRANCH   6  17
HETATM   17  O   UNK N   1      29.772  18.928  10.532  0.00  0.00    -0.358 OA
HETATM   18  H   UNK N   1      30.541  19.228  10.976  0.00  0.00     0.217 HD
ENDBRANCH   6  17
BRANCH   2  19
HETATM   19  O   UNK N   1      27.485  17.990   9.303  0.00  0.00    -0.358 OA
HETATM   20  H   UNK N   1      26.744  17.451   9.102  0.00  0.00     0.217 HD
ENDBRANCH   2  19
TORSDOF 7
ENDMDL
MODEL 3
REMARK VINA RESULT:      -5.4      9.136     10.903
REMARK  7 active torsions:
REMARK  status: ('A' for Active; 'I' for Inactive)
REMARK    1  A    between atoms: O_11  and  C_2 
REMARK    2  A    between atoms: C_9  and  C_3 
REMARK    3  A    between atoms: C_6  and  C_8 
REMARK    4  A    between atoms: O_10  and  C_6 
REMARK    5  A    between atoms: C_8  and  C_9 
REMARK    6  A    between atoms: C_8  and  N_15 
REMARK    7  A    between atoms: C_12  and  O_13 
ROOT
HETATM    1  C   UNK N   1      29.311  16.874   6.496  0.00  0.00     0.040 A 
HETATM    2  C   UNK N   1      28.263  17.161   7.372  0.00  0.00     0.098 A 
HETATM    3  C   UNK N   1      30.898  17.747   8.107  0.00  0.00    -0.052 A 
HETATM    4  C   UNK N   1      29.845  18.014   8.989  0.00  0.00     0.046 A 
HETATM    5  C   UNK N   1      30.630  17.174   6.860  0.00  0.00     0.010 A 
HETATM    6  C   UNK N   1      28.526  17.730   8.625  0.00  0.00     0.099 A 
ENDROOT
BRANCH   3   7
HETATM    7  C   UNK N   1      32.305  18.150   8.451  0.00  0.00     0.080 C 
BRANCH   7   8
HETATM    8  C   UNK N   1      33.257  16.947   8.605  0.00  0.00     0.110 C 
HETATM    9  C   UNK N   1      32.436  15.699   8.907  0.00  0.00     0.050 C 
BRANCH   8  10
HETATM   10  C   UNK N   1      34.054  16.757   7.339  0.00  0.00     0.168 C 
HETATM   11  O   UNK N   1      34.340  15.630   6.965  0.00  0.00    -0.648 OA
BRANCH  10  12
HETATM   12  O   UNK N   1      34.429  17.815   6.593  0.00  0.00    -0.775 OA
HETATM   13  H   UNK N   1      34.023  18.162   5.821  0.00  0.00     0.167 HD
ENDBRANCH  10  12
ENDBRANCH   8  10
BRANCH   8  14
HETATM   14  N   UNK N   1      34.189  17.173   9.700  0.00  0.00    -0.413 N 
HETATM   15  H   UNK N   1      35.093  17.296  10.158  0.00  0.00     0.151 HD
HETATM   16  H   UNK N   1      33.551  17.265  10.490  0.00  0.00     0.151 HD
ENDBRANCH   8  14
ENDBRANCH   7   8
ENDBRANCH   3   7
BRANCH   6  17
HETATM   17  O   UNK N   1      27.528  18.020   9.471  0.00  0.00    -0.358 OA
HETATM   18  H   UNK N   1      27.318  18.904   9.699  0.00  0.00     0.217 HD
ENDBRANCH   6  17
BRANCH   2  19
HETATM   19  O   UNK N   1      26.994  16.896   7.006  0.00  0.00    -0.358 OA
HETATM   20  H   UNK N   1      26.622  16.038   7.059  0.00  0.00     0.217 HD
ENDBRANCH   2  19
TORSDOF 7
ENDMDL
MODEL 4
REMARK VINA RESULT:      -5.4      8.010     10.144
REMARK  7 active torsions:
REMARK  status: ('A' for Active; 'I' for Inactive)
REMARK    1  A    between atoms: O_11  and  C_2 
REMARK    2  A    between atoms: C_9  and  C_3 
REMARK    3  A    between atoms: C_6  and  C_8 
REMARK    4  A    between atoms: O_10  and  C_6 
REMARK    5  A    between atoms: C_8  and  C_9 
REMARK    6  A    between atoms: C_8  and  N_15 
REMARK    7  A    between atoms: C_12  and  O_13 
ROOT
HETATM    1  C   UNK N   1      33.827  15.713   9.553  0.00  0.00     0.040 A 
HETATM    2  C   UNK N   1      34.718  16.770   9.363  0.00  0.00     0.098 A 
HETATM    3  C   UNK N   1      32.109  16.947   8.368  0.00  0.00    -0.052 A 
HETATM    4  C   UNK N   1      33.013  17.995   8.163  0.00  0.00     0.046 A 
HETATM    5  C   UNK N   1      32.518  15.803   9.062  0.00  0.00     0.010 A 
HETATM    6  C   UNK N   1      34.315  17.916   8.664  0.00  0.00     0.099 A 
ENDROOT
BRANCH   3   7
HETATM    7  C   UNK N   1      30.678  17.074   7.926  0.00  0.00     0.080 C 
BRANCH   7   8
HETATM    8  C   UNK N   1      29.751  17.621   9.031  0.00  0.00     0.110 C 
HETATM    9  C   UNK N   1      30.161  19.051   9.361  0.00  0.00     0.050 C 
BRANCH   8  10
HETATM   10  C   UNK N   1      28.317  17.580   8.566  0.00  0.00     0.168 C 
HETATM   11  O   UNK N   1      28.037  17.034   7.511  0.00  0.00    -0.648 OA
BRANCH  10  12
HETATM   12  O   UNK N   1      27.332  18.110   9.318  0.00  0.00    -0.775 OA
HETATM   13  H   UNK N   1      26.586  18.607   9.041  0.00  0.00     0.167 HD
ENDBRANCH  10  12
ENDBRANCH   8  10
BRANCH   8  14
HETATM   14  N   UNK N   1      29.862  16.810  10.236  0.00  0.00    -0.413 N 
HETATM   15  H   UNK N   1      30.032  15.976  10.797  0.00  0.00     0.151 HD
HETATM   16  H   UNK N   1      29.625  17.491  10.957  0.00  0.00     0.151 HD
ENDBRANCH   8  14
ENDBRANCH   7   8
ENDBRANCH   3   7
BRANCH   6  17
HETATM   17  O   UNK N   1      35.158  18.942   8.484  0.00  0.00    -0.358 OA
HETATM   18  H   UNK N   1      34.849  19.799   8.261  0.00  0.00     0.217 HD
ENDBRANCH   6  17
BRANCH   2  19
HETATM   19  O   UNK N   1      35.967  16.690   9.861  0.00  0.00    -0.358 OA
HETATM   20  H   UNK N   1      36.249  15.979  10.403  0.00  0.00     0.217 HD
ENDBRANCH   2  19
TORSDOF 7
ENDMDL
MODEL 5
REMARK VINA RESULT:      -5.2      1.497      2.159
REMARK  7 active torsions:
REMARK  status: ('A' for Active; 'I' for Inactive)
REMARK    1  A    between atoms: O_11  and  C_2 
REMARK    2  A    between atoms: C_9  and  C_3 
REMARK    3  A    between atoms: C_6  and  C_8 
REMARK    4  A    between atoms: O_10  and  C_6 
REMARK    5  A    between atoms: C_8  and  C_9 
REMARK    6  A    between atoms: C_8  and  N_15 
REMARK    7  A    between atoms: C_12  and  O_13 
ROOT
HETATM    1  C   UNK N   1      35.253  13.127  19.111  0.00  0.00     0.040 A 
HETATM    2  C   UNK N   1      35.453  11.781  19.423  0.00  0.00     0.098 A 
HETATM    3  C   UNK N   1      35.087  12.558  16.761  0.00  0.00    -0.052 A 
HETATM    4  C   UNK N   1      35.267  11.208  17.082  0.00  0.00     0.046 A 
HETATM    5  C   UNK N   1      35.077  13.518  17.778  0.00  0.00     0.010 A 
HETATM    6  C   UNK N   1      35.458  10.814  18.409  0.00  0.00     0.099 A 
ENDROOT
BRANCH   3   7
HETATM    7  C   UNK N   1      34.990  12.997  15.326  0.00  0.00     0.080 C 
BRANCH   7   8
HETATM    8  C   UNK N   1      36.368  13.222  14.670  0.00  0.00     0.110 C 
HETATM    9  C   UNK N   1      37.159  11.920  14.717  0.00  0.00     0.050 C 
BRANCH   8  10
HETATM   10  C   UNK N   1      36.189  13.677  13.244  0.00  0.00     0.168 C 
HETATM   11  O   UNK N   1      35.093  14.056  12.860  0.00  0.00    -0.648 OA
BRANCH  10  12
HETATM   12  O   UNK N   1      37.233  13.703  12.391  0.00  0.00    -0.775 OA
HETATM   13  H   UNK N   1      37.510  14.398  11.825  0.00  0.00     0.167 HD
ENDBRANCH  10  12
ENDBRANCH   8  10
BRANCH   8  14
HETATM   14  N   UNK N   1      37.110  14.250  15.385  0.00  0.00    -0.413 N 
HETATM   15  H   UNK N   1      37.915  14.819  15.650  0.00  0.00     0.151 HD
HETATM   16  H   UNK N   1      36.385  14.637  15.989  0.00  0.00     0.151 HD
ENDBRANCH   8  14
ENDBRANCH   7   8
ENDBRANCH   3   7
BRANCH   6  17
HETATM   17  O   UNK N   1      35.658   9.520  18.694  0.00  0.00    -0.358 OA
HETATM   18  H   UNK N   1      35.140   8.845  18.303  0.00  0.00     0.217 HD
ENDBRANCH   6  17
BRANCH   2  19
HETATM   19  O   UNK N   1      35.649  11.413  20.704  0.00  0.00    -0.358 OA
HETATM   20  H   UNK N   1      35.587  12.017  21.418  0.00  0.00     0.217 HD
ENDBRANCH   2  19
TORSDOF 7
ENDMDL
MODEL 6
REMARK VINA RESULT:      -5.2      1.710      2.073
REMARK  7 active torsions:
REMARK  status: ('A' for Active; 'I' for Inactive)
REMARK    1  A    between atoms: O_11  and  C_2 
REMARK    2  A    between atoms: C_9  and  C_3 
REMARK    3  A    between atoms: C_6  and  C_8 
REMARK    4  A    between atoms: O_10  and  C_6 
REMARK    5  A    between atoms: C_8  and  C_9 
REMARK    6  A    between atoms: C_8  and  N_15 
REMARK    7  A    between atoms: C_12  and  O_13 
ROOT
HETATM    1  C   UNK N   1      35.936  10.660  18.362  0.00  0.00     0.040 A 
HETATM    2  C   UNK N   1      35.646  11.473  19.460  0.00  0.00     0.098 A 
HETATM    3  C   UNK N   1      35.227  12.428  16.863  0.00  0.00    -0.052 A 
HETATM    4  C   UNK N   1      34.957  13.246  17.966  0.00  0.00     0.046 A 
HETATM    5  C   UNK N   1      35.719  11.134  17.063  0.00  0.00     0.010 A 
HETATM    6  C   UNK N   1      35.158  12.772  19.266  0.00  0.00     0.099 A 
ENDROOT
BRANCH   3   7
HETATM    7  C   UNK N   1      34.910  12.894  15.470  0.00  0.00     0.080 C 
BRANCH   7   8
HETATM    8  C   UNK N   1      36.157  13.359  14.691  0.00  0.00     0.110 C 
HETATM    9  C   UNK N   1      37.024  14.216  15.606  0.00  0.00     0.050 C 
BRANCH   8  10
HETATM   10  C   UNK N   1      36.933  12.162  14.203  0.00  0.00     0.168 C 
HETATM   11  O   UNK N   1      36.370  11.300  13.545  0.00  0.00    -0.648 OA
BRANCH  10  12
HETATM   12  O   UNK N   1      38.253  12.045  14.453  0.00  0.00    -0.775 OA
HETATM   13  H   UNK N   1      38.865  12.713  14.695  0.00  0.00     0.167 HD
ENDBRANCH  10  12
ENDBRANCH   8  10
BRANCH   8  14
HETATM   14  N   UNK N   1      35.768  14.151  13.533  0.00  0.00    -0.413 N 
HETATM   15  H   UNK N   1      35.237  14.402  12.698  0.00  0.00     0.151 HD
HETATM   16  H   UNK N   1      36.425  14.928  13.593  0.00  0.00     0.151 HD
ENDBRANCH   8  14
ENDBRANCH   7   8
ENDBRANCH   3   7
BRANCH   6  17
HETATM   17  O   UNK N   1      34.867  13.559  20.310  0.00  0.00    -0.358 OA
HETATM   18  H   UNK N   1      35.537  13.914  20.861  0.00  0.00     0.217 HD
ENDBRANCH   6  17
BRANCH   2  19
HETATM   19  O   UNK N   1      35.830  11.003  20.708  0.00  0.00    -0.358 OA
HETATM   20  H   UNK N   1      35.288  11.258  21.429  0.00  0.00     0.217 HD
ENDBRANCH   2  19
TORSDOF 7
ENDMDL
MODEL 7
REMARK VINA RESULT:      -5.2      8.239     10.648
REMARK  7 active torsions:
REMARK  status: ('A' for Active; 'I' for Inactive)
REMARK    1  A    between atoms: O_11  and  C_2 
REMARK    2  A    between atoms: C_9  and  C_3 
REMARK    3  A    between atoms: C_6  and  C_8 
REMARK    4  A    between atoms: O_10  and  C_6 
REMARK    5  A    between atoms: C_8  and  C_9 
REMARK    6  A    between atoms: C_8  and  N_15 
REMARK    7  A    between atoms: C_12  and  O_13 
ROOT
HETATM    1  C   UNK N   1      33.915  16.027   9.340  0.00  0.00     0.040 A 
HETATM    2  C   UNK N   1      34.709  17.175   9.379  0.00  0.00     0.098 A 
HETATM    3  C   UNK N   1      32.810  16.858   7.349  0.00  0.00    -0.052 A 
HETATM    4  C   UNK N   1      33.623  17.997   7.381  0.00  0.00     0.046 A 
HETATM    5  C   UNK N   1      32.959  15.871   8.329  0.00  0.00     0.010 A 
HETATM    6  C   UNK N   1      34.568  18.164   8.396  0.00  0.00     0.099 A 
ENDROOT
BRANCH   3   7
HETATM    7  C   UNK N   1      31.719  16.726   6.323  0.00  0.00     0.080 C 
BRANCH   7   8
HETATM    8  C   UNK N   1      32.191  16.038   5.026  0.00  0.00     0.110 C 
HETATM    9  C   UNK N   1      31.211  14.927   4.668  0.00  0.00     0.050 C 
BRANCH   8  10
HETATM   10  C   UNK N   1      32.270  17.047   3.909  0.00  0.00     0.168 C 
HETATM   11  O   UNK N   1      33.031  16.857   2.972  0.00  0.00    -0.648 OA
BRANCH  10  12
HETATM   12  O   UNK N   1      31.487  18.145   3.911  0.00  0.00    -0.775 OA
HETATM   13  H   UNK N   1      31.387  18.792   4.582  0.00  0.00     0.167 HD
ENDBRANCH  10  12
ENDBRANCH   8  10
BRANCH   8  14
HETATM   14  N   UNK N   1      33.513  15.458   5.210  0.00  0.00    -0.413 N 
HETATM   15  H   UNK N   1      34.262  14.950   5.681  0.00  0.00     0.151 HD
HETATM   16  H   UNK N   1      33.967  15.715   4.333  0.00  0.00     0.151 HD
ENDBRANCH   8  14
ENDBRANCH   7   8
ENDBRANCH   3   7
BRANCH   6  17
HETATM   17  O   UNK N   1      35.317  19.275   8.428  0.00  0.00    -0.358 OA
HETATM   18  H   UNK N   1      34.971  20.109   8.178  0.00  0.00     0.217 HD
ENDBRANCH   6  17
BRANCH   2  19
HETATM   19  O   UNK N   1      35.608  17.333  10.369  0.00  0.00    -0.358 OA
HETATM   20  H   UNK N   1      35.405  17.777  11.169  0.00  0.00     0.217 HD
ENDBRANCH   2  19
TORSDOF 7
ENDMDL
MODEL 8
REMARK VINA RESULT:      -5.1     18.404     20.631
REMARK  7 active torsions:
REMARK  status: ('A' for Active; 'I' for Inactive)
REMARK    1  A    between atoms: O_11  and  C_2 
REMARK    2  A    between atoms: C_9  and  C_3 
REMARK    3  A    between atoms: C_6  and  C_8 
REMARK    4  A    between atoms: O_10  and  C_6 
REMARK    5  A    between atoms: C_8  and  C_9 
REMARK    6  A    between atoms: C_8  and  N_15 
REMARK    7  A    between atoms: C_12  and  O_13 
ROOT
HETATM    1  C   UNK N   1      20.729  20.290   2.363  0.00  0.00     0.040 A 
HETATM    2  C   UNK N   1      20.615  19.757   1.077  0.00  0.00     0.098 A 
HETATM    3  C   UNK N   1      20.389  18.084   3.309  0.00  0.00    -0.052 A 
HETATM    4  C   UNK N   1      20.296  17.552   2.018  0.00  0.00     0.046 A 
HETATM    5  C   UNK N   1      20.609  19.455   3.480  0.00  0.00     0.010 A 
HETATM    6  C   UNK N   1      20.401  18.383   0.899  0.00  0.00     0.099 A 
ENDROOT
BRANCH   3   7
HETATM    7  C   UNK N   1      20.169  17.212   4.513  0.00  0.00     0.080 C 
BRANCH   7   8
HETATM    8  C   UNK N   1      21.483  16.780   5.194  0.00  0.00     0.110 C 
HETATM    9  C   UNK N   1      22.460  16.297   4.129  0.00  0.00     0.050 C 
BRANCH   8  10
HETATM   10  C   UNK N   1      22.071  17.940   5.958  0.00  0.00     0.168 C 
HETATM   11  O   UNK N   1      21.405  18.506   6.811  0.00  0.00    -0.648 OA
BRANCH  10  12
HETATM   12  O   UNK N   1      23.339  18.342   5.735  0.00  0.00    -0.775 OA
HETATM   13  H   UNK N   1      23.874  18.909   6.257  0.00  0.00     0.167 HD
ENDBRANCH  10  12
ENDBRANCH   8  10
BRANCH   8  14
HETATM   14  N   UNK N   1      21.237  15.696   6.134  0.00  0.00    -0.413 N 
HETATM   15  H   UNK N   1      21.464  14.953   6.796  0.00  0.00     0.151 HD
HETATM   16  H   UNK N   1      20.218  15.651   6.125  0.00  0.00     0.151 HD
ENDBRANCH   8  14
ENDBRANCH   7   8
ENDBRANCH   3   7
BRANCH   6  17
HETATM   17  O   UNK N   1      20.279  17.860  -0.328  0.00  0.00    -0.358 OA
HETATM   18  H   UNK N   1      19.455  17.558  -0.655  0.00  0.00     0.217 HD
ENDBRANCH   6  17
BRANCH   2  19
HETATM   19  O   UNK N   1      20.704  20.568   0.006  0.00  0.00    -0.358 OA
HETATM   20  H   UNK N   1      20.263  20.388  -0.801  0.00  0.00     0.217 HD
ENDBRANCH   2  19
TORSDOF 7
ENDMDL
MODEL 9
REMARK VINA RESULT:      -5.1      7.871     11.236
REMARK  7 active torsions:
REMARK  status: ('A' for Active; 'I' for Inactive)
REMARK    1  A    between atoms: O_11  and  C_2 
REMARK    2  A    between atoms: C_9  and  C_3 
REMARK    3  A    between atoms: C_6  and  C_8 
REMARK    4  A    between atoms: O_10  and  C_6 
REMARK    5  A    between atoms: C_8  and  C_9 
REMARK    6  A    between atoms: C_8  and  N_15 
REMARK    7  A    between atoms: C_12  and  O_13 
ROOT
HETATM    1  C   UNK N   1      32.718  17.476   4.600  0.00  0.00     0.040 A 
HETATM    2  C   UNK N   1      31.337  17.279   4.649  0.00  0.00     0.098 A 
HETATM    3  C   UNK N   1      32.802  17.501   7.023  0.00  0.00    -0.052 A 
HETATM    4  C   UNK N   1      31.420  17.284   7.066  0.00  0.00     0.046 A 
HETATM    5  C   UNK N   1      33.451  17.594   5.787  0.00  0.00     0.010 A 
HETATM    6  C   UNK N   1      30.681  17.179   5.884  0.00  0.00     0.099 A 
ENDROOT
BRANCH   3   7
HETATM    7  C   UNK N   1      33.582  17.722   8.288  0.00  0.00     0.080 C 
BRANCH   7   8
HETATM    8  C   UNK N   1      33.951  16.408   9.007  0.00  0.00     0.110 C 
HETATM    9  C   UNK N   1      34.652  15.482   8.020  0.00  0.00     0.050 C 
BRANCH   8  10
HETATM   10  C   UNK N   1      34.851  16.700  10.181  0.00  0.00     0.168 C 
HETATM   11  O   UNK N   1      35.628  17.641  10.131  0.00  0.00    -0.648 OA
BRANCH  10  12
HETATM   12  O   UNK N   1      34.786  15.956  11.303  0.00  0.00    -0.775 OA
HETATM   13  H   UNK N   1      34.028  15.689  11.787  0.00  0.00     0.167 HD
ENDBRANCH  10  12
ENDBRANCH   8  10
BRANCH   8  14
HETATM   14  N   UNK N   1      32.754  15.746   9.505  0.00  0.00    -0.413 N 
HETATM   15  H   UNK N   1      32.038  15.477  10.180  0.00  0.00     0.151 HD
HETATM   16  H   UNK N   1      32.441  15.248   8.672  0.00  0.00     0.151 HD
ENDBRANCH   8  14
ENDBRANCH   7   8
ENDBRANCH   3   7
BRANCH   6  17
HETATM   17  O   UNK N   1      29.355  17.001   5.945  0.00  0.00    -0.358 OA
HETATM   18  H   UNK N   1      28.940  16.262   5.545  0.00  0.00     0.217 HD
ENDBRANCH   6  17
BRANCH   2  19
HETATM   19  O   UNK N   1      30.632  17.194   3.505  0.00  0.00    -0.358 OA
HETATM   20  H   UNK N   1      30.026  16.499   3.336  0.00  0.00     0.217 HD
ENDBRANCH   2  19
TORSDOF 7
ENDMDL
