MODEL 1
REMARK VINA RESULT:      -7.3      0.000      0.000
REMARK  7 active torsions:
REMARK  status: ('A' for Active; 'I' for Inactive)
REMARK    1  A    between atoms: C_6  and  C_8 
REMARK    2  A    between atoms: C_14  and  O_16 
REMARK    3  A    between atoms: C_25  and  C_18 
REMARK    4  A    between atoms: C_18  and  C_19 
REMARK    5  A    between atoms: C_19  and  C_20 
REMARK    6  A    between atoms: C_20  and  C_24 
REMARK    7  A    between atoms: C_24  and  C_22 
ROOT
HETATM    1  C   UNK N   1      29.167  26.187  -4.672  0.00  0.00     0.010 C 
HETATM    2  C   UNK N   1      29.251  23.399  -5.606  0.00  0.00    -0.075 C 
HETATM    3  C   UNK N   1      26.666  23.549  -5.651  0.00  0.00     0.010 C 
HETATM    4  C   UNK N   1      25.694  24.674  -5.259  0.00  0.00     0.006 C 
HETATM    5  C   UNK N   1      30.507  25.501  -5.078  0.00  0.00     0.005 C 
HETATM    6  C   UNK N   1      29.374  22.072  -5.507  0.00  0.00     0.004 C 
HETATM    7  C   UNK N   1      30.373  24.302  -6.051  0.00  0.00     0.034 C 
HETATM    8  C   UNK N   1      26.559  25.826  -4.716  0.00  0.00    -0.002 C 
HETATM    9  C   UNK N   1      27.992  24.034  -5.099  0.00  0.00     0.023 C 
HETATM   10  C   UNK N   1      27.942  25.542  -5.338  0.00  0.00    -0.033 C 
HETATM   11  C   UNK N   1      27.955  25.893  -6.837  0.00  0.00     0.016 C 
ENDROOT
BRANCH   6  12
HETATM   12  C   UNK N   1      30.566  21.286  -5.861  0.00  0.00     0.008 C 
HETATM   13  C   UNK N   1      31.562  21.019  -4.990  0.00  0.00    -0.050 C 
HETATM   14  C   UNK N   1      31.577  21.460  -3.540  0.00  0.00    -0.061 C 
HETATM   15  C   UNK N   1      32.735  20.241  -5.531  0.00  0.00     0.070 C 
HETATM   16  C   UNK N   1      32.777  21.205  -2.670  0.00  0.00     0.041 C 
HETATM   17  C   UNK N   1      30.528  22.042  -2.956  0.00  0.00     0.019 C 
HETATM   18  C   UNK N   1      34.009  20.767  -3.450  0.00  0.00     0.036 C 
HETATM   19  C   UNK N   1      33.641  19.680  -4.440  0.00  0.00     0.122 C 
BRANCH  19  20
HETATM   20  O   UNK N   1      34.801  19.166  -5.019  0.00  0.00    -0.395 OA
HETATM   21  H   UNK N   1      35.438  19.762  -5.444  0.00  0.00     0.210 HD
ENDBRANCH  19  20
ENDBRANCH   6  12
BRANCH   8  22
HETATM   22  C   UNK N   1      25.905  27.210  -4.902  0.00  0.00    -0.014 C 
HETATM   23  C   UNK N   1      24.609  27.135  -5.689  0.00  0.00     0.010 C 
BRANCH  22  24
HETATM   24  C   UNK N   1      25.715  28.023  -3.627  0.00  0.00     0.005 C 
BRANCH  24  25
HETATM   25  C   UNK N   1      26.886  28.981  -3.438  0.00  0.00     0.001 C 
BRANCH  25  26
HETATM   26  C   UNK N   1      26.862  30.084  -4.487  0.00  0.00     0.004 C 
BRANCH  26  27
HETATM   27  C   UNK N   1      28.232  30.282  -5.120  0.00  0.00    -0.023 C 
HETATM   28  C   UNK N   1      29.328  29.801  -4.187  0.00  0.00     0.009 C 
HETATM   29  C   UNK N   1      28.304  29.495  -6.412  0.00  0.00     0.009 C 
ENDBRANCH  26  27
ENDBRANCH  25  26
ENDBRANCH  24  25
ENDBRANCH  22  24
ENDBRANCH   8  22
TORSDOF 7
ENDMDL
MODEL 2
REMARK VINA RESULT:      -7.0     21.392     26.175
REMARK  7 active torsions:
REMARK  status: ('A' for Active; 'I' for Inactive)
REMARK    1  A    between atoms: C_6  and  C_8 
REMARK    2  A    between atoms: C_14  and  O_16 
REMARK    3  A    between atoms: C_25  and  C_18 
REMARK    4  A    between atoms: C_18  and  C_19 
REMARK    5  A    between atoms: C_19  and  C_20 
REMARK    6  A    between atoms: C_20  and  C_24 
REMARK    7  A    between atoms: C_24  and  C_22 
ROOT
HETATM    1  C   UNK N   1      35.363  11.835  18.031  0.00  0.00     0.010 C 
HETATM    2  C   UNK N   1      36.033  12.592  15.268  0.00  0.00    -0.075 C 
HETATM    3  C   UNK N   1      36.925  10.171  15.037  0.00  0.00     0.010 C 
HETATM    4  C   UNK N   1      37.031   9.013  16.042  0.00  0.00     0.006 C 
HETATM    5  C   UNK N   1      34.881  13.182  17.413  0.00  0.00     0.005 C 
HETATM    6  C   UNK N   1      36.738  13.160  14.286  0.00  0.00     0.004 C 
HETATM    7  C   UNK N   1      34.796  13.212  15.865  0.00  0.00     0.034 C 
HETATM    8  C   UNK N   1      36.526   9.560  17.389  0.00  0.00    -0.002 C 
HETATM    9  C   UNK N   1      36.588  11.359  15.916  0.00  0.00     0.023 C 
HETATM   10  C   UNK N   1      35.656  10.763  16.969  0.00  0.00    -0.033 C 
HETATM   11  C   UNK N   1      34.320  10.292  16.363  0.00  0.00     0.016 C 
ENDROOT
BRANCH   6  12
HETATM   12  C   UNK N   1      36.403  14.418  13.600  0.00  0.00     0.008 C 
HETATM   13  C   UNK N   1      35.816  14.466  12.385  0.00  0.00    -0.050 C 
HETATM   14  C   UNK N   1      35.400  13.248  11.584  0.00  0.00    -0.061 C 
HETATM   15  C   UNK N   1      35.587  15.838  11.805  0.00  0.00     0.070 C 
HETATM   16  C   UNK N   1      34.845  13.394  10.194  0.00  0.00     0.041 C 
HETATM   17  C   UNK N   1      35.456  12.010  12.078  0.00  0.00     0.019 C 
HETATM   18  C   UNK N   1      35.036  14.787   9.609  0.00  0.00     0.036 C 
HETATM   19  C   UNK N   1      34.625  15.839  10.620  0.00  0.00     0.122 C 
BRANCH  19  20
HETATM   20  O   UNK N   1      34.636  17.094  10.015  0.00  0.00    -0.395 OA
HETATM   21  H   UNK N   1      34.686  17.897  10.559  0.00  0.00     0.210 HD
ENDBRANCH  19  20
ENDBRANCH   6  12
BRANCH   8  22
HETATM   22  C   UNK N   1      35.932   8.466  18.299  0.00  0.00    -0.014 C 
HETATM   23  C   UNK N   1      36.277   7.067  17.821  0.00  0.00     0.010 C 
BRANCH  22  24
HETATM   24  C   UNK N   1      36.229   8.616  19.787  0.00  0.00     0.005 C 
BRANCH  24  25
HETATM   25  C   UNK N   1      35.063   9.305  20.486  0.00  0.00     0.001 C 
BRANCH  25  26
HETATM   26  C   UNK N   1      33.746   8.986  19.793  0.00  0.00     0.004 C 
BRANCH  26  27
HETATM   27  C   UNK N   1      32.634   8.726  20.800  0.00  0.00    -0.023 C 
HETATM   28  C   UNK N   1      32.483   9.903  21.746  0.00  0.00     0.009 C 
HETATM   29  C   UNK N   1      31.328   8.518  20.060  0.00  0.00     0.009 C 
ENDBRANCH  26  27
ENDBRANCH  25  26
ENDBRANCH  24  25
ENDBRANCH  22  24
ENDBRANCH   8  22
TORSDOF 7
ENDMDL
MODEL 3
REMARK VINA RESULT:      -6.9     11.267     14.807
REMARK  7 active torsions:
REMARK  status: ('A' for Active; 'I' for Inactive)
REMARK    1  A    between atoms: C_6  and  C_8 
REMARK    2  A    between atoms: C_14  and  O_16 
REMARK    3  A    between atoms: C_25  and  C_18 
REMARK    4  A    between atoms: C_18  and  C_19 
REMARK    5  A    between atoms: C_19  and  C_20 
REMARK    6  A    between atoms: C_20  and  C_24 
REMARK    7  A    between atoms: C_24  and  C_22 
ROOT
HETATM    1  C   UNK N   1      28.075  19.499   4.314  0.00  0.00     0.010 C 
HETATM    2  C   UNK N   1      25.368  18.456   4.806  0.00  0.00    -0.075 C 
HETATM    3  C   UNK N   1      26.564  16.467   5.957  0.00  0.00     0.010 C 
HETATM    4  C   UNK N   1      28.051  16.129   6.142  0.00  0.00     0.006 C 
HETATM    5  C   UNK N   1      26.804  20.359   4.036  0.00  0.00     0.005 C 
HETATM    6  C   UNK N   1      24.211  17.855   4.517  0.00  0.00     0.004 C 
HETATM    7  C   UNK N   1      25.538  19.954   4.833  0.00  0.00     0.034 C 
HETATM    8  C   UNK N   1      28.841  17.234   5.416  0.00  0.00    -0.002 C 
HETATM    9  C   UNK N   1      26.592  17.604   4.954  0.00  0.00     0.023 C 
HETATM   10  C   UNK N   1      27.832  18.399   5.358  0.00  0.00    -0.033 C 
HETATM   11  C   UNK N   1      27.673  19.059   6.741  0.00  0.00     0.016 C 
ENDROOT
BRANCH   6  12
HETATM   12  C   UNK N   1      22.933  18.529   4.243  0.00  0.00     0.008 C 
HETATM   13  C   UNK N   1      21.921  17.951   3.560  0.00  0.00    -0.050 C 
HETATM   14  C   UNK N   1      21.951  16.536   3.016  0.00  0.00    -0.061 C 
HETATM   15  C   UNK N   1      20.698  18.800   3.326  0.00  0.00     0.070 C 
HETATM   16  C   UNK N   1      20.819  16.009   2.179  0.00  0.00     0.041 C 
HETATM   17  C   UNK N   1      22.942  15.684   3.285  0.00  0.00     0.019 C 
HETATM   18  C   UNK N   1      19.856  17.093   1.712  0.00  0.00     0.036 C 
HETATM   19  C   UNK N   1      19.484  17.996   2.871  0.00  0.00     0.122 C 
BRANCH  19  20
HETATM   20  O   UNK N   1      18.472  18.869   2.474  0.00  0.00    -0.395 OA
HETATM   21  H   UNK N   1      17.545  18.584   2.500  0.00  0.00     0.210 HD
ENDBRANCH  19  20
ENDBRANCH   6  12
BRANCH   8  22
HETATM   22  C   UNK N   1      30.244  17.463   6.015  0.00  0.00    -0.014 C 
HETATM   23  C   UNK N   1      30.471  16.654   7.279  0.00  0.00     0.010 C 
BRANCH  22  24
HETATM   24  C   UNK N   1      31.408  17.291   5.047  0.00  0.00     0.005 C 
BRANCH  24  25
HETATM   25  C   UNK N   1      32.498  16.437   5.685  0.00  0.00     0.001 C 
BRANCH  25  26
HETATM   26  C   UNK N   1      33.806  17.210   5.786  0.00  0.00     0.004 C 
BRANCH  26  27
HETATM   27  C   UNK N   1      34.333  17.231   7.213  0.00  0.00    -0.023 C 
HETATM   28  C   UNK N   1      33.665  18.334   8.014  0.00  0.00     0.009 C 
HETATM   29  C   UNK N   1      34.044  15.898   7.873  0.00  0.00     0.009 C 
ENDBRANCH  26  27
ENDBRANCH  25  26
ENDBRANCH  24  25
ENDBRANCH  22  24
ENDBRANCH   8  22
TORSDOF 7
ENDMDL
MODEL 4
REMARK VINA RESULT:      -6.8     11.253     14.725
REMARK  7 active torsions:
REMARK  status: ('A' for Active; 'I' for Inactive)
REMARK    1  A    between atoms: C_6  and  C_8 
REMARK    2  A    between atoms: C_14  and  O_16 
REMARK    3  A    between atoms: C_25  and  C_18 
REMARK    4  A    between atoms: C_18  and  C_19 
REMARK    5  A    between atoms: C_19  and  C_20 
REMARK    6  A    between atoms: C_20  and  C_24 
REMARK    7  A    between atoms: C_24  and  C_22 
ROOT
HETATM    1  C   UNK N   1      27.472  14.930   5.146  0.00  0.00     0.010 C 
HETATM    2  C   UNK N   1      25.394  16.878   4.413  0.00  0.00    -0.075 C 
HETATM    3  C   UNK N   1      27.307  18.624   4.439  0.00  0.00     0.010 C 
HETATM    4  C   UNK N   1      28.801  18.507   4.779  0.00  0.00     0.006 C 
HETATM    5  C   UNK N   1      26.034  14.479   4.748  0.00  0.00     0.005 C 
HETATM    6  C   UNK N   1      24.363  17.706   4.604  0.00  0.00     0.004 C 
HETATM    7  C   UNK N   1      25.242  15.480   3.869  0.00  0.00     0.034 C 
HETATM    8  C   UNK N   1      29.036  17.048   5.210  0.00  0.00    -0.002 C 
HETATM    9  C   UNK N   1      26.743  17.298   4.912  0.00  0.00     0.023 C 
HETATM   10  C   UNK N   1      27.848  16.302   4.567  0.00  0.00    -0.033 C 
HETATM   11  C   UNK N   1      28.046  16.159   3.046  0.00  0.00     0.016 C 
ENDROOT
BRANCH   6  12
HETATM   12  C   UNK N   1      22.958  17.427   4.270  0.00  0.00     0.008 C 
HETATM   13  C   UNK N   1      22.150  18.320   3.660  0.00  0.00    -0.050 C 
HETATM   14  C   UNK N   1      22.581  19.703   3.214  0.00  0.00    -0.061 C 
HETATM   15  C   UNK N   1      20.723  17.890   3.434  0.00  0.00     0.070 C 
HETATM   16  C   UNK N   1      21.586  20.671   2.634  0.00  0.00     0.041 C 
HETATM   17  C   UNK N   1      23.851  20.112   3.266  0.00  0.00     0.019 C 
HETATM   18  C   UNK N   1      20.139  20.239   2.828  0.00  0.00     0.036 C 
HETATM   19  C   UNK N   1      19.973  18.781   2.450  0.00  0.00     0.122 C 
BRANCH  19  20
HETATM   20  O   UNK N   1      18.619  18.449   2.462  0.00  0.00    -0.395 OA
HETATM   21  H   UNK N   1      18.157  18.255   1.631  0.00  0.00     0.210 HD
ENDBRANCH  19  20
ENDBRANCH   6  12
BRANCH   8  22
HETATM   22  C   UNK N   1      30.477  16.566   4.946  0.00  0.00    -0.014 C 
HETATM   23  C   UNK N   1      31.316  17.615   4.239  0.00  0.00     0.010 C 
BRANCH  22  24
HETATM   24  C   UNK N   1      31.216  16.009   6.157  0.00  0.00     0.005 C 
BRANCH  24  25
HETATM   25  C   UNK N   1      30.402  16.249   7.423  0.00  0.00     0.001 C 
BRANCH  25  26
HETATM   26  C   UNK N   1      30.774  17.578   8.066  0.00  0.00     0.004 C 
BRANCH  26  27
HETATM   27  C   UNK N   1      29.541  18.329   8.547  0.00  0.00    -0.023 C 
HETATM   28  C   UNK N   1      28.317  17.433   8.506  0.00  0.00     0.009 C 
HETATM   29  C   UNK N   1      29.763  18.795   9.972  0.00  0.00     0.009 C 
ENDBRANCH  26  27
ENDBRANCH  25  26
ENDBRANCH  24  25
ENDBRANCH  22  24
ENDBRANCH   8  22
TORSDOF 7
ENDMDL
MODEL 5
REMARK VINA RESULT:      -6.8      1.707      2.675
REMARK  7 active torsions:
REMARK  status: ('A' for Active; 'I' for Inactive)
REMARK    1  A    between atoms: C_6  and  C_8 
REMARK    2  A    between atoms: C_14  and  O_16 
REMARK    3  A    between atoms: C_25  and  C_18 
REMARK    4  A    between atoms: C_18  and  C_19 
REMARK    5  A    between atoms: C_19  and  C_20 
REMARK    6  A    between atoms: C_20  and  C_24 
REMARK    7  A    between atoms: C_24  and  C_22 
ROOT
HETATM    1  C   UNK N   1      29.101  25.989  -4.295  0.00  0.00     0.010 C 
HETATM    2  C   UNK N   1      29.264  23.335  -5.554  0.00  0.00    -0.075 C 
HETATM    3  C   UNK N   1      26.706  23.563  -5.894  0.00  0.00     0.010 C 
HETATM    4  C   UNK N   1      25.708  24.658  -5.485  0.00  0.00     0.006 C 
HETATM    5  C   UNK N   1      30.472  25.320  -4.618  0.00  0.00     0.005 C 
HETATM    6  C   UNK N   1      29.356  22.004  -5.608  0.00  0.00     0.004 C 
HETATM    7  C   UNK N   1      30.444  24.254  -5.743  0.00  0.00     0.034 C 
HETATM    8  C   UNK N   1      26.514  25.709  -4.701  0.00  0.00    -0.002 C 
HETATM    9  C   UNK N   1      27.960  23.939  -5.129  0.00  0.00     0.023 C 
HETATM   10  C   UNK N   1      27.960  25.465  -5.180  0.00  0.00    -0.033 C 
HETATM   11  C   UNK N   1      28.163  25.998  -6.611  0.00  0.00     0.016 C 
ENDROOT
BRANCH   6  12
HETATM   12  C   UNK N   1      30.573  21.234  -5.911  0.00  0.00     0.008 C 
HETATM   13  C   UNK N   1      30.683  20.411  -6.975  0.00  0.00    -0.050 C 
HETATM   14  C   UNK N   1      29.595  20.192  -8.008  0.00  0.00    -0.061 C 
HETATM   15  C   UNK N   1      31.983  19.660  -7.111  0.00  0.00     0.070 C 
HETATM   16  C   UNK N   1      29.767  19.177  -9.105  0.00  0.00     0.041 C 
HETATM   17  C   UNK N   1      28.468  20.907  -8.027  0.00  0.00     0.019 C 
HETATM   18  C   UNK N   1      30.947  18.240  -8.883  0.00  0.00     0.036 C 
HETATM   19  C   UNK N   1      32.177  19.033  -8.488  0.00  0.00     0.122 C 
BRANCH  19  20
HETATM   20  O   UNK N   1      33.285  18.188  -8.461  0.00  0.00    -0.395 OA
HETATM   21  H   UNK N   1      33.574  17.789  -7.625  0.00  0.00     0.210 HD
ENDBRANCH  19  20
ENDBRANCH   6  12
BRANCH   8  22
HETATM   22  C   UNK N   1      25.905  27.124  -4.790  0.00  0.00    -0.014 C 
HETATM   23  C   UNK N   1      24.639  27.156  -5.626  0.00  0.00     0.010 C 
BRANCH  22  24
HETATM   24  C   UNK N   1      25.691  27.832  -3.457  0.00  0.00     0.005 C 
BRANCH  24  25
HETATM   25  C   UNK N   1      26.750  28.911  -3.261  0.00  0.00     0.001 C 
BRANCH  25  26
HETATM   26  C   UNK N   1      26.728  29.910  -4.409  0.00  0.00     0.004 C 
BRANCH  26  27
HETATM   27  C   UNK N   1      28.127  30.176  -4.945  0.00  0.00    -0.023 C 
HETATM   28  C   UNK N   1      29.176  29.590  -4.017  0.00  0.00     0.009 C 
HETATM   29  C   UNK N   1      28.269  29.540  -6.312  0.00  0.00     0.009 C 
ENDBRANCH  26  27
ENDBRANCH  25  26
ENDBRANCH  24  25
ENDBRANCH  22  24
ENDBRANCH   8  22
TORSDOF 7
ENDMDL
MODEL 6
REMARK VINA RESULT:      -6.7     15.284     20.369
REMARK  7 active torsions:
REMARK  status: ('A' for Active; 'I' for Inactive)
REMARK    1  A    between atoms: C_6  and  C_8 
REMARK    2  A    between atoms: C_14  and  O_16 
REMARK    3  A    between atoms: C_25  and  C_18 
REMARK    4  A    between atoms: C_18  and  C_19 
REMARK    5  A    between atoms: C_19  and  C_20 
REMARK    6  A    between atoms: C_20  and  C_24 
REMARK    7  A    between atoms: C_24  and  C_22 
ROOT
HETATM    1  C   UNK N   1      34.395  12.701  10.042  0.00  0.00     0.010 C 
HETATM    2  C   UNK N   1      34.792  15.200   8.543  0.00  0.00    -0.075 C 
HETATM    3  C   UNK N   1      35.669  16.166  10.781  0.00  0.00     0.010 C 
HETATM    4  C   UNK N   1      35.789  15.557  12.187  0.00  0.00     0.006 C 
HETATM    5  C   UNK N   1      34.244  12.756   8.491  0.00  0.00     0.005 C 
HETATM    6  C   UNK N   1      34.447  16.347   7.951  0.00  0.00     0.004 C 
HETATM    7  C   UNK N   1      35.002  13.911   7.790  0.00  0.00     0.034 C 
HETATM    8  C   UNK N   1      35.195  14.139  12.098  0.00  0.00    -0.002 C 
HETATM    9  C   UNK N   1      34.815  15.155  10.041  0.00  0.00     0.023 C 
HETATM   10  C   UNK N   1      35.298  13.815  10.593  0.00  0.00    -0.033 C 
HETATM   11  C   UNK N   1      36.754  13.512  10.193  0.00  0.00     0.016 C 
ENDROOT
BRANCH   6  12
HETATM   12  C   UNK N   1      34.277  16.555   6.504  0.00  0.00     0.008 C 
HETATM   13  C   UNK N   1      33.084  16.814   5.928  0.00  0.00    -0.050 C 
HETATM   14  C   UNK N   1      31.778  16.954   6.684  0.00  0.00    -0.061 C 
HETATM   15  C   UNK N   1      33.080  16.953   4.427  0.00  0.00     0.070 C 
HETATM   16  C   UNK N   1      30.479  17.142   5.949  0.00  0.00     0.041 C 
HETATM   17  C   UNK N   1      31.717  16.967   8.017  0.00  0.00     0.019 C 
HETATM   18  C   UNK N   1      30.586  16.875   4.453  0.00  0.00     0.036 C 
HETATM   19  C   UNK N   1      31.800  17.579   3.883  0.00  0.00     0.122 C 
BRANCH  19  20
HETATM   20  O   UNK N   1      31.788  17.474   2.492  0.00  0.00    -0.395 OA
HETATM   21  H   UNK N   1      31.112  17.941   1.975  0.00  0.00     0.210 HD
ENDBRANCH  19  20
ENDBRANCH   6  12
BRANCH   8  22
HETATM   22  C   UNK N   1      35.798  13.168  13.134  0.00  0.00    -0.014 C 
HETATM   23  C   UNK N   1      36.373  13.892  14.338  0.00  0.00     0.010 C 
BRANCH  22  24
HETATM   24  C   UNK N   1      34.887  12.028  13.574  0.00  0.00     0.005 C 
BRANCH  24  25
HETATM   25  C   UNK N   1      34.573  12.153  15.060  0.00  0.00     0.001 C 
BRANCH  25  26
HETATM   26  C   UNK N   1      34.409  10.780  15.699  0.00  0.00     0.004 C 
BRANCH  26  27
HETATM   27  C   UNK N   1      35.212  10.665  16.986  0.00  0.00    -0.023 C 
HETATM   28  C   UNK N   1      36.644  10.261  16.690  0.00  0.00     0.009 C 
HETATM   29  C   UNK N   1      35.214  12.003  17.697  0.00  0.00     0.009 C 
ENDBRANCH  26  27
ENDBRANCH  25  26
ENDBRANCH  24  25
ENDBRANCH  22  24
ENDBRANCH   8  22
TORSDOF 7
ENDMDL
MODEL 7
REMARK VINA RESULT:      -6.6     12.236     15.160
REMARK  7 active torsions:
REMARK  status: ('A' for Active; 'I' for Inactive)
REMARK    1  A    between atoms: C_6  and  C_8 
REMARK    2  A    between atoms: C_14  and  O_16 
REMARK    3  A    between atoms: C_25  and  C_18 
REMARK    4  A    between atoms: C_18  and  C_19 
REMARK    5  A    between atoms: C_19  and  C_20 
REMARK    6  A    between atoms: C_20  and  C_24 
REMARK    7  A    between atoms: C_24  and  C_22 
ROOT
HETATM    1  C   UNK N   1      27.812  17.160   8.200  0.00  0.00     0.010 C 
HETATM    2  C   UNK N   1      30.637  17.557   7.482  0.00  0.00    -0.075 C 
HETATM    3  C   UNK N   1      29.805  17.543   5.029  0.00  0.00     0.010 C 
HETATM    4  C   UNK N   1      28.410  17.336   4.418  0.00  0.00     0.006 C 
HETATM    5  C   UNK N   1      28.894  17.475   9.279  0.00  0.00     0.005 C 
HETATM    6  C   UNK N   1      31.910  17.215   7.264  0.00  0.00     0.004 C 
HETATM    7  C   UNK N   1      30.160  18.201   8.759  0.00  0.00     0.034 C 
HETATM    8  C   UNK N   1      27.459  17.048   5.593  0.00  0.00    -0.002 C 
HETATM    9  C   UNK N   1      29.608  17.136   6.477  0.00  0.00     0.023 C 
HETATM   10  C   UNK N   1      28.208  17.651   6.799  0.00  0.00    -0.033 C 
HETATM   11  C   UNK N   1      28.136  19.190   6.779  0.00  0.00     0.016 C 
ENDROOT
BRANCH   6  12
HETATM   12  C   UNK N   1      33.037  17.455   8.179  0.00  0.00     0.008 C 
HETATM   13  C   UNK N   1      33.736  16.462   8.769  0.00  0.00    -0.050 C 
HETATM   14  C   UNK N   1      33.480  14.984   8.551  0.00  0.00    -0.061 C 
HETATM   15  C   UNK N   1      34.830  16.885   9.717  0.00  0.00     0.070 C 
HETATM   16  C   UNK N   1      34.243  13.948   9.330  0.00  0.00     0.041 C 
HETATM   17  C   UNK N   1      32.617  14.531   7.640  0.00  0.00     0.019 C 
HETATM   18  C   UNK N   1      35.019  14.524  10.506  0.00  0.00     0.036 C 
HETATM   19  C   UNK N   1      35.791  15.754  10.070  0.00  0.00     0.122 C 
BRANCH  19  20
HETATM   20  O   UNK N   1      36.631  16.165  11.104  0.00  0.00    -0.395 OA
HETATM   21  H   UNK N   1      36.655  15.671  11.939  0.00  0.00     0.210 HD
ENDBRANCH  19  20
ENDBRANCH   6  12
BRANCH   8  22
HETATM   22  C   UNK N   1      26.003  17.468   5.306  0.00  0.00    -0.014 C 
HETATM   23  C   UNK N   1      25.866  18.218   3.994  0.00  0.00     0.010 C 
BRANCH  22  24
HETATM   24  C   UNK N   1      24.966  16.354   5.403  0.00  0.00     0.005 C 
BRANCH  24  25
HETATM   25  C   UNK N   1      25.646  14.995   5.287  0.00  0.00     0.001 C 
BRANCH  25  26
HETATM   26  C   UNK N   1      25.167  14.249   4.050  0.00  0.00     0.004 C 
BRANCH  26  27
HETATM   27  C   UNK N   1      26.319  13.939   3.104  0.00  0.00    -0.023 C 
HETATM   28  C   UNK N   1      26.538  15.083   2.132  0.00  0.00     0.009 C 
HETATM   29  C   UNK N   1      27.585  13.728   3.910  0.00  0.00     0.009 C 
ENDBRANCH  26  27
ENDBRANCH  25  26
ENDBRANCH  24  25
ENDBRANCH  22  24
ENDBRANCH   8  22
TORSDOF 7
ENDMDL
MODEL 8
REMARK VINA RESULT:      -6.6     18.882     23.015
REMARK  7 active torsions:
REMARK  status: ('A' for Active; 'I' for Inactive)
REMARK    1  A    between atoms: C_6  and  C_8 
REMARK    2  A    between atoms: C_14  and  O_16 
REMARK    3  A    between atoms: C_25  and  C_18 
REMARK    4  A    between atoms: C_18  and  C_19 
REMARK    5  A    between atoms: C_19  and  C_20 
REMARK    6  A    between atoms: C_20  and  C_24 
REMARK    7  A    between atoms: C_24  and  C_22 
ROOT
HETATM    1  C   UNK N   1      36.103  14.885  12.281  0.00  0.00     0.010 C 
HETATM    2  C   UNK N   1      35.470  12.938  14.393  0.00  0.00    -0.075 C 
HETATM    3  C   UNK N   1      34.724  11.386  12.458  0.00  0.00     0.010 C 
HETATM    4  C   UNK N   1      34.656  11.598  10.938  0.00  0.00     0.006 C 
HETATM    5  C   UNK N   1      36.525  15.121  13.763  0.00  0.00     0.005 C 
HETATM    6  C   UNK N   1      34.763  12.382  15.381  0.00  0.00     0.004 C 
HETATM    7  C   UNK N   1      36.652  13.843  14.630  0.00  0.00     0.034 C 
HETATM    8  C   UNK N   1      35.090  13.053  10.682  0.00  0.00    -0.002 C 
HETATM    9  C   UNK N   1      34.969  12.785  12.989  0.00  0.00     0.023 C 
HETATM   10  C   UNK N   1      35.902  13.399  11.948  0.00  0.00    -0.033 C 
HETATM   11  C   UNK N   1      37.279  12.709  11.925  0.00  0.00     0.016 C 
ENDROOT
BRANCH   6  12
HETATM   12  C   UNK N   1      35.045  12.504  16.820  0.00  0.00     0.008 C 
HETATM   13  C   UNK N   1      35.118  11.444  17.653  0.00  0.00    -0.050 C 
HETATM   14  C   UNK N   1      34.952  10.000  17.222  0.00  0.00    -0.061 C 
HETATM   15  C   UNK N   1      35.367  11.751  19.108  0.00  0.00     0.070 C 
HETATM   16  C   UNK N   1      34.947   8.890  18.237  0.00  0.00     0.041 C 
HETATM   17  C   UNK N   1      34.852   9.640  15.941  0.00  0.00     0.019 C 
HETATM   18  C   UNK N   1      34.819   9.382  19.672  0.00  0.00     0.036 C 
HETATM   19  C   UNK N   1      35.781  10.528  19.919  0.00  0.00     0.122 C 
BRANCH  19  20
HETATM   20  O   UNK N   1      35.782  10.850  21.276  0.00  0.00    -0.395 OA
HETATM   21  H   UNK N   1      35.606  11.761  21.560  0.00  0.00     0.210 HD
ENDBRANCH  19  20
ENDBRANCH   6  12
BRANCH   8  22
HETATM   22  C   UNK N   1      35.719  13.258   9.289  0.00  0.00    -0.014 C 
HETATM   23  C   UNK N   1      35.709  11.988   8.459  0.00  0.00     0.010 C 
BRANCH  22  24
HETATM   24  C   UNK N   1      35.170  14.432   8.487  0.00  0.00     0.005 C 
BRANCH  24  25
HETATM   25  C   UNK N   1      33.981  15.052   9.212  0.00  0.00     0.001 C 
BRANCH  25  26
HETATM   26  C   UNK N   1      33.279  16.076   8.332  0.00  0.00     0.004 C 
BRANCH  26  27
HETATM   27  C   UNK N   1      34.277  16.915   7.547  0.00  0.00    -0.023 C 
HETATM   28  C   UNK N   1      33.773  17.169   6.138  0.00  0.00     0.009 C 
HETATM   29  C   UNK N   1      34.473  18.245   8.247  0.00  0.00     0.009 C 
ENDBRANCH  26  27
ENDBRANCH  25  26
ENDBRANCH  24  25
ENDBRANCH  22  24
ENDBRANCH   8  22
TORSDOF 7
ENDMDL
MODEL 9
REMARK VINA RESULT:      -6.6     12.049     17.011
REMARK  7 active torsions:
REMARK  status: ('A' for Active; 'I' for Inactive)
REMARK    1  A    between atoms: C_6  and  C_8 
REMARK    2  A    between atoms: C_14  and  O_16 
REMARK    3  A    between atoms: C_25  and  C_18 
REMARK    4  A    between atoms: C_18  and  C_19 
REMARK    5  A    between atoms: C_19  and  C_20 
REMARK    6  A    between atoms: C_20  and  C_24 
REMARK    7  A    between atoms: C_24  and  C_22 
ROOT
HETATM    1  C   UNK N   1      33.820  15.903   5.667  0.00  0.00     0.010 C 
HETATM    2  C   UNK N   1      31.115  17.045   5.847  0.00  0.00    -0.075 C 
HETATM    3  C   UNK N   1      31.367  16.719   8.404  0.00  0.00     0.010 C 
HETATM    4  C   UNK N   1      32.492  16.113   9.257  0.00  0.00     0.006 C 
HETATM    5  C   UNK N   1      33.119  16.542   4.430  0.00  0.00     0.005 C 
HETATM    6  C   UNK N   1      29.781  17.063   5.777  0.00  0.00     0.004 C 
HETATM    7  C   UNK N   1      32.008  17.573   4.753  0.00  0.00     0.034 C 
HETATM    8  C   UNK N   1      33.563  15.611   8.272  0.00  0.00    -0.002 C 
HETATM    9  C   UNK N   1      31.755  16.322   6.993  0.00  0.00     0.023 C 
HETATM   10  C   UNK N   1      33.278  16.438   7.001  0.00  0.00    -0.033 C 
HETATM   11  C   UNK N   1      33.748  17.895   7.175  0.00  0.00     0.016 C 
ENDROOT
BRANCH   6  12
HETATM   12  C   UNK N   1      28.982  17.637   4.683  0.00  0.00     0.008 C 
HETATM   13  C   UNK N   1      28.097  18.642   4.861  0.00  0.00    -0.050 C 
HETATM   14  C   UNK N   1      27.831  19.327   6.187  0.00  0.00    -0.061 C 
HETATM   15  C   UNK N   1      27.325  19.079   3.642  0.00  0.00     0.070 C 
HETATM   16  C   UNK N   1      26.753  20.369   6.312  0.00  0.00     0.041 C 
HETATM   17  C   UNK N   1      28.557  19.084   7.280  0.00  0.00     0.019 C 
HETATM   18  C   UNK N   1      25.817  20.419   5.112  0.00  0.00     0.036 C 
HETATM   19  C   UNK N   1      26.618  20.418   3.825  0.00  0.00     0.122 C 
BRANCH  19  20
HETATM   20  O   UNK N   1      25.763  20.642   2.746  0.00  0.00    -0.395 OA
HETATM   21  H   UNK N   1      25.272  19.904   2.352  0.00  0.00     0.210 HD
ENDBRANCH  19  20
ENDBRANCH   6  12
BRANCH   8  22
HETATM   22  C   UNK N   1      34.981  15.601   8.877  0.00  0.00    -0.014 C 
HETATM   23  C   UNK N   1      35.057  16.368  10.185  0.00  0.00     0.010 C 
BRANCH  22  24
HETATM   24  C   UNK N   1      35.625  14.226   9.020  0.00  0.00     0.005 C 
BRANCH  24  25
HETATM   25  C   UNK N   1      34.752  13.327   9.888  0.00  0.00     0.001 C 
BRANCH  25  26
HETATM   26  C   UNK N   1      35.553  12.742  11.044  0.00  0.00     0.004 C 
BRANCH  26  27
HETATM   27  C   UNK N   1      35.111  13.323  12.379  0.00  0.00    -0.023 C 
HETATM   28  C   UNK N   1      34.805  12.215  13.370  0.00  0.00     0.009 C 
HETATM   29  C   UNK N   1      36.219  14.191  12.939  0.00  0.00     0.009 C 
ENDBRANCH  26  27
ENDBRANCH  25  26
ENDBRANCH  24  25
ENDBRANCH  22  24
ENDBRANCH   8  22
TORSDOF 7
ENDMDL
