MODEL 1
REMARK VINA RESULT:      -7.7      0.000      0.000
REMARK  16 active torsions:
REMARK  status: ('A' for Active; 'I' for Inactive)
REMARK    1  A    between atoms: C_1  and  C_4 
REMARK    2  A    between atoms: C_4  and  C_9 
REMARK    3  A    between atoms: C_4  and  O_10 
REMARK    4  A    between atoms: C_9  and  C_14 
REMARK    5  A    between atoms: C_11  and  C_79 
REMARK    6  A    between atoms: C_13  and  C_18 
REMARK    7  A    between atoms: C_14  and  C_19 
REMARK    8  A    between atoms: C_26  and  C_32 
REMARK    9  A    between atoms: C_32  and  C_36 
REMARK   10  A    between atoms: C_39  and  C_46 
REMARK   11  A    between atoms: C_43  and  C_48 
REMARK   12  A    between atoms: C_46  and  C_51 
REMARK   13  A    between atoms: C_48  and  C_54 
REMARK   14  A    between atoms: C_59  and  C_65 
REMARK   15  A    between atoms: C_73  and  C_82 
REMARK   16  A    between atoms: C_82  and  C_83 
ROOT
HETATM    1  C   UNK N   1      23.069  13.085   5.502  0.00  0.00     0.207 C 
HETATM    2  N   UNK N   1      24.217  13.182   6.388  0.00  0.00    -0.339 N 
HETATM    3  C   UNK N   1      23.235  12.368   4.181  0.00  0.00     0.243 C 
HETATM    4  C   UNK N   1      25.116  14.214   6.349  0.00  0.00     0.243 C 
HETATM    5  C   UNK N   1      24.319  12.208   7.451  0.00  0.00     0.153 C 
HETATM    6  N   UNK N   1      23.040  11.034   4.118  0.00  0.00    -0.346 N 
HETATM    7  O   UNK N   1      23.448  12.989   3.156  0.00  0.00    -0.271 OA
HETATM    8  C   UNK N   1      25.108  15.227   5.204  0.00  0.00     0.182 C 
HETATM    9  O   UNK N   1      25.937  14.320   7.245  0.00  0.00    -0.271 OA
HETATM   10  C   UNK N   1      22.582  10.343   5.285  0.00  0.00     0.176 C 
HETATM   11  N   UNK N   1      25.773  16.506   5.434  0.00  0.00    -0.341 N 
HETATM   12  C   UNK N   1      21.085  10.109   5.199  0.00  0.00     0.242 C 
HETATM   13  C   UNK N   1      27.096  16.604   5.781  0.00  0.00     0.243 C 
HETATM   14  C   UNK N   1      25.022  17.688   5.084  0.00  0.00     0.153 C 
HETATM   15  N   UNK N   1      20.511   9.115   4.443  0.00  0.00    -0.346 N 
HETATM   16  O   UNK N   1      20.366  10.910   5.778  0.00  0.00    -0.271 OA
HETATM   17  C   UNK N   1      27.859  17.910   5.706  0.00  0.00     0.179 C 
HETATM   18  O   UNK N   1      27.729  15.597   6.082  0.00  0.00    -0.271 OA
HETATM   19  C   UNK N   1      21.283   8.053   3.824  0.00  0.00     0.228 C 
HETATM   20  C   UNK N   1      19.075   9.070   4.298  0.00  0.00     0.153 C 
HETATM   21  N   UNK N   1      29.289  17.690   5.867  0.00  0.00    -0.341 N 
HETATM   22  C   UNK N   1      21.874   7.164   4.895  0.00  0.00     0.238 C 
HETATM   23  C   UNK N   1      30.001  17.159   4.816  0.00  0.00     0.243 C 
HETATM   24  C   UNK N   1      29.878  17.848   7.176  0.00  0.00     0.153 C 
HETATM   25  N   UNK N   1      22.766   6.174   4.608  0.00  0.00    -0.342 N 
HETATM   26  O   UNK N   1      21.567   7.372   6.063  0.00  0.00    -0.272 OA
HETATM   27  C   UNK N   1      31.457  16.731   4.927  0.00  0.00     0.179 C 
HETATM   28  O   UNK N   1      29.430  16.962   3.749  0.00  0.00    -0.271 OA
HETATM   29  C   UNK N   1      22.869   5.623   3.263  0.00  0.00     0.179 C 
HETATM   30  C   UNK N   1      23.389   5.471   5.712  0.00  0.00     0.153 C 
HETATM   31  N   UNK N   1      32.027  16.105   3.743  0.00  0.00    -0.341 N 
HETATM   32  C   UNK N   1      23.996   6.083   2.361  0.00  0.00     0.241 C 
HETATM   33  C   UNK N   1      31.811  14.784   3.479  0.00  0.00     0.242 C 
HETATM   34  C   UNK N   1      32.782  16.905   2.813  0.00  0.00     0.153 C 
HETATM   35  N   UNK N   1      25.312   5.937   2.656  0.00  0.00    -0.346 N 
HETATM   36  O   UNK N   1      23.697   6.547   1.273  0.00  0.00    -0.271 OA
HETATM   37  C   UNK N   1      31.010  13.908   4.412  0.00  0.00     0.172 C 
HETATM   38  O   UNK N   1      32.273  14.293   2.452  0.00  0.00    -0.271 OA
HETATM   39  C   UNK N   1      25.847   5.629   3.957  0.00  0.00     0.180 C 
HETATM   40  N   UNK N   1      30.857  12.605   3.821  0.00  0.00    -0.346 N 
HETATM   41  C   UNK N   1      31.688  13.768   5.763  0.00  0.00     0.042 C 
HETATM   42  C   UNK N   1      26.276   6.926   4.581  0.00  0.00     0.243 C 
HETATM   43  C   UNK N   1      29.669  11.973   3.800  0.00  0.00     0.240 C 
HETATM   44  N   UNK N   1      26.988   7.862   3.878  0.00  0.00    -0.341 N 
HETATM   45  O   UNK N   1      25.965   7.142   5.743  0.00  0.00    -0.271 OA
HETATM   46  C   UNK N   1      29.532  10.662   3.116  0.00  0.00     0.172 C 
HETATM   47  O   UNK N   1      28.728  12.412   4.439  0.00  0.00    -0.271 OA
HETATM   48  C   UNK N   1      27.450   9.047   4.545  0.00  0.00     0.179 C 
HETATM   49  C   UNK N   1      27.393   7.660   2.499  0.00  0.00     0.153 C 
HETATM   50  N   UNK N   1      29.870   9.647   4.064  0.00  0.00    -0.346 N 
HETATM   51  C   UNK N   1      30.413  10.547   1.881  0.00  0.00     0.042 C 
HETATM   52  C   UNK N   1      28.951   8.917   4.737  0.00  0.00     0.241 C 
HETATM   53  O   UNK N   1      29.349   8.053   5.501  0.00  0.00    -0.271 OA
HETATM   54  H   UNK N   1      23.210  10.544   3.282  0.00  0.00     0.163 HD
HETATM   55  H   UNK N   1      25.954   6.052   1.918  0.00  0.00     0.163 HD
HETATM   56  H   UNK N   1      31.642  12.164   3.422  0.00  0.00     0.163 HD
HETATM   57  H   UNK N   1      30.822   9.470   4.236  0.00  0.00     0.163 HD
ENDROOT
BRANCH   1  58
HETATM   58  C   UNK N   1      21.914  14.066   5.723  0.00  0.00     0.154 C 
BRANCH  58  59
HETATM   59  C   UNK N   1      21.936  14.631   7.158  0.00  0.00     0.016 C 
HETATM   60  C   UNK N   1      20.996  13.864   8.072  0.00  0.00     0.013 C 
BRANCH  59  61
HETATM   61  C   UNK N   1      21.526  16.095   7.209  0.00  0.00     0.033 C 
BRANCH  61  62
HETATM   62  C   UNK N   1      20.146  16.258   7.754  0.00  0.00    -0.031 C 
HETATM   63  C   UNK N   1      19.854  17.277   8.559  0.00  0.00    -0.035 C 
HETATM   64  C   UNK N   1      18.474  17.425   9.094  0.00  0.00     0.036 C 
ENDBRANCH  61  62
ENDBRANCH  59  61
ENDBRANCH  58  59
BRANCH  58  65
HETATM   65  O   UNK N   1      21.952  15.085   4.774  0.00  0.00    -0.393 OA
HETATM   66  H   UNK N   1      21.321  15.383   4.098  0.00  0.00     0.210 HD
ENDBRANCH  58  65
ENDBRANCH   1  58
BRANCH   8  67
HETATM   67  C   UNK N   1      25.523  14.627   3.851  0.00  0.00     0.009 C 
HETATM   68  C   UNK N   1      27.017  14.594   3.621  0.00  0.00     0.012 C 
HETATM   69  C   UNK N   1      24.886  15.381   2.701  0.00  0.00     0.012 C 
ENDBRANCH   8  67
BRANCH  10  70
HETATM   70  C   UNK N   1      23.579   9.312   5.793  0.00  0.00     0.030 C 
HETATM   71  C   UNK N   1      23.657   9.336   7.308  0.00  0.00     0.007 C 
ENDBRANCH  10  70
BRANCH  17  72
HETATM   72  C   UNK N   1      27.309  19.158   6.416  0.00  0.00     0.039 C 
BRANCH  72  73
HETATM   73  C   UNK N   1      27.616  20.461   5.699  0.00  0.00    -0.020 C 
HETATM   74  C   UNK N   1      26.678  21.530   6.223  0.00  0.00     0.009 C 
HETATM   75  C   UNK N   1      27.373  20.293   4.216  0.00  0.00     0.009 C 
ENDBRANCH  72  73
ENDBRANCH  17  72
BRANCH  27  76
HETATM   76  C   UNK N   1      32.440  17.251   5.989  0.00  0.00     0.039 C 
BRANCH  76  77
HETATM   77  C   UNK N   1      33.234  16.199   6.767  0.00  0.00    -0.020 C 
HETATM   78  C   UNK N   1      33.230  16.429   8.267  0.00  0.00     0.009 C 
HETATM   79  C   UNK N   1      34.644  16.020   6.246  0.00  0.00     0.009 C 
ENDBRANCH  76  77
ENDBRANCH  27  76
BRANCH  29  80
HETATM   80  C   UNK N   1      22.785   4.103   3.315  0.00  0.00     0.039 C 
BRANCH  80  81
HETATM   81  C   UNK N   1      21.413   3.586   2.951  0.00  0.00    -0.020 C 
HETATM   82  C   UNK N   1      20.677   3.279   4.235  0.00  0.00     0.009 C 
HETATM   83  C   UNK N   1      20.653   4.654   2.188  0.00  0.00     0.009 C 
ENDBRANCH  80  81
ENDBRANCH  29  80
BRANCH  39  84
HETATM   84  C   UNK N   1      26.998   4.595   3.948  0.00  0.00     0.009 C 
HETATM   85  C   UNK N   1      27.156   3.771   2.679  0.00  0.00     0.012 C 
HETATM   86  C   UNK N   1      26.962   3.679   5.150  0.00  0.00     0.012 C 
ENDBRANCH  39  84
BRANCH  48  87
HETATM   87  C   UNK N   1      26.784  10.359   4.048  0.00  0.00     0.039 C 
BRANCH  87  88
HETATM   88  C   UNK N   1      26.359  10.408   2.576  0.00  0.00    -0.020 C 
HETATM   89  C   UNK N   1      24.960   9.848   2.401  0.00  0.00     0.009 C 
HETATM   90  C   UNK N   1      26.352  11.833   2.077  0.00  0.00     0.009 C 
ENDBRANCH  87  88
ENDBRANCH  48  87
TORSDOF 16
ENDMDL
MODEL 2
REMARK VINA RESULT:      -7.5      1.076      1.693
REMARK  16 active torsions:
REMARK  status: ('A' for Active; 'I' for Inactive)
REMARK    1  A    between atoms: C_1  and  C_4 
REMARK    2  A    between atoms: C_4  and  C_9 
REMARK    3  A    between atoms: C_4  and  O_10 
REMARK    4  A    between atoms: C_9  and  C_14 
REMARK    5  A    between atoms: C_11  and  C_79 
REMARK    6  A    between atoms: C_13  and  C_18 
REMARK    7  A    between atoms: C_14  and  C_19 
REMARK    8  A    between atoms: C_26  and  C_32 
REMARK    9  A    between atoms: C_32  and  C_36 
REMARK   10  A    between atoms: C_39  and  C_46 
REMARK   11  A    between atoms: C_43  and  C_48 
REMARK   12  A    between atoms: C_46  and  C_51 
REMARK   13  A    between atoms: C_48  and  C_54 
REMARK   14  A    between atoms: C_59  and  C_65 
REMARK   15  A    between atoms: C_73  and  C_82 
REMARK   16  A    between atoms: C_82  and  C_83 
ROOT
HETATM    1  C   UNK N   1      22.897  13.448   5.415  0.00  0.00     0.207 C 
HETATM    2  N   UNK N   1      24.047  13.470   6.303  0.00  0.00    -0.339 N 
HETATM    3  C   UNK N   1      23.027  12.750   4.081  0.00  0.00     0.243 C 
HETATM    4  C   UNK N   1      24.998  14.455   6.284  0.00  0.00     0.243 C 
HETATM    5  C   UNK N   1      24.099  12.470   7.346  0.00  0.00     0.153 C 
HETATM    6  N   UNK N   1      22.765  11.429   3.991  0.00  0.00    -0.346 N 
HETATM    7  O   UNK N   1      23.272  13.379   3.068  0.00  0.00    -0.271 OA
HETATM    8  C   UNK N   1      25.041  15.490   5.159  0.00  0.00     0.182 C 
HETATM    9  O   UNK N   1      25.822  14.502   7.181  0.00  0.00    -0.271 OA
HETATM   10  C   UNK N   1      22.272  10.739   5.144  0.00  0.00     0.176 C 
HETATM   11  N   UNK N   1      25.770  16.728   5.414  0.00  0.00    -0.341 N 
HETATM   12  C   UNK N   1      20.765  10.583   5.054  0.00  0.00     0.242 C 
HETATM   13  C   UNK N   1      27.096  16.752   5.763  0.00  0.00     0.243 C 
HETATM   14  C   UNK N   1      25.080  17.954   5.088  0.00  0.00     0.153 C 
HETATM   15  N   UNK N   1      20.142   9.634   4.278  0.00  0.00    -0.346 N 
HETATM   16  O   UNK N   1      20.087  11.407   5.648  0.00  0.00    -0.271 OA
HETATM   17  C   UNK N   1      27.925  18.020   5.714  0.00  0.00     0.179 C 
HETATM   18  O   UNK N   1      27.677  15.709   6.044  0.00  0.00    -0.271 OA
HETATM   19  C   UNK N   1      20.860   8.547   3.638  0.00  0.00     0.228 C 
HETATM   20  C   UNK N   1      18.706   9.665   4.132  0.00  0.00     0.153 C 
HETATM   21  N   UNK N   1      29.341  17.724   5.870  0.00  0.00    -0.341 N 
HETATM   22  C   UNK N   1      21.404   7.608   4.691  0.00  0.00     0.238 C 
HETATM   23  C   UNK N   1      30.026  17.180   4.808  0.00  0.00     0.243 C 
HETATM   24  C   UNK N   1      29.937  17.827   7.182  0.00  0.00     0.153 C 
HETATM   25  N   UNK N   1      22.246   6.581   4.384  0.00  0.00    -0.342 N 
HETATM   26  O   UNK N   1      21.108   7.808   5.863  0.00  0.00    -0.272 OA
HETATM   27  C   UNK N   1      31.458  16.677   4.911  0.00  0.00     0.179 C 
HETATM   28  O   UNK N   1      29.447  17.032   3.738  0.00  0.00    -0.271 OA
HETATM   29  C   UNK N   1      22.321   6.052   3.028  0.00  0.00     0.179 C 
HETATM   30  C   UNK N   1      22.831   5.825   5.474  0.00  0.00     0.153 C 
HETATM   31  N   UNK N   1      31.997  16.046   3.714  0.00  0.00    -0.341 N 
HETATM   32  C   UNK N   1      23.471   6.472   2.135  0.00  0.00     0.241 C 
HETATM   33  C   UNK N   1      31.715  14.743   3.424  0.00  0.00     0.242 C 
HETATM   34  C   UNK N   1      32.793  16.824   2.800  0.00  0.00     0.153 C 
HETATM   35  N   UNK N   1      24.777   6.254   2.427  0.00  0.00    -0.346 N 
HETATM   36  O   UNK N   1      23.197   6.972   1.057  0.00  0.00    -0.271 OA
HETATM   37  C   UNK N   1      30.870  13.890   4.340  0.00  0.00     0.172 C 
HETATM   38  O   UNK N   1      32.152  14.249   2.387  0.00  0.00    -0.271 OA
HETATM   39  C   UNK N   1      25.296   5.893   3.722  0.00  0.00     0.180 C 
HETATM   40  N   UNK N   1      30.652  12.609   3.723  0.00  0.00    -0.346 N 
HETATM   41  C   UNK N   1      31.539  13.689   5.688  0.00  0.00     0.042 C 
HETATM   42  C   UNK N   1      25.789   7.154   4.372  0.00  0.00     0.243 C 
HETATM   43  C   UNK N   1      29.433  12.038   3.690  0.00  0.00     0.240 C 
HETATM   44  N   UNK N   1      26.548   8.066   3.687  0.00  0.00    -0.341 N 
HETATM   45  O   UNK N   1      25.488   7.363   5.538  0.00  0.00    -0.271 OA
HETATM   46  C   UNK N   1      29.231  10.750   2.980  0.00  0.00     0.172 C 
HETATM   47  O   UNK N   1      28.515  12.511   4.338  0.00  0.00    -0.271 OA
HETATM   48  C   UNK N   1      27.069   9.214   4.377  0.00  0.00     0.179 C 
HETATM   49  C   UNK N   1      26.943   7.872   2.304  0.00  0.00     0.153 C 
HETATM   50  N   UNK N   1      29.516   9.700   3.908  0.00  0.00    -0.346 N 
HETATM   51  C   UNK N   1      30.106  10.614   1.742  0.00  0.00     0.042 C 
HETATM   52  C   UNK N   1      28.561   9.004   4.567  0.00  0.00     0.241 C 
HETATM   53  O   UNK N   1      28.915   8.106   5.313  0.00  0.00    -0.271 OA
HETATM   54  H   UNK N   1      22.911  10.947   3.145  0.00  0.00     0.163 HD
HETATM   55  H   UNK N   1      25.425   6.350   1.692  0.00  0.00     0.163 HD
HETATM   56  H   UNK N   1      31.413  12.137   3.315  0.00  0.00     0.163 HD
HETATM   57  H   UNK N   1      30.458   9.471   4.076  0.00  0.00     0.163 HD
ENDROOT
BRANCH   1  58
HETATM   58  C   UNK N   1      21.792  14.481   5.656  0.00  0.00     0.154 C 
BRANCH  58  59
HETATM   59  C   UNK N   1      21.251  15.034   4.321  0.00  0.00     0.016 C 
HETATM   60  C   UNK N   1      21.445  16.538   4.223  0.00  0.00     0.013 C 
BRANCH  59  61
HETATM   61  C   UNK N   1      19.767  14.753   4.138  0.00  0.00     0.033 C 
BRANCH  61  62
HETATM   62  C   UNK N   1      19.527  13.791   3.022  0.00  0.00    -0.031 C 
HETATM   63  C   UNK N   1      20.017  14.030   1.808  0.00  0.00    -0.035 C 
HETATM   64  C   UNK N   1      19.768  13.063   0.706  0.00  0.00     0.036 C 
ENDBRANCH  61  62
ENDBRANCH  59  61
ENDBRANCH  58  59
BRANCH  58  65
HETATM   65  O   UNK N   1      20.772  13.931   6.430  0.00  0.00    -0.393 OA
HETATM   66  H   UNK N   1      20.739  13.603   7.343  0.00  0.00     0.210 HD
ENDBRANCH  58  65
ENDBRANCH   1  58
BRANCH   8  67
HETATM   67  C   UNK N   1      25.427  14.896   3.794  0.00  0.00     0.009 C 
HETATM   68  C   UNK N   1      26.917  14.819   3.552  0.00  0.00     0.012 C 
HETATM   69  C   UNK N   1      24.806  15.687   2.661  0.00  0.00     0.012 C 
ENDBRANCH   8  67
BRANCH  10  70
HETATM   70  C   UNK N   1      23.215   9.649   5.631  0.00  0.00     0.030 C 
HETATM   71  C   UNK N   1      23.313   9.656   7.145  0.00  0.00     0.007 C 
ENDBRANCH  10  70
BRANCH  17  72
HETATM   72  C   UNK N   1      27.438  19.279   6.448  0.00  0.00     0.039 C 
BRANCH  72  73
HETATM   73  C   UNK N   1      27.713  20.574   5.703  0.00  0.00    -0.020 C 
HETATM   74  C   UNK N   1      26.775  21.641   6.230  0.00  0.00     0.009 C 
HETATM   75  C   UNK N   1      27.438  20.378   4.229  0.00  0.00     0.009 C 
ENDBRANCH  72  73
ENDBRANCH  17  72
BRANCH  27  76
HETATM   76  C   UNK N   1      32.465  17.125   5.982  0.00  0.00     0.039 C 
BRANCH  76  77
HETATM   77  C   UNK N   1      33.224  16.020   6.722  0.00  0.00    -0.020 C 
HETATM   78  C   UNK N   1      33.226  16.193   8.229  0.00  0.00     0.009 C 
HETATM   79  C   UNK N   1      34.628  15.813   6.194  0.00  0.00     0.009 C 
ENDBRANCH  76  77
ENDBRANCH  27  76
BRANCH  29  80
HETATM   80  C   UNK N   1      22.161   4.537   3.050  0.00  0.00     0.039 C 
BRANCH  80  81
HETATM   81  C   UNK N   1      20.760   4.098   2.693  0.00  0.00    -0.020 C 
HETATM   82  C   UNK N   1      20.024   3.803   3.979  0.00  0.00     0.009 C 
HETATM   83  C   UNK N   1      20.047   5.219   1.960  0.00  0.00     0.009 C 
ENDBRANCH  80  81
ENDBRANCH  29  80
BRANCH  39  84
HETATM   84  C   UNK N   1      26.393   4.803   3.692  0.00  0.00     0.009 C 
HETATM   85  C   UNK N   1      26.569   4.058   2.378  0.00  0.00     0.012 C 
HETATM   86  C   UNK N   1      26.254   3.812   4.825  0.00  0.00     0.012 C 
ENDBRANCH  39  84
BRANCH  48  87
HETATM   87  C   UNK N   1      26.471  10.567   3.907  0.00  0.00     0.039 C 
BRANCH  87  88
HETATM   88  C   UNK N   1      26.057  10.669   2.434  0.00  0.00    -0.020 C 
HETATM   89  C   UNK N   1      24.632  10.190   2.240  0.00  0.00     0.009 C 
HETATM   90  C   UNK N   1      26.131  12.103   1.964  0.00  0.00     0.009 C 
ENDBRANCH  87  88
ENDBRANCH  48  87
TORSDOF 16
ENDMDL
MODEL 3
REMARK VINA RESULT:      -7.0      2.966      6.585
REMARK  16 active torsions:
REMARK  status: ('A' for Active; 'I' for Inactive)
REMARK    1  A    between atoms: C_1  and  C_4 
REMARK    2  A    between atoms: C_4  and  C_9 
REMARK    3  A    between atoms: C_4  and  O_10 
REMARK    4  A    between atoms: C_9  and  C_14 
REMARK    5  A    between atoms: C_11  and  C_79 
REMARK    6  A    between atoms: C_13  and  C_18 
REMARK    7  A    between atoms: C_14  and  C_19 
REMARK    8  A    between atoms: C_26  and  C_32 
REMARK    9  A    between atoms: C_32  and  C_36 
REMARK   10  A    between atoms: C_39  and  C_46 
REMARK   11  A    between atoms: C_43  and  C_48 
REMARK   12  A    between atoms: C_46  and  C_51 
REMARK   13  A    between atoms: C_48  and  C_54 
REMARK   14  A    between atoms: C_59  and  C_65 
REMARK   15  A    between atoms: C_73  and  C_82 
REMARK   16  A    between atoms: C_82  and  C_83 
ROOT
HETATM    1  C   UNK N   1      26.958  17.255   4.862  0.00  0.00     0.207 C 
HETATM    2  N   UNK N   1      27.477  16.369   5.890  0.00  0.00    -0.339 N 
HETATM    3  C   UNK N   1      26.495  16.654   3.555  0.00  0.00     0.243 C 
HETATM    4  C   UNK N   1      28.799  16.023   5.993  0.00  0.00     0.243 C 
HETATM    5  C   UNK N   1      26.565  15.954   6.931  0.00  0.00     0.153 C 
HETATM    6  N   UNK N   1      25.220  16.227   3.433  0.00  0.00    -0.346 N 
HETATM    7  O   UNK N   1      27.226  16.634   2.582  0.00  0.00    -0.271 OA
HETATM    8  C   UNK N   1      29.794  16.363   4.883  0.00  0.00     0.182 C 
HETATM    9  O   UNK N   1      29.181  15.432   6.988  0.00  0.00    -0.271 OA
HETATM   10  C   UNK N   1      24.307  16.447   4.513  0.00  0.00     0.176 C 
HETATM   11  N   UNK N   1      31.211  16.364   5.229  0.00  0.00    -0.341 N 
HETATM   12  C   UNK N   1      23.448  17.666   4.231  0.00  0.00     0.242 C 
HETATM   13  C   UNK N   1      31.851  15.266   5.744  0.00  0.00     0.243 C 
HETATM   14  C   UNK N   1      31.969  17.522   4.817  0.00  0.00     0.153 C 
HETATM   15  N   UNK N   1      22.367  17.657   3.382  0.00  0.00    -0.346 N 
HETATM   16  O   UNK N   1      23.804  18.721   4.734  0.00  0.00    -0.271 OA
HETATM   17  C   UNK N   1      33.361  15.160   5.802  0.00  0.00     0.179 C 
HETATM   18  O   UNK N   1      31.203  14.287   6.098  0.00  0.00    -0.271 OA
HETATM   19  C   UNK N   1      21.805  16.434   2.839  0.00  0.00     0.228 C 
HETATM   20  C   UNK N   1      21.710  18.899   3.054  0.00  0.00     0.153 C 
HETATM   21  N   UNK N   1      33.778  13.807   6.138  0.00  0.00    -0.341 N 
HETATM   22  C   UNK N   1      21.182  15.622   3.953  0.00  0.00     0.238 C 
HETATM   23  C   UNK N   1      33.699  12.830   5.173  0.00  0.00     0.243 C 
HETATM   24  C   UNK N   1      34.073  13.488   7.515  0.00  0.00     0.153 C 
HETATM   25  N   UNK N   1      20.710  14.359   3.756  0.00  0.00    -0.342 N 
HETATM   26  O   UNK N   1      21.140  16.108   5.077  0.00  0.00    -0.272 OA
HETATM   27  C   UNK N   1      33.945  11.356   5.457  0.00  0.00     0.179 C 
HETATM   28  O   UNK N   1      33.357  13.140   4.037  0.00  0.00    -0.271 OA
HETATM   29  C   UNK N   1      20.370  13.885   2.421  0.00  0.00     0.179 C 
HETATM   30  C   UNK N   1      20.265  13.606   4.912  0.00  0.00     0.153 C 
HETATM   31  N   UNK N   1      33.729  10.448   4.340  0.00  0.00    -0.341 N 
HETATM   32  C   UNK N   1      21.348  12.993   1.682  0.00  0.00     0.241 C 
HETATM   33  C   UNK N   1      32.473  10.025   4.016  0.00  0.00     0.242 C 
HETATM   34  C   UNK N   1      34.851  10.036   3.535  0.00  0.00     0.153 C 
HETATM   35  N   UNK N   1      21.770  11.788   2.139  0.00  0.00    -0.346 N 
HETATM   36  O   UNK N   1      21.719  13.354   0.578  0.00  0.00    -0.271 OA
HETATM   37  C   UNK N   1      31.263  10.444   4.815  0.00  0.00     0.172 C 
HETATM   38  O   UNK N   1      32.318   9.290   3.043  0.00  0.00    -0.271 OA
HETATM   39  C   UNK N   1      21.624  11.308   3.489  0.00  0.00     0.180 C 
HETATM   40  N   UNK N   1      30.077   9.940   4.176  0.00  0.00    -0.346 N 
HETATM   41  C   UNK N   1      31.326   9.918   6.238  0.00  0.00     0.042 C 
HETATM   42  C   UNK N   1      22.924  11.568   4.197  0.00  0.00     0.243 C 
HETATM   43  C   UNK N   1      28.992  10.714   3.987  0.00  0.00     0.240 C 
HETATM   44  N   UNK N   1      24.130  11.278   3.615  0.00  0.00    -0.341 N 
HETATM   45  O   UNK N   1      22.888  12.060   5.315  0.00  0.00    -0.271 OA
HETATM   46  C   UNK N   1      27.813  10.183   3.257  0.00  0.00     0.172 C 
HETATM   47  O   UNK N   1      28.921  11.812   4.512  0.00  0.00    -0.271 OA
HETATM   48  C   UNK N   1      25.340  11.463   4.366  0.00  0.00     0.179 C 
HETATM   49  C   UNK N   1      24.237  10.687   2.294  0.00  0.00     0.153 C 
HETATM   50  N   UNK N   1      26.977   9.528   4.213  0.00  0.00    -0.346 N 
HETATM   51  C   UNK N   1      28.195   9.221   2.142  0.00  0.00     0.042 C 
HETATM   52  C   UNK N   1      25.866  10.089   4.745  0.00  0.00     0.241 C 
HETATM   53  O   UNK N   1      25.206   9.429   5.530  0.00  0.00    -0.271 OA
HETATM   54  H   UNK N   1      24.923  15.771   2.613  0.00  0.00     0.163 HD
HETATM   55  H   UNK N   1      22.213  11.192   1.493  0.00  0.00     0.163 HD
HETATM   56  H   UNK N   1      30.058   9.005   3.869  0.00  0.00     0.163 HD
HETATM   57  H   UNK N   1      27.222   8.619   4.501  0.00  0.00     0.163 HD
ENDROOT
BRANCH   1  58
HETATM   58  C   UNK N   1      27.312  18.742   4.960  0.00  0.00     0.154 C 
BRANCH  58  59
HETATM   59  C   UNK N   1      27.081  19.273   6.389  0.00  0.00     0.016 C 
HETATM   60  C   UNK N   1      26.381  20.621   6.375  0.00  0.00     0.013 C 
BRANCH  59  61
HETATM   61  C   UNK N   1      28.381  19.442   7.161  0.00  0.00     0.033 C 
BRANCH  61  62
HETATM   62  C   UNK N   1      28.340  18.722   8.468  0.00  0.00    -0.031 C 
HETATM   63  C   UNK N   1      29.439  18.160   8.964  0.00  0.00    -0.035 C 
HETATM   64  C   UNK N   1      29.381  17.447  10.268  0.00  0.00     0.036 C 
ENDBRANCH  61  62
ENDBRANCH  59  61
ENDBRANCH  58  59
BRANCH  58  65
HETATM   65  O   UNK N   1      28.624  18.959   4.543  0.00  0.00    -0.393 OA
HETATM   66  H   UNK N   1      29.394  19.369   4.970  0.00  0.00     0.210 HD
ENDBRANCH  58  65
ENDBRANCH   1  58
BRANCH   8  67
HETATM   67  C   UNK N   1      29.546  15.588   3.578  0.00  0.00     0.009 C 
HETATM   68  C   UNK N   1      30.131  14.195   3.567  0.00  0.00     0.012 C 
HETATM   69  C   UNK N   1      30.098  16.340   2.384  0.00  0.00     0.012 C 
ENDBRANCH   8  67
BRANCH  10  70
HETATM   70  C   UNK N   1      23.781  15.153   5.117  0.00  0.00     0.030 C 
HETATM   71  C   UNK N   1      23.622  15.284   6.620  0.00  0.00     0.007 C 
ENDBRANCH  10  70
BRANCH  17  72
HETATM   72  C   UNK N   1      34.180  16.278   6.468  0.00  0.00     0.039 C 
BRANCH  72  73
HETATM   73  C   UNK N   1      33.689  16.663   7.852  0.00  0.00    -0.020 C 
HETATM   74  C   UNK N   1      33.317  18.132   7.839  0.00  0.00     0.009 C 
HETATM   75  C   UNK N   1      34.799  16.457   8.859  0.00  0.00     0.009 C 
ENDBRANCH  72  73
ENDBRANCH  17  72
BRANCH  27  76
HETATM   76  C   UNK N   1      34.756  10.821   6.649  0.00  0.00     0.039 C 
BRANCH  76  77
HETATM   77  C   UNK N   1      34.348   9.454   7.204  0.00  0.00    -0.020 C 
HETATM   78  C   UNK N   1      34.047   9.472   8.691  0.00  0.00     0.009 C 
HETATM   79  C   UNK N   1      35.335   8.359   6.861  0.00  0.00     0.009 C 
ENDBRANCH  76  77
ENDBRANCH  27  76
BRANCH  29  80
HETATM   80  C   UNK N   1      18.967  13.288   2.422  0.00  0.00     0.039 C 
BRANCH  80  81
HETATM   81  C   UNK N   1      18.563  12.758   1.067  0.00  0.00    -0.020 C 
HETATM   82  C   UNK N   1      17.460  11.746   1.274  0.00  0.00     0.009 C 
HETATM   83  C   UNK N   1      18.038  13.895   0.211  0.00  0.00     0.009 C 
ENDBRANCH  80  81
ENDBRANCH  29  80
BRANCH  39  84
HETATM   84  C   UNK N   1      21.204   9.824   3.600  0.00  0.00     0.009 C 
HETATM   85  C   UNK N   1      20.438   9.249   2.418  0.00  0.00     0.012 C 
HETATM   86  C   UNK N   1      20.462   9.527   4.883  0.00  0.00     0.012 C 
ENDBRANCH  39  84
BRANCH  48  87
HETATM   87  C   UNK N   1      26.262  12.588   3.823  0.00  0.00     0.039 C 
BRANCH  87  88
HETATM   88  C   UNK N   1      26.251  12.825   2.308  0.00  0.00    -0.020 C 
HETATM   89  C   UNK N   1      25.155  13.800   1.924  0.00  0.00     0.009 C 
HETATM   90  C   UNK N   1      27.568  13.410   1.856  0.00  0.00     0.009 C 
ENDBRANCH  87  88
ENDBRANCH  48  87
TORSDOF 16
ENDMDL
MODEL 4
REMARK VINA RESULT:      -6.6      7.335     12.779
REMARK  16 active torsions:
REMARK  status: ('A' for Active; 'I' for Inactive)
REMARK    1  A    between atoms: C_1  and  C_4 
REMARK    2  A    between atoms: C_4  and  C_9 
REMARK    3  A    between atoms: C_4  and  O_10 
REMARK    4  A    between atoms: C_9  and  C_14 
REMARK    5  A    between atoms: C_11  and  C_79 
REMARK    6  A    between atoms: C_13  and  C_18 
REMARK    7  A    between atoms: C_14  and  C_19 
REMARK    8  A    between atoms: C_26  and  C_32 
REMARK    9  A    between atoms: C_32  and  C_36 
REMARK   10  A    between atoms: C_39  and  C_46 
REMARK   11  A    between atoms: C_43  and  C_48 
REMARK   12  A    between atoms: C_46  and  C_51 
REMARK   13  A    between atoms: C_48  and  C_54 
REMARK   14  A    between atoms: C_59  and  C_65 
REMARK   15  A    between atoms: C_73  and  C_82 
REMARK   16  A    between atoms: C_82  and  C_83 
ROOT
HETATM    1  C   UNK N   1      34.776  13.414   6.340  0.00  0.00     0.207 C 
HETATM    2  N   UNK N   1      35.557  12.448   5.585  0.00  0.00    -0.339 N 
HETATM    3  C   UNK N   1      33.828  12.907   7.402  0.00  0.00     0.243 C 
HETATM    4  C   UNK N   1      35.125  11.874   4.419  0.00  0.00     0.243 C 
HETATM    5  C   UNK N   1      36.910  12.199   6.027  0.00  0.00     0.153 C 
HETATM    6  N   UNK N   1      34.278  12.713   8.659  0.00  0.00    -0.346 N 
HETATM    7  O   UNK N   1      32.643  12.761   7.163  0.00  0.00    -0.271 OA
HETATM    8  C   UNK N   1      33.681  12.036   3.945  0.00  0.00     0.182 C 
HETATM    9  O   UNK N   1      35.911  11.223   3.753  0.00  0.00    -0.271 OA
HETATM   10  C   UNK N   1      35.622  13.088   8.982  0.00  0.00     0.176 C 
HETATM   11  N   UNK N   1      33.405  11.785   2.534  0.00  0.00    -0.341 N 
HETATM   12  C   UNK N   1      35.634  14.441   9.671  0.00  0.00     0.242 C 
HETATM   13  C   UNK N   1      33.686  10.590   1.923  0.00  0.00     0.243 C 
HETATM   14  C   UNK N   1      32.632  12.792   1.846  0.00  0.00     0.153 C 
HETATM   15  N   UNK N   1      35.315  14.625  10.995  0.00  0.00    -0.346 N 
HETATM   16  O   UNK N   1      35.865  15.415   8.971  0.00  0.00    -0.271 OA
HETATM   17  C   UNK N   1      33.118  10.219   0.568  0.00  0.00     0.179 C 
HETATM   18  O   UNK N   1      34.347   9.740   2.509  0.00  0.00    -0.271 OA
HETATM   19  C   UNK N   1      35.146  13.522  11.923  0.00  0.00     0.228 C 
HETATM   20  C   UNK N   1      35.200  15.964  11.520  0.00  0.00     0.153 C 
HETATM   21  N   UNK N   1      33.347   8.813   0.273  0.00  0.00    -0.341 N 
HETATM   22  C   UNK N   1      36.473  12.831  12.139  0.00  0.00     0.238 C 
HETATM   23  C   UNK N   1      32.576   7.867   0.908  0.00  0.00     0.243 C 
HETATM   24  C   UNK N   1      34.496   8.443  -0.521  0.00  0.00     0.153 C 
HETATM   25  N   UNK N   1      36.583  11.671  12.847  0.00  0.00    -0.342 N 
HETATM   26  O   UNK N   1      37.475  13.313  11.623  0.00  0.00    -0.272 OA
HETATM   27  C   UNK N   1      32.839   6.372   0.806  0.00  0.00     0.179 C 
HETATM   28  O   UNK N   1      31.666   8.235   1.643  0.00  0.00    -0.271 OA
HETATM   29  C   UNK N   1      35.549  11.267  13.791  0.00  0.00     0.179 C 
HETATM   30  C   UNK N   1      37.871  11.006  12.877  0.00  0.00     0.153 C 
HETATM   31  N   UNK N   1      31.982   5.519   1.616  0.00  0.00    -0.341 N 
HETATM   32  C   UNK N   1      34.538  10.218  13.373  0.00  0.00     0.241 C 
HETATM   33  C   UNK N   1      32.241   5.325   2.942  0.00  0.00     0.242 C 
HETATM   34  C   UNK N   1      30.816   4.917   1.023  0.00  0.00     0.153 C 
HETATM   35  N   UNK N   1      34.863   8.957  12.998  0.00  0.00    -0.346 N 
HETATM   36  O   UNK N   1      33.356  10.510  13.451  0.00  0.00    -0.271 OA
HETATM   37  C   UNK N   1      33.439   5.950   3.616  0.00  0.00     0.172 C 
HETATM   38  O   UNK N   1      31.478   4.631   3.610  0.00  0.00    -0.271 OA
HETATM   39  C   UNK N   1      36.183   8.507  12.635  0.00  0.00     0.180 C 
HETATM   40  N   UNK N   1      33.390   5.665   5.025  0.00  0.00    -0.346 N 
HETATM   41  C   UNK N   1      34.741   5.418   3.044  0.00  0.00     0.042 C 
HETATM   42  C   UNK N   1      36.265   8.531  11.135  0.00  0.00     0.243 C 
HETATM   43  C   UNK N   1      33.613   6.619   5.949  0.00  0.00     0.240 C 
HETATM   44  N   UNK N   1      35.257   8.035  10.352  0.00  0.00    -0.341 N 
HETATM   45  O   UNK N   1      37.258   9.020  10.616  0.00  0.00    -0.271 OA
HETATM   46  C   UNK N   1      33.481   6.306   7.394  0.00  0.00     0.172 C 
HETATM   47  O   UNK N   1      34.039   7.711   5.613  0.00  0.00    -0.271 OA
HETATM   48  C   UNK N   1      35.421   8.001   8.925  0.00  0.00     0.179 C 
HETATM   49  C   UNK N   1      34.059   7.436  10.910  0.00  0.00     0.153 C 
HETATM   50  N   UNK N   1      34.743   5.807   7.842  0.00  0.00    -0.346 N 
HETATM   51  C   UNK N   1      32.381   5.294   7.680  0.00  0.00     0.042 C 
HETATM   52  C   UNK N   1      35.646   6.555   8.518  0.00  0.00     0.241 C 
HETATM   53  O   UNK N   1      36.680   6.020   8.881  0.00  0.00    -0.271 OA
HETATM   54  H   UNK N   1      33.692  12.319   9.344  0.00  0.00     0.163 HD
HETATM   55  H   UNK N   1      34.137   8.293  12.972  0.00  0.00     0.163 HD
HETATM   56  H   UNK N   1      33.187   4.749   5.323  0.00  0.00     0.163 HD
HETATM   57  H   UNK N   1      34.968   4.869   7.648  0.00  0.00     0.163 HD
ENDROOT
BRANCH   1  58
HETATM   58  C   UNK N   1      34.609  14.815   5.743  0.00  0.00     0.154 C 
BRANCH  58  59
HETATM   59  C   UNK N   1      33.318  15.485   6.256  0.00  0.00     0.016 C 
HETATM   60  C   UNK N   1      32.274  15.594   5.158  0.00  0.00     0.013 C 
BRANCH  59  61
HETATM   61  C   UNK N   1      33.567  16.888   6.790  0.00  0.00     0.033 C 
BRANCH  61  62
HETATM   62  C   UNK N   1      32.294  17.550   7.200  0.00  0.00    -0.031 C 
HETATM   63  C   UNK N   1      31.947  17.610   8.484  0.00  0.00    -0.035 C 
HETATM   64  C   UNK N   1      30.675  18.273   8.876  0.00  0.00     0.036 C 
ENDBRANCH  61  62
ENDBRANCH  59  61
ENDBRANCH  58  59
BRANCH  58  65
HETATM   65  O   UNK N   1      35.730  15.597   6.016  0.00  0.00    -0.393 OA
HETATM   66  H   UNK N   1      36.182  16.300   5.521  0.00  0.00     0.210 HD
ENDBRANCH  58  65
ENDBRANCH   1  58
BRANCH   8  67
HETATM   67  C   UNK N   1      32.657  11.319   4.841  0.00  0.00     0.009 C 
HETATM   68  C   UNK N   1      32.493   9.848   4.538  0.00  0.00     0.012 C 
HETATM   69  C   UNK N   1      31.295  11.975   4.745  0.00  0.00     0.012 C 
ENDBRANCH   8  67
BRANCH  10  70
HETATM   70  C   UNK N   1      36.481  11.907   9.405  0.00  0.00     0.030 C 
HETATM   71  C   UNK N   1      37.902  12.063   8.894  0.00  0.00     0.007 C 
ENDBRANCH  10  70
BRANCH  17  72
HETATM   72  C   UNK N   1      33.299  11.173  -0.623  0.00  0.00     0.039 C 
BRANCH  72  73
HETATM   73  C   UNK N   1      32.236  11.027  -1.698  0.00  0.00    -0.020 C 
HETATM   74  C   UNK N   1      32.658  11.841  -2.905  0.00  0.00     0.009 C 
HETATM   75  C   UNK N   1      30.921  11.573  -1.186  0.00  0.00     0.009 C 
ENDBRANCH  72  73
ENDBRANCH  17  72
BRANCH  27  76
HETATM   76  C   UNK N   1      33.621   5.700  -0.335  0.00  0.00     0.039 C 
BRANCH  76  77
HETATM   77  C   UNK N   1      34.299   4.365  -0.014  0.00  0.00    -0.020 C 
HETATM   78  C   UNK N   1      35.785   4.354  -0.319  0.00  0.00     0.009 C 
HETATM   79  C   UNK N   1      33.602   3.182  -0.652  0.00  0.00     0.009 C 
ENDBRANCH  76  77
ENDBRANCH  27  76
BRANCH  29  80
HETATM   80  C   UNK N   1      36.177  10.928  15.137  0.00  0.00     0.039 C 
BRANCH  80  81
HETATM   81  C   UNK N   1      35.895  11.976  16.187  0.00  0.00    -0.020 C 
HETATM   82  C   UNK N   1      34.862  12.927  15.628  0.00  0.00     0.009 C 
HETATM   83  C   UNK N   1      35.336  11.314  17.432  0.00  0.00     0.009 C 
ENDBRANCH  80  81
ENDBRANCH  29  80
BRANCH  39  84
HETATM   84  C   UNK N   1      36.566   7.120  13.202  0.00  0.00     0.009 C 
HETATM   85  C   UNK N   1      35.857   6.693  14.479  0.00  0.00     0.012 C 
HETATM   86  C   UNK N   1      38.060   6.956  13.369  0.00  0.00     0.012 C 
ENDBRANCH  39  84
BRANCH  48  87
HETATM   87  C   UNK N   1      34.464   8.946   8.151  0.00  0.00     0.039 C 
BRANCH  87  88
HETATM   88  C   UNK N   1      33.072   9.171   8.754  0.00  0.00    -0.020 C 
HETATM   89  C   UNK N   1      33.081  10.353   9.704  0.00  0.00     0.009 C 
HETATM   90  C   UNK N   1      32.067   9.463   7.665  0.00  0.00     0.009 C 
ENDBRANCH  87  88
ENDBRANCH  48  87
TORSDOF 16
ENDMDL
MODEL 5
REMARK VINA RESULT:      -6.5      8.646     13.333
REMARK  16 active torsions:
REMARK  status: ('A' for Active; 'I' for Inactive)
REMARK    1  A    between atoms: C_1  and  C_4 
REMARK    2  A    between atoms: C_4  and  C_9 
REMARK    3  A    between atoms: C_4  and  O_10 
REMARK    4  A    between atoms: C_9  and  C_14 
REMARK    5  A    between atoms: C_11  and  C_79 
REMARK    6  A    between atoms: C_13  and  C_18 
REMARK    7  A    between atoms: C_14  and  C_19 
REMARK    8  A    between atoms: C_26  and  C_32 
REMARK    9  A    between atoms: C_32  and  C_36 
REMARK   10  A    between atoms: C_39  and  C_46 
REMARK   11  A    between atoms: C_43  and  C_48 
REMARK   12  A    between atoms: C_46  and  C_51 
REMARK   13  A    between atoms: C_48  and  C_54 
REMARK   14  A    between atoms: C_59  and  C_65 
REMARK   15  A    between atoms: C_73  and  C_82 
REMARK   16  A    between atoms: C_82  and  C_83 
ROOT
HETATM    1  C   UNK N   1      34.223  13.094   8.224  0.00  0.00     0.207 C 
HETATM    2  N   UNK N   1      34.007  11.793   8.836  0.00  0.00    -0.339 N 
HETATM    3  C   UNK N   1      35.518  13.340   7.485  0.00  0.00     0.243 C 
HETATM    4  C   UNK N   1      34.380  11.490  10.118  0.00  0.00     0.243 C 
HETATM    5  C   UNK N   1      33.233  10.829   8.088  0.00  0.00     0.153 C 
HETATM    6  N   UNK N   1      35.608  13.024   6.176  0.00  0.00    -0.346 N 
HETATM    7  O   UNK N   1      36.449  13.904   8.028  0.00  0.00    -0.271 OA
HETATM    8  C   UNK N   1      35.269  12.435  10.927  0.00  0.00     0.182 C 
HETATM    9  O   UNK N   1      33.997  10.446  10.616  0.00  0.00    -0.271 OA
HETATM   10  C   UNK N   1      34.441  12.556   5.492  0.00  0.00     0.176 C 
HETATM   11  N   UNK N   1      35.270  12.278  12.378  0.00  0.00    -0.341 N 
HETATM   12  C   UNK N   1      33.805  13.690   4.709  0.00  0.00     0.242 C 
HETATM   13  C   UNK N   1      35.608  11.103  12.998  0.00  0.00     0.243 C 
HETATM   14  C   UNK N   1      35.088  13.484  13.152  0.00  0.00     0.153 C 
HETATM   15  N   UNK N   1      34.276  14.139   3.498  0.00  0.00    -0.346 N 
HETATM   16  O   UNK N   1      32.873  14.274   5.241  0.00  0.00    -0.271 OA
HETATM   17  C   UNK N   1      35.918  11.027  14.479  0.00  0.00     0.179 C 
HETATM   18  O   UNK N   1      35.756  10.080  12.338  0.00  0.00    -0.271 OA
HETATM   19  C   UNK N   1      35.295  13.435   2.742  0.00  0.00     0.228 C 
HETATM   20  C   UNK N   1      33.703  15.324   2.907  0.00  0.00     0.153 C 
HETATM   21  N   UNK N   1      36.501   9.740  14.826  0.00  0.00    -0.341 N 
HETATM   22  C   UNK N   1      34.745  12.113   2.256  0.00  0.00     0.238 C 
HETATM   23  C   UNK N   1      37.812   9.493  14.491  0.00  0.00     0.243 C 
HETATM   24  C   UNK N   1      35.641   8.695  15.330  0.00  0.00     0.153 C 
HETATM   25  N   UNK N   1      35.529  11.179   1.646  0.00  0.00    -0.342 N 
HETATM   26  O   UNK N   1      33.562  11.862   2.457  0.00  0.00    -0.272 OA
HETATM   27  C   UNK N   1      38.472   8.131  14.651  0.00  0.00     0.179 C 
HETATM   28  O   UNK N   1      38.476  10.390  13.983  0.00  0.00    -0.271 OA
HETATM   29  C   UNK N   1      36.798  11.549   1.033  0.00  0.00     0.179 C 
HETATM   30  C   UNK N   1      34.946   9.886   1.347  0.00  0.00     0.153 C 
HETATM   31  N   UNK N   1      39.838   8.026  14.160  0.00  0.00    -0.341 N 
HETATM   32  C   UNK N   1      38.086  11.273   1.782  0.00  0.00     0.241 C 
HETATM   33  C   UNK N   1      40.091   7.830  12.834  0.00  0.00     0.242 C 
HETATM   34  C   UNK N   1      40.936   8.184  15.080  0.00  0.00     0.153 C 
HETATM   35  N   UNK N   1      38.490  10.038   2.168  0.00  0.00    -0.346 N 
HETATM   36  O   UNK N   1      38.836  12.214   1.982  0.00  0.00    -0.271 OA
HETATM   37  C   UNK N   1      38.977   7.677  11.827  0.00  0.00     0.172 C 
HETATM   38  O   UNK N   1      41.256   7.783  12.444  0.00  0.00    -0.271 OA
HETATM   39  C   UNK N   1      37.656   8.865   2.222  0.00  0.00     0.180 C 
HETATM   40  N   UNK N   1      39.542   7.598  10.506  0.00  0.00    -0.346 N 
HETATM   41  C   UNK N   1      38.152   6.430  12.093  0.00  0.00     0.042 C 
HETATM   42  C   UNK N   1      37.197   8.708   3.644  0.00  0.00     0.243 C 
HETATM   43  C   UNK N   1      39.040   8.307   9.478  0.00  0.00     0.240 C 
HETATM   44  N   UNK N   1      38.063   8.841   4.697  0.00  0.00    -0.341 N 
HETATM   45  O   UNK N   1      36.017   8.467   3.850  0.00  0.00    -0.271 OA
HETATM   46  C   UNK N   1      39.694   8.258   8.146  0.00  0.00     0.172 C 
HETATM   47  O   UNK N   1      37.982   8.901   9.600  0.00  0.00    -0.271 OA
HETATM   48  C   UNK N   1      37.595   8.595   6.033  0.00  0.00     0.179 C 
HETATM   49  C   UNK N   1      39.476   9.120   4.515  0.00  0.00     0.153 C 
HETATM   50  N   UNK N   1      39.139   7.149   7.437  0.00  0.00    -0.346 N 
HETATM   51  C   UNK N   1      41.207   8.124   8.237  0.00  0.00     0.042 C 
HETATM   52  C   UNK N   1      38.177   7.270   6.493  0.00  0.00     0.241 C 
HETATM   53  O   UNK N   1      37.796   6.260   5.925  0.00  0.00    -0.271 OA
HETATM   54  H   UNK N   1      36.464  13.114   5.699  0.00  0.00     0.163 HD
HETATM   55  H   UNK N   1      39.432   9.935   2.435  0.00  0.00     0.163 HD
HETATM   56  H   UNK N   1      40.315   7.009  10.349  0.00  0.00     0.163 HD
HETATM   57  H   UNK N   1      39.474   6.247   7.646  0.00  0.00     0.163 HD
ENDROOT
BRANCH   1  58
HETATM   58  C   UNK N   1      33.368  14.264   8.721  0.00  0.00     0.154 C 
BRANCH  58  59
HETATM   59  C   UNK N   1      34.030  15.615   8.383  0.00  0.00     0.016 C 
HETATM   60  C   UNK N   1      34.425  16.371   9.641  0.00  0.00     0.013 C 
BRANCH  59  61
HETATM   61  C   UNK N   1      33.114  16.522   7.575  0.00  0.00     0.033 C 
BRANCH  61  62
HETATM   62  C   UNK N   1      32.375  17.475   8.453  0.00  0.00    -0.031 C 
HETATM   63  C   UNK N   1      31.069  17.673   8.286  0.00  0.00    -0.035 C 
HETATM   64  C   UNK N   1      30.347  18.627   9.169  0.00  0.00     0.036 C 
ENDBRANCH  61  62
ENDBRANCH  59  61
ENDBRANCH  58  59
BRANCH  58  65
HETATM   65  O   UNK N   1      32.080  14.183   8.196  0.00  0.00    -0.393 OA
HETATM   66  H   UNK N   1      31.736  14.178   7.288  0.00  0.00     0.210 HD
ENDBRANCH  58  65
ENDBRANCH   1  58
BRANCH   8  67
HETATM   67  C   UNK N   1      36.703  12.544  10.385  0.00  0.00     0.009 C 
HETATM   68  C   UNK N   1      37.651  11.500  10.928  0.00  0.00     0.012 C 
HETATM   69  C   UNK N   1      37.293  13.910  10.673  0.00  0.00     0.012 C 
ENDBRANCH   8  67
BRANCH  10  70
HETATM   70  C   UNK N   1      34.592  11.136   4.967  0.00  0.00     0.030 C 
HETATM   71  C   UNK N   1      33.287  10.371   5.097  0.00  0.00     0.007 C 
ENDBRANCH  10  70
BRANCH  17  72
HETATM   72  C   UNK N   1      34.911  11.582  15.500  0.00  0.00     0.039 C 
BRANCH  72  73
HETATM   73  C   UNK N   1      35.552  12.149  16.754  0.00  0.00    -0.020 C 
HETATM   74  C   UNK N   1      35.286  11.196  17.902  0.00  0.00     0.009 C 
HETATM   75  C   UNK N   1      34.925  13.485  17.084  0.00  0.00     0.009 C 
ENDBRANCH  72  73
ENDBRANCH  17  72
BRANCH  27  76
HETATM   76  C   UNK N   1      37.983   7.033  15.609  0.00  0.00     0.039 C 
BRANCH  76  77
HETATM   77  C   UNK N   1      38.590   7.022  17.014  0.00  0.00    -0.020 C 
HETATM   78  C   UNK N   1      38.774   5.627  17.581  0.00  0.00     0.009 C 
HETATM   79  C   UNK N   1      37.846   7.913  17.985  0.00  0.00     0.009 C 
ENDBRANCH  76  77
ENDBRANCH  27  76
BRANCH  29  80
HETATM   80  C   UNK N   1      36.861  11.020  -0.394  0.00  0.00     0.039 C 
BRANCH  80  81
HETATM   81  C   UNK N   1      36.568  12.088  -1.421  0.00  0.00    -0.020 C 
HETATM   82  C   UNK N   1      35.123  11.945  -1.840  0.00  0.00     0.009 C 
HETATM   83  C   UNK N   1      36.771  13.458  -0.802  0.00  0.00     0.009 C 
ENDBRANCH  80  81
ENDBRANCH  29  80
BRANCH  39  84
HETATM   84  C   UNK N   1      38.329   7.575   1.697  0.00  0.00     0.009 C 
HETATM   85  C   UNK N   1      39.640   7.755   0.945  0.00  0.00     0.012 C 
HETATM   86  C   UNK N   1      37.386   6.722   0.880  0.00  0.00     0.012 C 
ENDBRANCH  39  84
BRANCH  48  87
HETATM   87  C   UNK N   1      37.570   9.854   6.941  0.00  0.00     0.039 C 
BRANCH  87  88
HETATM   88  C   UNK N   1      38.634  10.926   6.674  0.00  0.00    -0.020 C 
HETATM   89  C   UNK N   1      38.158  11.906   5.619  0.00  0.00     0.009 C 
HETATM   90  C   UNK N   1      38.923  11.707   7.933  0.00  0.00     0.009 C 
ENDBRANCH  87  88
ENDBRANCH  48  87
TORSDOF 16
ENDMDL
MODEL 6
REMARK VINA RESULT:      -6.3      2.782      5.627
REMARK  16 active torsions:
REMARK  status: ('A' for Active; 'I' for Inactive)
REMARK    1  A    between atoms: C_1  and  C_4 
REMARK    2  A    between atoms: C_4  and  C_9 
REMARK    3  A    between atoms: C_4  and  O_10 
REMARK    4  A    between atoms: C_9  and  C_14 
REMARK    5  A    between atoms: C_11  and  C_79 
REMARK    6  A    between atoms: C_13  and  C_18 
REMARK    7  A    between atoms: C_14  and  C_19 
REMARK    8  A    between atoms: C_26  and  C_32 
REMARK    9  A    between atoms: C_32  and  C_36 
REMARK   10  A    between atoms: C_39  and  C_46 
REMARK   11  A    between atoms: C_43  and  C_48 
REMARK   12  A    between atoms: C_46  and  C_51 
REMARK   13  A    between atoms: C_48  and  C_54 
REMARK   14  A    between atoms: C_59  and  C_65 
REMARK   15  A    between atoms: C_73  and  C_82 
REMARK   16  A    between atoms: C_82  and  C_83 
ROOT
HETATM    1  C   UNK N   1      25.421  16.827   4.768  0.00  0.00     0.207 C 
HETATM    2  N   UNK N   1      26.091  15.977   5.739  0.00  0.00    -0.339 N 
HETATM    3  C   UNK N   1      25.097  16.255   3.408  0.00  0.00     0.243 C 
HETATM    4  C   UNK N   1      27.453  15.885   5.849  0.00  0.00     0.243 C 
HETATM    5  C   UNK N   1      25.264  15.313   6.720  0.00  0.00     0.153 C 
HETATM    6  N   UNK N   1      23.930  15.603   3.220  0.00  0.00    -0.346 N 
HETATM    7  O   UNK N   1      25.828  16.454   2.456  0.00  0.00    -0.271 OA
HETATM    8  C   UNK N   1      28.375  16.498   4.795  0.00  0.00     0.182 C 
HETATM    9  O   UNK N   1      27.931  15.300   6.806  0.00  0.00    -0.271 OA
HETATM   10  C   UNK N   1      22.980  15.556   4.290  0.00  0.00     0.176 C 
HETATM   11  N   UNK N   1      29.762  16.743   5.177  0.00  0.00    -0.341 N 
HETATM   12  C   UNK N   1      21.905  16.606   4.079  0.00  0.00     0.242 C 
HETATM   13  C   UNK N   1      30.596  15.750   5.623  0.00  0.00     0.243 C 
HETATM   14  C   UNK N   1      30.286  18.054   4.875  0.00  0.00     0.153 C 
HETATM   15  N   UNK N   1      20.855  16.458   3.205  0.00  0.00    -0.346 N 
HETATM   16  O   UNK N   1      22.045  17.666   4.671  0.00  0.00    -0.271 OA
HETATM   17  C   UNK N   1      32.097  15.932   5.712  0.00  0.00     0.179 C 
HETATM   18  O   UNK N   1      30.146  14.639   5.883  0.00  0.00    -0.271 OA
HETATM   19  C   UNK N   1      20.545  15.197   2.555  0.00  0.00     0.228 C 
HETATM   20  C   UNK N   1      19.973  17.573   2.956  0.00  0.00     0.153 C 
HETATM   21  N   UNK N   1      32.764  14.661   5.953  0.00  0.00    -0.341 N 
HETATM   22  C   UNK N   1      20.079  14.195   3.587  0.00  0.00     0.238 C 
HETATM   23  C   UNK N   1      32.887  13.768   4.915  0.00  0.00     0.243 C 
HETATM   24  C   UNK N   1      33.101  14.295   7.309  0.00  0.00     0.153 C 
HETATM   25  N   UNK N   1      19.863  12.884   3.281  0.00  0.00    -0.342 N 
HETATM   26  O   UNK N   1      19.933  14.571   4.744  0.00  0.00    -0.272 OA
HETATM   27  C   UNK N   1      33.410  12.350   5.092  0.00  0.00     0.179 C 
HETATM   28  O   UNK N   1      32.504  14.096   3.797  0.00  0.00    -0.271 OA
HETATM   29  C   UNK N   1      19.635  12.462   1.906  0.00  0.00     0.179 C 
HETATM   30  C   UNK N   1      19.560  11.969   4.364  0.00  0.00     0.153 C 
HETATM   31  N   UNK N   1      33.386  11.511   3.903  0.00  0.00    -0.341 N 
HETATM   32  C   UNK N   1      20.775  11.837   1.127  0.00  0.00     0.241 C 
HETATM   33  C   UNK N   1      32.239  10.882   3.515  0.00  0.00     0.242 C 
HETATM   34  C   UNK N   1      34.574  11.387   3.098  0.00  0.00     0.153 C 
HETATM   35  N   UNK N   1      21.417  10.703   1.500  0.00  0.00    -0.346 N 
HETATM   36  O   UNK N   1      21.081  12.350   0.063  0.00  0.00    -0.271 OA
HETATM   37  C   UNK N   1      30.962  10.995   4.312  0.00  0.00     0.172 C 
HETATM   38  O   UNK N   1      32.239  10.211   2.485  0.00  0.00    -0.271 OA
HETATM   39  C   UNK N   1      21.353  10.097   2.806  0.00  0.00     0.180 C 
HETATM   40  N   UNK N   1      29.903  10.326   3.606  0.00  0.00    -0.346 N 
HETATM   41  C   UNK N   1      31.111  10.378   5.692  0.00  0.00     0.042 C 
HETATM   42  C   UNK N   1      22.570  10.543   3.565  0.00  0.00     0.243 C 
HETATM   43  C   UNK N   1      28.690  10.890   3.448  0.00  0.00     0.240 C 
HETATM   44  N   UNK N   1      23.815  10.539   2.994  0.00  0.00    -0.341 N 
HETATM   45  O   UNK N   1      22.427  10.929   4.716  0.00  0.00    -0.271 OA
HETATM   46  C   UNK N   1      27.645  10.202   2.649  0.00  0.00     0.172 C 
HETATM   47  O   UNK N   1      28.403  11.908   4.054  0.00  0.00    -0.271 OA
HETATM   48  C   UNK N   1      24.959  10.891   3.789  0.00  0.00     0.179 C 
HETATM   49  C   UNK N   1      24.049  10.086   1.635  0.00  0.00     0.153 C 
HETATM   50  N   UNK N   1      26.940   9.324   3.530  0.00  0.00    -0.346 N 
HETATM   51  C   UNK N   1      28.217   9.424   1.474  0.00  0.00     0.042 C 
HETATM   52  C   UNK N   1      25.737   9.618   4.074  0.00  0.00     0.241 C 
HETATM   53  O   UNK N   1      25.208   8.783   4.789  0.00  0.00    -0.271 OA
HETATM   54  H   UNK N   1      23.735  15.166   2.360  0.00  0.00     0.163 HD
HETATM   55  H   UNK N   1      21.975  10.257   0.822  0.00  0.00     0.163 HD
HETATM   56  H   UNK N   1      30.068   9.432   3.227  0.00  0.00     0.163 HD
HETATM   57  H   UNK N   1      27.353   8.459   3.754  0.00  0.00     0.163 HD
ENDROOT
BRANCH   1  58
HETATM   58  C   UNK N   1      25.479  18.342   4.989  0.00  0.00     0.154 C 
BRANCH  58  59
HETATM   59  C   UNK N   1      25.634  19.090   3.649  0.00  0.00     0.016 C 
HETATM   60  C   UNK N   1      27.062  19.562   3.438  0.00  0.00     0.013 C 
BRANCH  59  61
HETATM   61  C   UNK N   1      24.732  20.313   3.563  0.00  0.00     0.033 C 
BRANCH  61  62
HETATM   62  C   UNK N   1      23.708  20.162   2.487  0.00  0.00    -0.031 C 
HETATM   63  C   UNK N   1      22.455  20.563   2.688  0.00  0.00    -0.035 C 
HETATM   64  C   UNK N   1      21.446  20.406   1.606  0.00  0.00     0.036 C 
ENDBRANCH  61  62
ENDBRANCH  59  61
ENDBRANCH  58  59
BRANCH  58  65
HETATM   65  O   UNK N   1      24.354  18.776   5.688  0.00  0.00    -0.393 OA
HETATM   66  H   UNK N   1      23.752  19.528   5.568  0.00  0.00     0.210 HD
ENDBRANCH  58  65
ENDBRANCH   1  58
BRANCH   8  67
HETATM   67  C   UNK N   1      28.296  15.796   3.429  0.00  0.00     0.009 C 
HETATM   68  C   UNK N   1      28.597  14.316   3.475  0.00  0.00     0.012 C 
HETATM   69  C   UNK N   1      29.240  16.438   2.432  0.00  0.00     0.012 C 
ENDBRANCH   8  67
BRANCH  10  70
HETATM   70  C   UNK N   1      22.707  14.141   4.778  0.00  0.00     0.030 C 
HETATM   71  C   UNK N   1      22.534  14.114   6.286  0.00  0.00     0.007 C 
ENDBRANCH  10  70
BRANCH  17  72
HETATM   72  C   UNK N   1      32.678  17.129   6.482  0.00  0.00     0.039 C 
BRANCH  72  73
HETATM   73  C   UNK N   1      32.479  17.050   7.986  0.00  0.00    -0.020 C 
HETATM   74  C   UNK N   1      31.310  17.938   8.363  0.00  0.00     0.009 C 
HETATM   75  C   UNK N   1      33.717  17.562   8.688  0.00  0.00     0.009 C 
ENDBRANCH  72  73
ENDBRANCH  17  72
BRANCH  27  76
HETATM   76  C   UNK N   1      34.296  11.887   6.260  0.00  0.00     0.039 C 
BRANCH  76  77
HETATM   77  C   UNK N   1      35.809  12.035   6.078  0.00  0.00    -0.020 C 
HETATM   78  C   UNK N   1      36.563  10.724   6.205  0.00  0.00     0.009 C 
HETATM   79  C   UNK N   1      36.410  13.098   6.972  0.00  0.00     0.009 C 
ENDBRANCH  76  77
ENDBRANCH  27  76
BRANCH  29  80
HETATM   80  C   UNK N   1      18.375  11.609   1.824  0.00  0.00     0.039 C 
BRANCH  80  81
HETATM   81  C   UNK N   1      17.449  12.050   0.716  0.00  0.00    -0.020 C 
HETATM   82  C   UNK N   1      17.807  13.472   0.349  0.00  0.00     0.009 C 
HETATM   83  C   UNK N   1      17.646  11.160  -0.497  0.00  0.00     0.009 C 
ENDBRANCH  80  81
ENDBRANCH  29  80
BRANCH  39  84
HETATM   84  C   UNK N   1      21.227   8.555   2.791  0.00  0.00     0.009 C 
HETATM   85  C   UNK N   1      20.335   7.961   1.712  0.00  0.00     0.012 C 
HETATM   86  C   UNK N   1      20.838   7.995   4.140  0.00  0.00     0.012 C 
ENDBRANCH  39  84
BRANCH  48  87
HETATM   87  C   UNK N   1      25.652  12.212   3.358  0.00  0.00     0.039 C 
BRANCH  87  88
HETATM   88  C   UNK N   1      25.608  12.565   1.866  0.00  0.00    -0.020 C 
HETATM   89  C   UNK N   1      24.349  13.343   1.534  0.00  0.00     0.009 C 
HETATM   90  C   UNK N   1      26.792  13.424   1.492  0.00  0.00     0.009 C 
ENDBRANCH  87  88
ENDBRANCH  48  87
TORSDOF 16
ENDMDL
MODEL 7
REMARK VINA RESULT:      -6.3      1.912      2.418
REMARK  16 active torsions:
REMARK  status: ('A' for Active; 'I' for Inactive)
REMARK    1  A    between atoms: C_1  and  C_4 
REMARK    2  A    between atoms: C_4  and  C_9 
REMARK    3  A    between atoms: C_4  and  O_10 
REMARK    4  A    between atoms: C_9  and  C_14 
REMARK    5  A    between atoms: C_11  and  C_79 
REMARK    6  A    between atoms: C_13  and  C_18 
REMARK    7  A    between atoms: C_14  and  C_19 
REMARK    8  A    between atoms: C_26  and  C_32 
REMARK    9  A    between atoms: C_32  and  C_36 
REMARK   10  A    between atoms: C_39  and  C_46 
REMARK   11  A    between atoms: C_43  and  C_48 
REMARK   12  A    between atoms: C_46  and  C_51 
REMARK   13  A    between atoms: C_48  and  C_54 
REMARK   14  A    between atoms: C_59  and  C_65 
REMARK   15  A    between atoms: C_73  and  C_82 
REMARK   16  A    between atoms: C_82  and  C_83 
ROOT
HETATM    1  C   UNK N   1      22.563  14.515   4.351  0.00  0.00     0.207 C 
HETATM    2  N   UNK N   1      23.561  14.229   5.369  0.00  0.00    -0.339 N 
HETATM    3  C   UNK N   1      22.821  14.051   2.936  0.00  0.00     0.243 C 
HETATM    4  C   UNK N   1      24.601  15.069   5.664  0.00  0.00     0.243 C 
HETATM    5  C   UNK N   1      23.348  13.064   6.198  0.00  0.00     0.153 C 
HETATM    6  N   UNK N   1      22.438  12.812   2.561  0.00  0.00    -0.346 N 
HETATM    7  O   UNK N   1      23.282  14.810   2.104  0.00  0.00    -0.271 OA
HETATM    8  C   UNK N   1      24.924  16.270   4.774  0.00  0.00     0.182 C 
HETATM    9  O   UNK N   1      25.280  14.849   6.652  0.00  0.00    -0.271 OA
HETATM   10  C   UNK N   1      21.706  12.001   3.486  0.00  0.00     0.176 C 
HETATM   11  N   UNK N   1      25.731  17.338   5.355  0.00  0.00    -0.341 N 
HETATM   12  C   UNK N   1      20.222  12.063   3.172  0.00  0.00     0.242 C 
HETATM   13  C   UNK N   1      26.984  17.126   5.871  0.00  0.00     0.243 C 
HETATM   14  C   UNK N   1      25.232  18.682   5.184  0.00  0.00     0.153 C 
HETATM   15  N   UNK N   1      19.628  11.354   2.154  0.00  0.00    -0.346 N 
HETATM   16  O   UNK N   1      19.552  12.852   3.821  0.00  0.00    -0.271 OA
HETATM   17  C   UNK N   1      27.939  18.262   6.175  0.00  0.00     0.179 C 
HETATM   18  O   UNK N   1      27.402  15.983   6.019  0.00  0.00    -0.271 OA
HETATM   19  C   UNK N   1      20.317  10.312   1.416  0.00  0.00     0.228 C 
HETATM   20  C   UNK N   1      18.243  11.599   1.832  0.00  0.00     0.153 C 
HETATM   21  N   UNK N   1      29.276  17.761   6.454  0.00  0.00    -0.341 N 
HETATM   22  C   UNK N   1      20.593   9.139   2.330  0.00  0.00     0.238 C 
HETATM   23  C   UNK N   1      30.054  17.326   5.406  0.00  0.00     0.243 C 
HETATM   24  C   UNK N   1      29.673  17.553   7.827  0.00  0.00     0.153 C 
HETATM   25  N   UNK N   1      21.359   8.081   1.943  0.00  0.00    -0.342 N 
HETATM   26  O   UNK N   1      20.145   9.168   3.470  0.00  0.00    -0.272 OA
HETATM   27  C   UNK N   1      31.393  16.629   5.595  0.00  0.00     0.179 C 
HETATM   28  O   UNK N   1      29.632  17.446   4.261  0.00  0.00    -0.271 OA
HETATM   29  C   UNK N   1      21.584   7.792   0.533  0.00  0.00     0.179 C 
HETATM   30  C   UNK N   1      21.690   7.075   2.934  0.00  0.00     0.153 C 
HETATM   31  N   UNK N   1      32.038  16.153   4.380  0.00  0.00    -0.341 N 
HETATM   32  C   UNK N   1      22.894   8.208  -0.106  0.00  0.00     0.241 C 
HETATM   33  C   UNK N   1      31.668  14.969   3.810  0.00  0.00     0.242 C 
HETATM   34  C   UNK N   1      33.041  16.968   3.743  0.00  0.00     0.153 C 
HETATM   35  N   UNK N   1      24.111   7.772   0.306  0.00  0.00    -0.346 N 
HETATM   36  O   UNK N   1      22.841   8.920  -1.094  0.00  0.00    -0.271 OA
HETATM   37  C   UNK N   1      30.609  14.087   4.427  0.00  0.00     0.172 C 
HETATM   38  O   UNK N   1      32.204  14.612   2.763  0.00  0.00    -0.271 OA
HETATM   39  C   UNK N   1      24.385   7.125   1.563  0.00  0.00     0.180 C 
HETATM   40  N   UNK N   1      30.354  12.974   3.552  0.00  0.00    -0.346 N 
HETATM   41  C   UNK N   1      31.040  13.567   5.786  0.00  0.00     0.042 C 
HETATM   42  C   UNK N   1      24.904   8.177   2.502  0.00  0.00     0.243 C 
HETATM   43  C   UNK N   1      29.101  12.583   3.252  0.00  0.00     0.240 C 
HETATM   44  N   UNK N   1      25.849   9.087   2.110  0.00  0.00    -0.341 N 
HETATM   45  O   UNK N   1      24.452   8.215   3.638  0.00  0.00    -0.271 OA
HETATM   46  C   UNK N   1      28.875  11.477   2.287  0.00  0.00     0.172 C 
HETATM   47  O   UNK N   1      28.150  13.051   3.854  0.00  0.00    -0.271 OA
HETATM   48  C   UNK N   1      26.377  10.017   3.070  0.00  0.00     0.179 C 
HETATM   49  C   UNK N   1      26.428   9.088   0.779  0.00  0.00     0.153 C 
HETATM   50  N   UNK N   1      28.904  10.253   3.025  0.00  0.00    -0.346 N 
HETATM   51  C   UNK N   1      29.909  11.447   1.171  0.00  0.00     0.042 C 
HETATM   52  C   UNK N   1      27.793   9.583   3.408  0.00  0.00     0.241 C 
HETATM   53  O   UNK N   1      27.932   8.530   4.007  0.00  0.00    -0.271 OA
HETATM   54  H   UNK N   1      22.660  12.471   1.665  0.00  0.00     0.163 HD
HETATM   55  H   UNK N   1      24.869   7.910  -0.306  0.00  0.00     0.163 HD
HETATM   56  H   UNK N   1      31.115  12.485   3.164  0.00  0.00     0.163 HD
HETATM   57  H   UNK N   1      29.781   9.876   3.267  0.00  0.00     0.163 HD
ENDROOT
BRANCH   1  58
HETATM   58  C   UNK N   1      21.549  15.626   4.641  0.00  0.00     0.154 C 
BRANCH  58  59
HETATM   59  C   UNK N   1      20.809  15.366   5.969  0.00  0.00     0.016 C 
HETATM   60  C   UNK N   1      19.328  15.685   5.851  0.00  0.00     0.013 C 
BRANCH  59  61
HETATM   61  C   UNK N   1      21.365  16.200   7.113  0.00  0.00     0.033 C 
BRANCH  61  62
HETATM   62  C   UNK N   1      20.987  15.630   8.440  0.00  0.00    -0.031 C 
HETATM   63  C   UNK N   1      21.043  14.318   8.651  0.00  0.00    -0.035 C 
HETATM   64  C   UNK N   1      20.662  13.765   9.978  0.00  0.00     0.036 C 
ENDBRANCH  61  62
ENDBRANCH  59  61
ENDBRANCH  58  59
BRANCH  58  65
HETATM   65  O   UNK N   1      22.178  16.870   4.643  0.00  0.00    -0.393 OA
HETATM   66  H   UNK N   1      22.544  17.423   5.352  0.00  0.00     0.210 HD
ENDBRANCH  58  65
ENDBRANCH   1  58
BRANCH   8  67
HETATM   67  C   UNK N   1      25.448  15.880   3.382  0.00  0.00     0.009 C 
HETATM   68  C   UNK N   1      26.878  15.389   3.375  0.00  0.00     0.012 C 
HETATM   69  C   UNK N   1      25.344  17.041   2.415  0.00  0.00     0.012 C 
ENDBRANCH   8  67
BRANCH  10  70
HETATM   70  C   UNK N   1      22.444  10.728   3.872  0.00  0.00     0.030 C 
HETATM   71  C   UNK N   1      22.218  10.396   5.335  0.00  0.00     0.007 C 
ENDBRANCH  10  70
BRANCH  17  72
HETATM   72  C   UNK N   1      27.481  19.427   7.068  0.00  0.00     0.039 C 
BRANCH  72  73
HETATM   73  C   UNK N   1      27.722  20.800   6.464  0.00  0.00    -0.020 C 
HETATM   74  C   UNK N   1      26.544  21.689   6.810  0.00  0.00     0.009 C 
HETATM   75  C   UNK N   1      27.810  20.683   4.959  0.00  0.00     0.009 C 
ENDBRANCH  72  73
ENDBRANCH  17  72
BRANCH  27  76
HETATM   76  C   UNK N   1      32.267  16.746   6.854  0.00  0.00     0.039 C 
BRANCH  76  77
HETATM   77  C   UNK N   1      33.730  17.143   6.644  0.00  0.00    -0.020 C 
HETATM   78  C   UNK N   1      34.689  15.969   6.708  0.00  0.00     0.009 C 
HETATM   79  C   UNK N   1      34.176  18.261   7.561  0.00  0.00     0.009 C 
ENDBRANCH  76  77
ENDBRANCH  27  76
BRANCH  29  80
HETATM   80  C   UNK N   1      21.264   6.331   0.242  0.00  0.00     0.039 C 
BRANCH  80  81
HETATM   81  C   UNK N   1      20.228   6.172  -0.845  0.00  0.00    -0.020 C 
HETATM   82  C   UNK N   1      19.449   7.464  -0.938  0.00  0.00     0.009 C 
HETATM   83  C   UNK N   1      20.917   5.912  -2.172  0.00  0.00     0.009 C 
ENDBRANCH  80  81
ENDBRANCH  29  80
BRANCH  39  84
HETATM   84  C   UNK N   1      25.354   5.923   1.467  0.00  0.00     0.009 C 
HETATM   85  C   UNK N   1      25.599   5.363   0.074  0.00  0.00     0.012 C 
HETATM   86  C   UNK N   1      24.978   4.802   2.409  0.00  0.00     0.012 C 
ENDBRANCH  39  84
BRANCH  48  87
HETATM   87  C   UNK N   1      26.002  11.498   2.795  0.00  0.00     0.039 C 
BRANCH  87  88
HETATM   88  C   UNK N   1      25.837  11.913   1.328  0.00  0.00    -0.020 C 
HETATM   89  C   UNK N   1      24.438  11.598   0.834  0.00  0.00     0.009 C 
HETATM   90  C   UNK N   1      26.059  13.398   1.171  0.00  0.00     0.009 C 
ENDBRANCH  87  88
ENDBRANCH  48  87
TORSDOF 16
ENDMDL
MODEL 8
REMARK VINA RESULT:      -5.4      3.881      8.868
REMARK  16 active torsions:
REMARK  status: ('A' for Active; 'I' for Inactive)
REMARK    1  A    between atoms: C_1  and  C_4 
REMARK    2  A    between atoms: C_4  and  C_9 
REMARK    3  A    between atoms: C_4  and  O_10 
REMARK    4  A    between atoms: C_9  and  C_14 
REMARK    5  A    between atoms: C_11  and  C_79 
REMARK    6  A    between atoms: C_13  and  C_18 
REMARK    7  A    between atoms: C_14  and  C_19 
REMARK    8  A    between atoms: C_26  and  C_32 
REMARK    9  A    between atoms: C_32  and  C_36 
REMARK   10  A    between atoms: C_39  and  C_46 
REMARK   11  A    between atoms: C_43  and  C_48 
REMARK   12  A    between atoms: C_46  and  C_51 
REMARK   13  A    between atoms: C_48  and  C_54 
REMARK   14  A    between atoms: C_59  and  C_65 
REMARK   15  A    between atoms: C_73  and  C_82 
REMARK   16  A    between atoms: C_82  and  C_83 
ROOT
HETATM    1  C   UNK N   1      30.512  10.724   1.460  0.00  0.00     0.207 C 
HETATM    2  N   UNK N   1      29.724  11.776   0.839  0.00  0.00    -0.339 N 
HETATM    3  C   UNK N   1      29.825   9.431   1.835  0.00  0.00     0.243 C 
HETATM    4  C   UNK N   1      29.068  12.747   1.548  0.00  0.00     0.243 C 
HETATM    5  C   UNK N   1      29.761  11.869  -0.602  0.00  0.00     0.153 C 
HETATM    6  N   UNK N   1      29.733   8.437   0.927  0.00  0.00    -0.346 N 
HETATM    7  O   UNK N   1      29.436   9.237   2.972  0.00  0.00    -0.271 OA
HETATM    8  C   UNK N   1      28.926  12.656   3.068  0.00  0.00     0.182 C 
HETATM    9  O   UNK N   1      28.590  13.696   0.951  0.00  0.00    -0.271 OA
HETATM   10  C   UNK N   1      30.379   8.593  -0.341  0.00  0.00     0.176 C 
HETATM   11  N   UNK N   1      28.617  13.887   3.788  0.00  0.00    -0.341 N 
HETATM   12  C   UNK N   1      31.708   7.860  -0.343  0.00  0.00     0.242 C 
HETATM   13  C   UNK N   1      27.503  14.643   3.525  0.00  0.00     0.243 C 
HETATM   14  C   UNK N   1      29.440  14.178   4.938  0.00  0.00     0.153 C 
HETATM   15  N   UNK N   1      31.828   6.500  -0.503  0.00  0.00    -0.346 N 
HETATM   16  O   UNK N   1      32.706   8.525  -0.109  0.00  0.00    -0.271 OA
HETATM   17  C   UNK N   1      27.016  15.725   4.467  0.00  0.00     0.179 C 
HETATM   18  O   UNK N   1      26.810  14.396   2.544  0.00  0.00    -0.271 OA
HETATM   19  C   UNK N   1      30.719   5.654  -0.903  0.00  0.00     0.228 C 
HETATM   20  C   UNK N   1      33.118   5.875  -0.332  0.00  0.00     0.153 C 
HETATM   21  N   UNK N   1      25.687  16.183   4.094  0.00  0.00    -0.341 N 
HETATM   22  C   UNK N   1      30.317   5.980  -2.324  0.00  0.00     0.238 C 
HETATM   23  C   UNK N   1      24.605  15.382   4.379  0.00  0.00     0.243 C 
HETATM   24  C   UNK N   1      25.558  17.361   3.268  0.00  0.00     0.153 C 
HETATM   25  N   UNK N   1      29.208   5.445  -2.908  0.00  0.00    -0.342 N 
HETATM   26  O   UNK N   1      30.994   6.786  -2.953  0.00  0.00    -0.272 OA
HETATM   27  C   UNK N   1      23.196  15.679   3.888  0.00  0.00     0.179 C 
HETATM   28  O   UNK N   1      24.780  14.345   5.009  0.00  0.00    -0.271 OA
HETATM   29  C   UNK N   1      28.604   4.223  -2.391  0.00  0.00     0.179 C 
HETATM   30  C   UNK N   1      28.823   5.927  -4.219  0.00  0.00     0.153 C 
HETATM   31  N   UNK N   1      22.188  14.677   4.206  0.00  0.00    -0.341 N 
HETATM   32  C   UNK N   1      27.367   4.323  -1.521  0.00  0.00     0.241 C 
HETATM   33  C   UNK N   1      22.058  13.552   3.446  0.00  0.00     0.242 C 
HETATM   34  C   UNK N   1      21.355  14.854   5.368  0.00  0.00     0.153 C 
HETATM   35  N   UNK N   1      26.199   4.879  -1.924  0.00  0.00    -0.346 N 
HETATM   36  O   UNK N   1      27.410   3.805  -0.418  0.00  0.00    -0.271 OA
HETATM   37  C   UNK N   1      22.919  13.310   2.230  0.00  0.00     0.172 C 
HETATM   38  O   UNK N   1      21.225  12.705   3.762  0.00  0.00    -0.271 OA
HETATM   39  C   UNK N   1      26.029   5.724  -3.079  0.00  0.00     0.180 C 
HETATM   40  N   UNK N   1      22.637  12.002   1.703  0.00  0.00    -0.346 N 
HETATM   41  C   UNK N   1      22.665  14.349   1.152  0.00  0.00     0.042 C 
HETATM   42  C   UNK N   1      26.063   7.147  -2.599  0.00  0.00     0.243 C 
HETATM   43  C   UNK N   1      23.621  11.155   1.346  0.00  0.00     0.240 C 
HETATM   44  N   UNK N   1      25.366   7.549  -1.491  0.00  0.00    -0.341 N 
HETATM   45  O   UNK N   1      26.744   7.952  -3.217  0.00  0.00    -0.271 OA
HETATM   46  C   UNK N   1      23.294   9.785   0.876  0.00  0.00     0.172 C 
HETATM   47  O   UNK N   1      24.775  11.542   1.293  0.00  0.00    -0.271 OA
HETATM   48  C   UNK N   1      25.360   8.937  -1.124  0.00  0.00     0.179 C 
HETATM   49  C   UNK N   1      24.535   6.642  -0.720  0.00  0.00     0.153 C 
HETATM   50  N   UNK N   1      23.068   9.858  -0.534  0.00  0.00    -0.346 N 
HETATM   51  C   UNK N   1      22.078   9.196   1.576  0.00  0.00     0.042 C 
HETATM   52  C   UNK N   1      23.989   9.501  -1.458  0.00  0.00     0.241 C 
HETATM   53  O   UNK N   1      23.681   9.573  -2.636  0.00  0.00    -0.271 OA
HETATM   54  H   UNK N   1      29.230   7.617   1.133  0.00  0.00     0.163 HD
HETATM   55  H   UNK N   1      25.399   4.690  -1.382  0.00  0.00     0.163 HD
HETATM   56  H   UNK N   1      21.700  11.718   1.601  0.00  0.00     0.163 HD
HETATM   57  H   UNK N   1      22.195  10.186  -0.849  0.00  0.00     0.163 HD
ENDROOT
BRANCH   1  58
HETATM   58  C   UNK N   1      31.845  11.119   2.102  0.00  0.00     0.154 C 
BRANCH  58  59
HETATM   59  C   UNK N   1      32.332  12.482   1.570  0.00  0.00     0.016 C 
HETATM   60  C   UNK N   1      33.333  12.313   0.440  0.00  0.00     0.013 C 
BRANCH  59  61
HETATM   61  C   UNK N   1      33.002  13.318   2.650  0.00  0.00     0.033 C 
BRANCH  61  62
HETATM   62  C   UNK N   1      32.317  14.632   2.829  0.00  0.00    -0.031 C 
HETATM   63  C   UNK N   1      33.023  15.736   3.062  0.00  0.00    -0.035 C 
HETATM   64  C   UNK N   1      32.326  17.037   3.238  0.00  0.00     0.036 C 
ENDBRANCH  61  62
ENDBRANCH  59  61
ENDBRANCH  58  59
BRANCH  58  65
HETATM   65  O   UNK N   1      31.734  11.125   3.491  0.00  0.00    -0.393 OA
HETATM   66  H   UNK N   1      32.012  10.498   4.179  0.00  0.00     0.210 HD
ENDBRANCH  58  65
ENDBRANCH   1  58
BRANCH   8  67
HETATM   67  C   UNK N   1      28.017  11.505   3.532  0.00  0.00     0.009 C 
HETATM   68  C   UNK N   1      26.553  11.870   3.620  0.00  0.00     0.012 C 
HETATM   69  C   UNK N   1      28.453  10.978   4.883  0.00  0.00     0.012 C 
ENDBRANCH   8  67
BRANCH  10  70
HETATM   70  C   UNK N   1      29.403   8.593  -1.508  0.00  0.00     0.030 C 
HETATM   71  C   UNK N   1      29.845   9.570  -2.582  0.00  0.00     0.007 C 
ENDBRANCH  10  70
BRANCH  17  72
HETATM   72  C   UNK N   1      27.981  16.831   4.923  0.00  0.00     0.039 C 
BRANCH  72  73
HETATM   73  C   UNK N   1      27.653  17.412   6.287  0.00  0.00    -0.020 C 
HETATM   74  C   UNK N   1      27.440  18.905   6.135  0.00  0.00     0.009 C 
HETATM   75  C   UNK N   1      28.817  17.187   7.227  0.00  0.00     0.009 C 
ENDBRANCH  72  73
ENDBRANCH  17  72
BRANCH  27  76
HETATM   76  C   UNK N   1      22.694  17.069   3.465  0.00  0.00     0.039 C 
BRANCH  76  77
HETATM   77  C   UNK N   1      21.916  17.870   4.512  0.00  0.00    -0.020 C 
HETATM   78  C   UNK N   1      21.164  19.052   3.931  0.00  0.00     0.009 C 
HETATM   79  C   UNK N   1      22.771  18.292   5.688  0.00  0.00     0.009 C 
ENDBRANCH  76  77
ENDBRANCH  27  76
BRANCH  29  80
HETATM   80  C   UNK N   1      28.408   3.221  -3.522  0.00  0.00     0.039 C 
BRANCH  80  81
HETATM   81  C   UNK N   1      27.732   1.952  -3.059  0.00  0.00    -0.020 C 
HETATM   82  C   UNK N   1      26.626   1.632  -4.038  0.00  0.00     0.009 C 
HETATM   83  C   UNK N   1      28.734   0.813  -3.053  0.00  0.00     0.009 C 
ENDBRANCH  80  81
ENDBRANCH  29  80
BRANCH  39  84
HETATM   84  C   UNK N   1      24.754   5.433  -3.904  0.00  0.00     0.009 C 
HETATM   85  C   UNK N   1      23.945   4.213  -3.490  0.00  0.00     0.012 C 
HETATM   86  C   UNK N   1      25.025   5.385  -5.390  0.00  0.00     0.012 C 
ENDBRANCH  39  84
BRANCH  48  87
HETATM   87  C   UNK N   1      26.083   9.246   0.215  0.00  0.00     0.039 C 
BRANCH  87  88
HETATM   88  C   UNK N   1      26.045   8.156   1.293  0.00  0.00    -0.020 C 
HETATM   89  C   UNK N   1      27.190   7.178   1.110  0.00  0.00     0.009 C 
HETATM   90  C   UNK N   1      26.177   8.769   2.667  0.00  0.00     0.009 C 
ENDBRANCH  87  88
ENDBRANCH  48  87
TORSDOF 16
ENDMDL
MODEL 9
REMARK VINA RESULT:      -5.4      2.491      7.893
REMARK  16 active torsions:
REMARK  status: ('A' for Active; 'I' for Inactive)
REMARK    1  A    between atoms: C_1  and  C_4 
REMARK    2  A    between atoms: C_4  and  C_9 
REMARK    3  A    between atoms: C_4  and  O_10 
REMARK    4  A    between atoms: C_9  and  C_14 
REMARK    5  A    between atoms: C_11  and  C_79 
REMARK    6  A    between atoms: C_13  and  C_18 
REMARK    7  A    between atoms: C_14  and  C_19 
REMARK    8  A    between atoms: C_26  and  C_32 
REMARK    9  A    between atoms: C_32  and  C_36 
REMARK   10  A    between atoms: C_39  and  C_46 
REMARK   11  A    between atoms: C_43  and  C_48 
REMARK   12  A    between atoms: C_46  and  C_51 
REMARK   13  A    between atoms: C_48  and  C_54 
REMARK   14  A    between atoms: C_59  and  C_65 
REMARK   15  A    between atoms: C_73  and  C_82 
REMARK   16  A    between atoms: C_82  and  C_83 
ROOT
HETATM    1  C   UNK N   1      30.344  12.925   2.879  0.00  0.00     0.207 C 
HETATM    2  N   UNK N   1      29.415  13.648   2.027  0.00  0.00    -0.339 N 
HETATM    3  C   UNK N   1      29.805  11.835   3.776  0.00  0.00     0.243 C 
HETATM    4  C   UNK N   1      28.762  14.787   2.417  0.00  0.00     0.243 C 
HETATM    5  C   UNK N   1      29.295  13.209   0.655  0.00  0.00     0.153 C 
HETATM    6  N   UNK N   1      29.699  10.575   3.304  0.00  0.00    -0.346 N 
HETATM    7  O   UNK N   1      29.553  12.056   4.946  0.00  0.00    -0.271 OA
HETATM    8  C   UNK N   1      28.786  15.253   3.873  0.00  0.00     0.182 C 
HETATM    9  O   UNK N   1      28.150  15.434   1.584  0.00  0.00    -0.271 OA
HETATM   10  C   UNK N   1      30.195  10.280   1.994  0.00  0.00     0.176 C 
HETATM   11  N   UNK N   1      28.457  16.650   4.136  0.00  0.00    -0.341 N 
HETATM   12  C   UNK N   1      31.570   9.645   2.088  0.00  0.00     0.242 C 
HETATM   13  C   UNK N   1      27.266  17.216   3.762  0.00  0.00     0.243 C 
HETATM   14  C   UNK N   1      29.369  17.371   4.992  0.00  0.00     0.153 C 
HETATM   15  N   UNK N   1      31.781   8.326   2.413  0.00  0.00    -0.346 N 
HETATM   16  O   UNK N   1      32.531  10.385   1.941  0.00  0.00    -0.271 OA
HETATM   17  C   UNK N   1      26.795  18.550   4.305  0.00  0.00     0.179 C 
HETATM   18  O   UNK N   1      26.496  16.603   3.030  0.00  0.00    -0.271 OA
HETATM   19  C   UNK N   1      30.706   7.354   2.486  0.00  0.00     0.228 C 
HETATM   20  C   UNK N   1      33.126   7.854   2.634  0.00  0.00     0.153 C 
HETATM   21  N   UNK N   1      25.402  18.791   3.964  0.00  0.00    -0.341 N 
HETATM   22  C   UNK N   1      30.134   7.123   1.105  0.00  0.00     0.238 C 
HETATM   23  C   UNK N   1      24.422  18.112   4.651  0.00  0.00     0.243 C 
HETATM   24  C   UNK N   1      25.095  19.580   2.793  0.00  0.00     0.153 C 
HETATM   25  N   UNK N   1      29.017   6.371   0.897  0.00  0.00    -0.342 N 
HETATM   26  O   UNK N   1      30.676   7.667   0.150  0.00  0.00    -0.272 OA
HETATM   27  C   UNK N   1      22.951  18.158   4.267  0.00  0.00     0.179 C 
HETATM   28  O   UNK N   1      24.744  17.384   5.584  0.00  0.00    -0.271 OA
HETATM   29  C   UNK N   1      28.568   5.402   1.888  0.00  0.00     0.179 C 
HETATM   30  C   UNK N   1      28.460   6.327  -0.441  0.00  0.00     0.153 C 
HETATM   31  N   UNK N   1      22.064  17.306   5.047  0.00  0.00    -0.341 N 
HETATM   32  C   UNK N   1      27.425   5.768   2.813  0.00  0.00     0.241 C 
HETATM   33  C   UNK N   1      21.946  15.977   4.765  0.00  0.00     0.242 C 
HETATM   34  C   UNK N   1      21.345  17.865   6.163  0.00  0.00     0.153 C 
HETATM   35  N   UNK N   1      26.180   6.096   2.388  0.00  0.00    -0.346 N 
HETATM   36  O   UNK N   1      27.622   5.692   4.014  0.00  0.00    -0.271 OA
HETATM   37  C   UNK N   1      22.692  15.338   3.618  0.00  0.00     0.172 C 
HETATM   38  O   UNK N   1      21.219  15.275   5.465  0.00  0.00    -0.271 OA
HETATM   39  C   UNK N   1      25.825   6.454   1.038  0.00  0.00     0.180 C 
HETATM   40  N   UNK N   1      22.461  13.919   3.635  0.00  0.00    -0.346 N 
HETATM   41  C   UNK N   1      22.245  15.901   2.281  0.00  0.00     0.042 C 
HETATM   42  C   UNK N   1      25.796   7.954   0.967  0.00  0.00     0.243 C 
HETATM   43  C   UNK N   1      23.466  13.036   3.485  0.00  0.00     0.240 C 
HETATM   44  N   UNK N   1      25.187   8.708   1.936  0.00  0.00    -0.341 N 
HETATM   45  O   UNK N   1      26.342   8.501   0.021  0.00  0.00    -0.271 OA
HETATM   46  C   UNK N   1      23.202  11.579   3.583  0.00  0.00     0.172 C 
HETATM   47  O   UNK N   1      24.575  13.418   3.152  0.00  0.00    -0.271 OA
HETATM   48  C   UNK N   1      25.110  10.133   1.778  0.00  0.00     0.179 C 
HETATM   49  C   UNK N   1      24.516   8.116   3.078  0.00  0.00     0.153 C 
HETATM   50  N   UNK N   1      22.826  11.123   2.281  0.00  0.00    -0.346 N 
HETATM   51  C   UNK N   1      22.116  11.243   4.594  0.00  0.00     0.042 C 
HETATM   52  C   UNK N   1      23.671  10.486   1.438  0.00  0.00     0.241 C 
HETATM   53  O   UNK N   1      23.238  10.111   0.362  0.00  0.00    -0.271 OA
HETATM   54  H   UNK N   1      29.286   9.870   3.852  0.00  0.00     0.163 HD
HETATM   55  H   UNK N   1      25.458   6.090   3.058  0.00  0.00     0.163 HD
HETATM   56  H   UNK N   1      21.544  13.584   3.760  0.00  0.00     0.163 HD
HETATM   57  H   UNK N   1      21.902  11.281   1.981  0.00  0.00     0.163 HD
ENDROOT
BRANCH   1  58
HETATM   58  C   UNK N   1      31.702  13.575   3.164  0.00  0.00     0.154 C 
BRANCH  58  59
HETATM   59  C   UNK N   1      31.556  14.750   4.152  0.00  0.00     0.016 C 
HETATM   60  C   UNK N   1      32.406  15.938   3.732  0.00  0.00     0.013 C 
BRANCH  59  61
HETATM   61  C   UNK N   1      31.969  14.372   5.566  0.00  0.00     0.033 C 
BRANCH  61  62
HETATM   62  C   UNK N   1      32.273  15.579   6.389  0.00  0.00    -0.031 C 
HETATM   63  C   UNK N   1      31.588  15.828   7.502  0.00  0.00    -0.035 C 
HETATM   64  C   UNK N   1      31.903  17.035   8.311  0.00  0.00     0.036 C 
ENDBRANCH  61  62
ENDBRANCH  59  61
ENDBRANCH  58  59
BRANCH  58  65
HETATM   65  O   UNK N   1      32.607  12.625   3.633  0.00  0.00    -0.393 OA
HETATM   66  H   UNK N   1      32.913  12.387   4.524  0.00  0.00     0.210 HD
ENDBRANCH  58  65
ENDBRANCH   1  58
BRANCH   8  67
HETATM   67  C   UNK N   1      28.025  14.319   4.828  0.00  0.00     0.009 C 
HETATM   68  C   UNK N   1      26.613  14.005   4.391  0.00  0.00     0.012 C 
HETATM   69  C   UNK N   1      27.966  14.901   6.226  0.00  0.00     0.012 C 
ENDBRANCH   8  67
BRANCH  10  70
HETATM   70  C   UNK N   1      29.105   9.818   1.038  0.00  0.00     0.030 C 
HETATM   71  C   UNK N   1      29.336  10.377  -0.354  0.00  0.00     0.007 C 
ENDBRANCH  10  70
BRANCH  17  72
HETATM   72  C   UNK N   1      27.712  19.780   4.210  0.00  0.00     0.039 C 
BRANCH  72  73
HETATM   73  C   UNK N   1      27.816  20.574   5.500  0.00  0.00    -0.020 C 
HETATM   74  C   UNK N   1      27.656  19.620   6.666  0.00  0.00     0.009 C 
HETATM   75  C   UNK N   1      26.700  21.594   5.558  0.00  0.00     0.009 C 
ENDBRANCH  72  73
ENDBRANCH  17  72
BRANCH  27  76
HETATM   76  C   UNK N   1      22.299  19.278   3.440  0.00  0.00     0.039 C 
BRANCH  76  77
HETATM   77  C   UNK N   1      20.779  19.216   3.271  0.00  0.00    -0.020 C 
HETATM   78  C   UNK N   1      20.343  18.550   1.979  0.00  0.00     0.009 C 
HETATM   79  C   UNK N   1      20.111  20.563   3.443  0.00  0.00     0.009 C 
ENDBRANCH  76  77
ENDBRANCH  27  76
BRANCH  29  80
HETATM   80  C   UNK N   1      28.336   4.049   1.227  0.00  0.00     0.039 C 
BRANCH  80  81
HETATM   81  C   UNK N   1      28.488   2.899   2.194  0.00  0.00    -0.020 C 
HETATM   82  C   UNK N   1      27.841   1.682   1.574  0.00  0.00     0.009 C 
HETATM   83  C   UNK N   1      29.961   2.616   2.420  0.00  0.00     0.009 C 
ENDBRANCH  80  81
ENDBRANCH  29  80
BRANCH  39  84
HETATM   84  C   UNK N   1      24.498   5.836   0.539  0.00  0.00     0.009 C 
HETATM   85  C   UNK N   1      24.030   4.575   1.250  0.00  0.00     0.012 C 
HETATM   86  C   UNK N   1      24.490   5.610  -0.956  0.00  0.00     0.012 C 
ENDBRANCH  39  84
BRANCH  48  87
HETATM   87  C   UNK N   1      25.942  10.936   2.814  0.00  0.00     0.039 C 
BRANCH  87  88
HETATM   88  C   UNK N   1      26.097  10.318   4.209  0.00  0.00    -0.020 C 
HETATM   89  C   UNK N   1      27.312   9.412   4.265  0.00  0.00     0.009 C 
HETATM   90  C   UNK N   1      26.280  11.399   5.247  0.00  0.00     0.009 C 
ENDBRANCH  87  88
ENDBRANCH  48  87
TORSDOF 16
ENDMDL
