REMARK  5 active torsions:
REMARK  status: ('A' for Active; 'I' for Inactive)
REMARK    1  A    between atoms: C_3  and  C_20 
REMARK    2  A    between atoms: C_10  and  C_11 
REMARK    3  A    between atoms: C_14  and  S_17 
REMARK    4  A    between atoms: C_20  and  C_21 
REMARK    5  A    between atoms: C_21  and  O_22 
ROOT
HETATM    1  C   UNK N   1      11.301  -5.223   0.053  0.00  0.00    -0.018 A 
HETATM    2  C   UNK N   1      12.538  -4.478   0.360  0.00  0.00    -0.043 A 
HETATM    3  C   UNK N   1      12.251  -3.167   0.451  0.00  0.00    -0.030 A 
HETATM    4  C   UNK N   1      10.827  -2.976   0.159  0.00  0.00    -0.015 A 
HETATM    5  C   UNK N   1      10.251  -4.202  -0.086  0.00  0.00    -0.014 A 
HETATM    6  C   UNK N   1      10.085  -1.796   0.107  0.00  0.00     0.055 A 
HETATM    7  C   UNK N   1       8.720  -1.882  -0.217  0.00  0.00     0.117 A 
HETATM    8  C   UNK N   1       8.133  -3.133  -0.490  0.00  0.00     0.043 A 
HETATM    9  C   UNK N   1       8.902  -4.304  -0.428  0.00  0.00     0.016 A 
HETATM   10  C   UNK N   1      11.222  -6.569  -0.001  0.00  0.00     0.024 C 
HETATM   11  F   UNK N   1       7.966  -0.759  -0.273  0.00  0.00    -0.206 F 
HETATM   12  C   UNK N   1      13.876  -5.092   0.624  0.00  0.00     0.049 C 
ENDROOT
BRANCH  10  13
HETATM   13  C   UNK N   1       9.981  -7.371  -0.033  0.00  0.00    -0.035 A 
HETATM   14  C   UNK N   1       9.986  -8.644  -0.614  0.00  0.00     0.013 A 
HETATM   15  C   UNK N   1       8.840  -9.449  -0.555  0.00  0.00     0.022 A 
HETATM   16  C   UNK N   1       7.687  -8.992   0.104  0.00  0.00     0.031 A 
HETATM   17  C   UNK N   1       7.701  -7.738   0.719  0.00  0.00     0.022 A 
HETATM   18  C   UNK N   1       8.840  -6.940   0.654  0.00  0.00     0.013 A 
BRANCH  16  19
HETATM   19  S   UNK N   1       6.215 -10.024   0.248  0.00  0.00     0.045 S 
HETATM   20  O   UNK N   1       6.428 -10.717  -1.107  0.00  0.00    -0.253 OA
HETATM   21  C   UNK N   1       5.122  -8.785  -0.511  0.00  0.00     0.133 C 
ENDBRANCH  16  19
ENDBRANCH  10  13
BRANCH   3  22
HETATM   22  C   UNK N   1      13.200  -2.069   0.852  0.00  0.00     0.149 C 
BRANCH  22  23
HETATM   23  C   UNK N   1      14.367  -1.852  -0.065  0.00  0.00     0.143 C 
HETATM   24  O   UNK N   1      14.493  -2.500  -1.093  0.00  0.00    -0.650 OA
BRANCH  23  25
HETATM   25  O   UNK N   1      15.290  -0.927   0.256  0.00  0.00    -0.776 OA
HETATM   26  H   UNK N   1      16.170  -1.162   0.479  0.00  0.00     0.167 HD
ENDBRANCH  23  25
ENDBRANCH  22  23
ENDBRANCH   3  22
TORSDOF 5
