REMARK  6 active torsions:
REMARK  status: ('A' for Active; 'I' for Inactive)
REMARK    1  A    between atoms: C_3  and  O_9 
REMARK    2  A    between atoms: C_4  and  N_11 
REMARK    3  A    between atoms: C_5  and  O_13 
REMARK    4  A    between atoms: C_10  and  O_17 
REMARK    5  A    between atoms: C_14  and  C_21 
REMARK       I    between atoms: C_21  and  N_25 
REMARK    6  A    between atoms: C_28  and  O_31 
ROOT
HETATM    1  C   UNK N   1       1.202  -0.605   0.052  0.00  0.00     0.104 C 
HETATM    2  C   UNK N   1       1.326   0.852   0.541  0.00  0.00     0.180 C 
HETATM    3  C   UNK N   1      -0.035  -1.166   0.789  0.00  0.00     0.141 C 
HETATM    4  C   UNK N   1       2.479  -1.392   0.413  0.00  0.00     0.289 C 
HETATM    5  C   UNK N   1       0.100   1.630   0.068  0.00  0.00     0.097 C 
HETATM    6  C   UNK N   1       2.643   1.488   0.138  0.00  0.00     0.208 C 
HETATM    7  O   UNK N   1       1.307   0.869   1.943  0.00  0.00    -0.374 OA
HETATM    8  C   UNK N   1      -1.353  -0.346   0.655  0.00  0.00     0.087 C 
HETATM    9  C   UNK N   1       3.766  -0.708  -0.056  0.00  0.00     0.096 C 
HETATM   10  C   UNK N   1      -1.148   1.097   0.194  0.00  0.00     0.036 C 
HETATM   11  C   UNK N   1       3.847   0.649  -0.168  0.00  0.00     0.112 C 
HETATM   12  O   UNK N   1       2.770   2.702   0.238  0.00  0.00    -0.288 OA
HETATM   13  C   UNK N   1      -2.511  -0.961  -0.127  0.00  0.00    -0.045 C 
HETATM   14  C   UNK N   1      -2.384   1.901  -0.086  0.00  0.00     0.195 C 
HETATM   15  C   UNK N   1      -3.774  -0.184  -0.151  0.00  0.00    -0.013 A 
HETATM   16  C   UNK N   1      -3.719   1.228  -0.094  0.00  0.00     0.059 A 
HETATM   17  O   UNK N   1      -2.307   3.102  -0.298  0.00  0.00    -0.287 OA
HETATM   18  C   UNK N   1      -5.017  -0.831  -0.235  0.00  0.00     0.013 A 
HETATM   19  C   UNK N   1      -4.926   1.965  -0.100  0.00  0.00     0.080 A 
HETATM   20  C   UNK N   1      -6.199  -0.092  -0.219  0.00  0.00     0.004 A 
HETATM   21  C   UNK N   1      -6.153   1.299  -0.147  0.00  0.00     0.037 A 
HETATM   22  C   UNK N   1      -2.481  -2.207  -0.613  0.00  0.00     0.020 C 
HETATM   23  H   UNK N   1       1.311   0.886   2.913  0.00  0.00     0.211 HD
ENDROOT
BRANCH   5  24
HETATM   24  O   UNK N   1       0.253   2.875  -0.435  0.00  0.00    -0.361 OA
HETATM   25  H   UNK N   1       1.054   3.215  -0.783  0.00  0.00     0.217 HD
ENDBRANCH   5  24
BRANCH   3  26
HETATM   26  O   UNK N   1      -0.197  -2.553   0.725  0.00  0.00    -0.394 OA
HETATM   27  H   UNK N   1      -1.087  -2.936   0.681  0.00  0.00     0.210 HD
ENDBRANCH   3  26
BRANCH   4  28
HETATM   28  N   UNK N   1       2.374  -2.812   0.020  0.00  0.00     0.091 N 
HETATM   29  C   UNK N   1       3.373  -3.627   0.696  0.00  0.00     0.310 C 
HETATM   30  C   UNK N   1       2.496  -2.999  -1.421  0.00  0.00     0.310 C 
ENDBRANCH   4  28
BRANCH  11  31
HETATM   31  C   UNK N   1       5.139   1.330  -0.551  0.00  0.00     0.255 C 
HETATM   32  N   UNK N   1       6.276   0.630  -0.734  0.00  0.00    -0.366 N 
HETATM   33  H   UNK N   1       6.248  -0.345  -0.867  0.00  0.00     0.159 HD
HETATM   34  H   UNK N   1       7.142   1.097  -0.734  0.00  0.00     0.159 HD
HETATM   35  O   UNK N   1       5.176   2.545  -0.680  0.00  0.00    -0.268 OA
ENDBRANCH  11  31
BRANCH   9  36
HETATM   36  O   UNK N   1       4.846  -1.474  -0.315  0.00  0.00    -0.362 OA
HETATM   37  H   UNK N   1       4.760  -2.389  -0.495  0.00  0.00     0.217 HD
ENDBRANCH   9  36
BRANCH  19  38
HETATM   38  O   UNK N   1      -4.917   3.309  -0.049  0.00  0.00    -0.360 OA
HETATM   39  H   UNK N   1      -4.103   3.772  -0.013  0.00  0.00     0.217 HD
ENDBRANCH  19  38
TORSDOF 6
