MODEL 1
REMARK VINA RESULT:      -6.8      0.000      0.000
REMARK  5 active torsions:
REMARK  status: ('A' for Active; 'I' for Inactive)
REMARK    1  A    between atoms: C_4  and  C_7 
REMARK    2  A    between atoms: C_16  and  C_7 
REMARK    3  A    between atoms: C_9  and  C_10 
REMARK    4  A    between atoms: C_10  and  C_14 
REMARK    5  A    between atoms: C_14  and  N_11 
ROOT
HETATM    1  C   UNK N   1      31.642  17.401   6.794  0.00  0.00     0.021 A 
HETATM    2  C   UNK N   1      30.772  17.269   5.712  0.00  0.00    -0.001 A 
HETATM    3  C   UNK N   1      32.567  17.372   4.110  0.00  0.00     0.031 A 
HETATM    4  C   UNK N   1      33.018  17.521   6.518  0.00  0.00    -0.055 A 
HETATM    5  C   UNK N   1      33.473  17.516   5.176  0.00  0.00     0.009 A 
HETATM    6  C   UNK N   1      31.217  17.252   4.423  0.00  0.00     0.043 A 
HETATM    7  C   UNK N   1      29.065  17.094   4.314  0.00  0.00     0.096 A 
HETATM    8  C   UNK N   1      29.406  17.171   5.660  0.00  0.00    -0.029 A 
HETATM    9  N   UNK N   1      30.193  17.139   3.558  0.00  0.00    -0.365 N 
HETATM   10  H   UNK N   1      30.249  17.097   2.575  0.00  0.00     0.165 HD
ENDROOT
BRANCH   4  11
HETATM   11  C   UNK N   1      33.978  17.727   7.647  0.00  0.00     0.066 C 
BRANCH  11  12
HETATM   12  C   UNK N   1      33.789  16.756   8.809  0.00  0.00     0.115 A 
HETATM   13  N   UNK N   1      34.628  17.182   9.897  0.00  0.00    -0.330 N 
HETATM   14  C   UNK N   1      35.546  16.251  10.121  0.00  0.00     0.361 A 
HETATM   15  H   UNK N   1      34.536  18.027  10.393  0.00  0.00     0.165 HD
HETATM   16  O   UNK N   1      36.409  16.362  10.979  0.00  0.00    -0.239 OA
HETATM   17  O   UNK N   1      35.447  15.196   9.321  0.00  0.00    -0.302 OA
HETATM   18  C   UNK N   1      34.378  15.355   8.461  0.00  0.00     0.206 A 
ENDBRANCH  11  12
ENDBRANCH   4  11
BRANCH   8  19
HETATM   19  C   UNK N   1      28.473  17.233   6.823  0.00  0.00     0.071 C 
BRANCH  19  20
HETATM   20  C   UNK N   1      28.475  18.583   7.542  0.00  0.00     0.276 C 
BRANCH  20  21
HETATM   21  N   UNK N   1      28.330  18.490   9.000  0.00  0.00     0.080 N 
HETATM   22  C   UNK N   1      27.924  17.157   9.432  0.00  0.00     0.309 C 
HETATM   23  C   UNK N   1      29.661  18.692   9.547  0.00  0.00     0.309 C 
ENDBRANCH  20  21
ENDBRANCH  19  20
ENDBRANCH   8  19
TORSDOF 5
ENDMDL
MODEL 2
REMARK VINA RESULT:      -6.3      2.455      3.210
REMARK  5 active torsions:
REMARK  status: ('A' for Active; 'I' for Inactive)
REMARK    1  A    between atoms: C_4  and  C_7 
REMARK    2  A    between atoms: C_16  and  C_7 
REMARK    3  A    between atoms: C_9  and  C_10 
REMARK    4  A    between atoms: C_10  and  C_14 
REMARK    5  A    between atoms: C_14  and  N_11 
ROOT
HETATM    1  C   UNK N   1      30.163  17.180   6.449  0.00  0.00     0.021 A 
HETATM    2  C   UNK N   1      29.486  16.709   5.325  0.00  0.00    -0.001 A 
HETATM    3  C   UNK N   1      30.550  14.552   5.450  0.00  0.00     0.031 A 
HETATM    4  C   UNK N   1      31.059  16.304   7.091  0.00  0.00    -0.055 A 
HETATM    5  C   UNK N   1      31.257  14.997   6.581  0.00  0.00     0.009 A 
HETATM    6  C   UNK N   1      29.671  15.444   4.847  0.00  0.00     0.043 A 
HETATM    7  C   UNK N   1      28.265  16.390   3.507  0.00  0.00     0.096 A 
HETATM    8  C   UNK N   1      28.597  17.323   4.483  0.00  0.00    -0.029 A 
HETATM    9  N   UNK N   1      28.930  15.230   3.744  0.00  0.00    -0.365 N 
HETATM   10  H   UNK N   1      28.880  14.400   3.216  0.00  0.00     0.165 HD
ENDROOT
BRANCH   4  11
HETATM   11  C   UNK N   1      31.851  16.792   8.263  0.00  0.00     0.066 C 
BRANCH  11  12
HETATM   12  C   UNK N   1      33.359  16.615   8.112  0.00  0.00     0.115 A 
HETATM   13  N   UNK N   1      34.016  17.575   8.958  0.00  0.00    -0.330 N 
HETATM   14  C   UNK N   1      34.696  18.423   8.199  0.00  0.00     0.361 A 
HETATM   15  H   UNK N   1      33.968  17.599   9.941  0.00  0.00     0.165 HD
HETATM   16  O   UNK N   1      35.333  19.361   8.655  0.00  0.00    -0.239 OA
HETATM   17  O   UNK N   1      34.610  18.167   6.898  0.00  0.00    -0.302 OA
HETATM   18  C   UNK N   1      33.827  17.049   6.689  0.00  0.00     0.206 A 
ENDBRANCH  11  12
ENDBRANCH   4  11
BRANCH   8  19
HETATM   19  C   UNK N   1      28.153  18.746   4.557  0.00  0.00     0.071 C 
BRANCH  19  20
HETATM   20  C   UNK N   1      27.064  18.998   5.601  0.00  0.00     0.276 C 
BRANCH  20  21
HETATM   21  N   UNK N   1      26.281  20.219   5.374  0.00  0.00     0.080 N 
HETATM   22  C   UNK N   1      26.877  21.386   6.014  0.00  0.00     0.309 C 
HETATM   23  C   UNK N   1      26.348  20.476   3.946  0.00  0.00     0.309 C 
ENDBRANCH  20  21
ENDBRANCH  19  20
ENDBRANCH   8  19
TORSDOF 5
ENDMDL
MODEL 3
REMARK VINA RESULT:      -6.2      1.230      3.744
REMARK  5 active torsions:
REMARK  status: ('A' for Active; 'I' for Inactive)
REMARK    1  A    between atoms: C_4  and  C_7 
REMARK    2  A    between atoms: C_16  and  C_7 
REMARK    3  A    between atoms: C_9  and  C_10 
REMARK    4  A    between atoms: C_10  and  C_14 
REMARK    5  A    between atoms: C_14  and  N_11 
ROOT
HETATM    1  C   UNK N   1      30.997  17.071   6.964  0.00  0.00     0.021 A 
HETATM    2  C   UNK N   1      29.618  17.149   6.775  0.00  0.00    -0.001 A 
HETATM    3  C   UNK N   1      29.305  18.467   8.766  0.00  0.00     0.031 A 
HETATM    4  C   UNK N   1      31.542  17.716   8.092  0.00  0.00    -0.055 A 
HETATM    5  C   UNK N   1      30.691  18.401   8.994  0.00  0.00     0.009 A 
HETATM    6  C   UNK N   1      28.806  17.823   7.640  0.00  0.00     0.043 A 
HETATM    7  C   UNK N   1      27.506  16.981   6.133  0.00  0.00     0.096 A 
HETATM    8  C   UNK N   1      28.807  16.607   5.812  0.00  0.00    -0.029 A 
HETATM    9  N   UNK N   1      27.517  17.738   7.261  0.00  0.00    -0.365 N 
HETATM   10  H   UNK N   1      26.740  18.142   7.711  0.00  0.00     0.165 HD
ENDROOT
BRANCH   4  11
HETATM   11  C   UNK N   1      33.009  17.603   8.365  0.00  0.00     0.066 C 
BRANCH  11  12
HETATM   12  C   UNK N   1      33.392  16.393   9.213  0.00  0.00     0.115 A 
HETATM   13  N   UNK N   1      34.308  16.826  10.233  0.00  0.00    -0.330 N 
HETATM   14  C   UNK N   1      35.481  16.240  10.035  0.00  0.00     0.361 A 
HETATM   15  H   UNK N   1      34.099  17.456  10.960  0.00  0.00     0.165 HD
HETATM   16  O   UNK N   1      36.455  16.445  10.743  0.00  0.00    -0.239 OA
HETATM   17  O   UNK N   1      35.502  15.420   8.990  0.00  0.00    -0.302 OA
HETATM   18  C   UNK N   1      34.259  15.392   8.389  0.00  0.00     0.206 A 
ENDBRANCH  11  12
ENDBRANCH   4  11
BRANCH   8  19
HETATM   19  C   UNK N   1      29.238  15.713   4.698  0.00  0.00     0.071 C 
BRANCH  19  20
HETATM   20  C   UNK N   1      29.735  16.465   3.462  0.00  0.00     0.276 C 
BRANCH  20  21
HETATM   21  N   UNK N   1      31.088  16.092   3.032  0.00  0.00     0.080 N 
HETATM   22  C   UNK N   1      32.073  17.121   3.346  0.00  0.00     0.309 C 
HETATM   23  C   UNK N   1      31.457  14.937   3.833  0.00  0.00     0.309 C 
ENDBRANCH  20  21
ENDBRANCH  19  20
ENDBRANCH   8  19
TORSDOF 5
ENDMDL
MODEL 4
REMARK VINA RESULT:      -6.1      4.333      7.506
REMARK  5 active torsions:
REMARK  status: ('A' for Active; 'I' for Inactive)
REMARK    1  A    between atoms: C_4  and  C_7 
REMARK    2  A    between atoms: C_16  and  C_7 
REMARK    3  A    between atoms: C_9  and  C_10 
REMARK    4  A    between atoms: C_10  and  C_14 
REMARK    5  A    between atoms: C_14  and  N_11 
ROOT
HETATM    1  C   UNK N   1      29.885  17.352   6.524  0.00  0.00     0.021 A 
HETATM    2  C   UNK N   1      31.047  17.258   7.289  0.00  0.00    -0.001 A 
HETATM    3  C   UNK N   1      30.041  18.394   9.160  0.00  0.00     0.031 A 
HETATM    4  C   UNK N   1      28.768  17.986   7.102  0.00  0.00    -0.055 A 
HETATM    5  C   UNK N   1      28.855  18.515   8.413  0.00  0.00     0.009 A 
HETATM    6  C   UNK N   1      31.120  17.757   8.557  0.00  0.00     0.043 A 
HETATM    7  C   UNK N   1      33.074  16.945   8.121  0.00  0.00     0.096 A 
HETATM    8  C   UNK N   1      32.281  16.740   6.997  0.00  0.00    -0.029 A 
HETATM    9  N   UNK N   1      32.344  17.569   9.082  0.00  0.00    -0.365 N 
HETATM   10  H   UNK N   1      32.650  17.831   9.981  0.00  0.00     0.165 HD
ENDROOT
BRANCH   4  11
HETATM   11  C   UNK N   1      27.523  18.163   6.291  0.00  0.00     0.066 C 
BRANCH  11  12
HETATM   12  C   UNK N   1      27.202  19.616   5.952  0.00  0.00     0.115 A 
HETATM   13  N   UNK N   1      25.803  19.710   5.633  0.00  0.00    -0.330 N 
HETATM   14  C   UNK N   1      25.674  20.066   4.363  0.00  0.00     0.361 A 
HETATM   15  H   UNK N   1      25.061  19.536   6.257  0.00  0.00     0.165 HD
HETATM   16  O   UNK N   1      24.589  20.199   3.816  0.00  0.00    -0.239 OA
HETATM   17  O   UNK N   1      26.831  20.254   3.737  0.00  0.00    -0.302 OA
HETATM   18  C   UNK N   1      27.878  20.033   4.610  0.00  0.00     0.206 A 
ENDBRANCH  11  12
ENDBRANCH   4  11
BRANCH   8  19
HETATM   19  C   UNK N   1      32.705  16.159   5.690  0.00  0.00     0.071 C 
BRANCH  19  20
HETATM   20  C   UNK N   1      33.162  17.204   4.671  0.00  0.00     0.276 C 
BRANCH  20  21
HETATM   21  N   UNK N   1      32.915  16.832   3.272  0.00  0.00     0.080 N 
HETATM   22  C   UNK N   1      33.463  15.520   2.944  0.00  0.00     0.309 C 
HETATM   23  C   UNK N   1      31.474  16.700   3.143  0.00  0.00     0.309 C 
ENDBRANCH  20  21
ENDBRANCH  19  20
ENDBRANCH   8  19
TORSDOF 5
ENDMDL
MODEL 5
REMARK VINA RESULT:      -6.0      4.017      7.104
REMARK  5 active torsions:
REMARK  status: ('A' for Active; 'I' for Inactive)
REMARK    1  A    between atoms: C_4  and  C_7 
REMARK    2  A    between atoms: C_16  and  C_7 
REMARK    3  A    between atoms: C_9  and  C_10 
REMARK    4  A    between atoms: C_10  and  C_14 
REMARK    5  A    between atoms: C_14  and  N_11 
ROOT
HETATM    1  C   UNK N   1      30.266  17.410   6.284  0.00  0.00     0.021 A 
HETATM    2  C   UNK N   1      31.420  17.338   7.062  0.00  0.00    -0.001 A 
HETATM    3  C   UNK N   1      30.170  17.378   9.120  0.00  0.00     0.031 A 
HETATM    4  C   UNK N   1      29.027  17.467   6.951  0.00  0.00    -0.055 A 
HETATM    5  C   UNK N   1      28.986  17.462   8.367  0.00  0.00     0.009 A 
HETATM    6  C   UNK N   1      31.373  17.319   8.426  0.00  0.00     0.043 A 
HETATM    7  C   UNK N   1      33.468  17.267   7.899  0.00  0.00     0.096 A 
HETATM    8  C   UNK N   1      32.745  17.307   6.712  0.00  0.00    -0.029 A 
HETATM    9  N   UNK N   1      32.610  17.269   8.953  0.00  0.00    -0.365 N 
HETATM   10  H   UNK N   1      32.846  17.241   9.909  0.00  0.00     0.165 HD
ENDROOT
BRANCH   4  11
HETATM   11  C   UNK N   1      27.769  17.609   6.153  0.00  0.00     0.066 C 
BRANCH  11  12
HETATM   12  C   UNK N   1      27.699  18.890   5.325  0.00  0.00     0.115 A 
HETATM   13  N   UNK N   1      27.722  20.013   6.223  0.00  0.00    -0.330 N 
HETATM   14  C   UNK N   1      26.570  20.662   6.129  0.00  0.00     0.361 A 
HETATM   15  H   UNK N   1      28.471  20.258   6.813  0.00  0.00     0.165 HD
HETATM   16  O   UNK N   1      26.306  21.649   6.800  0.00  0.00    -0.239 OA
HETATM   17  O   UNK N   1      25.727  20.135   5.248  0.00  0.00    -0.302 OA
HETATM   18  C   UNK N   1      26.304  19.034   4.645  0.00  0.00     0.206 A 
ENDBRANCH  11  12
ENDBRANCH   4  11
BRANCH   8  19
HETATM   19  C   UNK N   1      33.292  17.395   5.327  0.00  0.00     0.071 C 
BRANCH  19  20
HETATM   20  C   UNK N   1      33.595  16.035   4.696  0.00  0.00     0.276 C 
BRANCH  20  21
HETATM   21  N   UNK N   1      32.795  15.731   3.503  0.00  0.00     0.080 N 
HETATM   22  C   UNK N   1      31.606  14.947   3.819  0.00  0.00     0.309 C 
HETATM   23  C   UNK N   1      32.305  17.009   3.015  0.00  0.00     0.309 C 
ENDBRANCH  20  21
ENDBRANCH  19  20
ENDBRANCH   8  19
TORSDOF 5
ENDMDL
MODEL 6
REMARK VINA RESULT:      -6.0      9.286     10.748
REMARK  5 active torsions:
REMARK  status: ('A' for Active; 'I' for Inactive)
REMARK    1  A    between atoms: C_4  and  C_7 
REMARK    2  A    between atoms: C_16  and  C_7 
REMARK    3  A    between atoms: C_9  and  C_10 
REMARK    4  A    between atoms: C_10  and  C_14 
REMARK    5  A    between atoms: C_14  and  N_11 
ROOT
HETATM    1  C   UNK N   1      21.715  14.714   7.955  0.00  0.00     0.021 A 
HETATM    2  C   UNK N   1      21.483  14.714   6.580  0.00  0.00    -0.001 A 
HETATM    3  C   UNK N   1      21.300  12.314   6.497  0.00  0.00     0.031 A 
HETATM    4  C   UNK N   1      21.738  13.471   8.616  0.00  0.00    -0.055 A 
HETATM    5  C   UNK N   1      21.541  12.276   7.882  0.00  0.00     0.009 A 
HETATM    6  C   UNK N   1      21.281  13.560   5.880  0.00  0.00     0.043 A 
HETATM    7  C   UNK N   1      21.204  15.159   4.429  0.00  0.00     0.096 A 
HETATM    8  C   UNK N   1      21.439  15.739   5.672  0.00  0.00    -0.029 A 
HETATM    9  N   UNK N   1      21.102  13.812   4.571  0.00  0.00    -0.365 N 
HETATM   10  H   UNK N   1      20.932  13.153   3.859  0.00  0.00     0.165 HD
ENDROOT
BRANCH   4  11
HETATM   11  C   UNK N   1      22.046  13.424  10.080  0.00  0.00     0.066 C 
BRANCH  11  12
HETATM   12  C   UNK N   1      22.645  12.100  10.547  0.00  0.00     0.115 A 
HETATM   13  N   UNK N   1      22.345  11.934  11.944  0.00  0.00    -0.330 N 
HETATM   14  C   UNK N   1      23.479  11.941  12.631  0.00  0.00     0.361 A 
HETATM   15  H   UNK N   1      21.444  11.833  12.327  0.00  0.00     0.165 HD
HETATM   16  O   UNK N   1      23.519  11.840  13.848  0.00  0.00    -0.239 OA
HETATM   17  O   UNK N   1      24.563  12.080  11.876  0.00  0.00    -0.302 OA
HETATM   18  C   UNK N   1      24.202  12.166  10.545  0.00  0.00     0.206 A 
ENDBRANCH  11  12
ENDBRANCH   4  11
BRANCH   8  19
HETATM   19  C   UNK N   1      21.690  17.182   5.959  0.00  0.00     0.071 C 
BRANCH  19  20
HETATM   20  C   UNK N   1      22.936  17.739   5.268  0.00  0.00     0.276 C 
BRANCH  20  21
HETATM   21  N   UNK N   1      22.674  18.371   3.969  0.00  0.00     0.080 N 
HETATM   22  C   UNK N   1      21.441  19.149   3.970  0.00  0.00     0.309 C 
HETATM   23  C   UNK N   1      23.746  19.331   3.769  0.00  0.00     0.309 C 
ENDBRANCH  20  21
ENDBRANCH  19  20
ENDBRANCH   8  19
TORSDOF 5
ENDMDL
MODEL 7
REMARK VINA RESULT:      -6.0     12.832     14.891
REMARK  5 active torsions:
REMARK  status: ('A' for Active; 'I' for Inactive)
REMARK    1  A    between atoms: C_4  and  C_7 
REMARK    2  A    between atoms: C_16  and  C_7 
REMARK    3  A    between atoms: C_9  and  C_10 
REMARK    4  A    between atoms: C_10  and  C_14 
REMARK    5  A    between atoms: C_14  and  N_11 
ROOT
HETATM    1  C   UNK N   1      27.553  25.641  -3.801  0.00  0.00     0.021 A 
HETATM    2  C   UNK N   1      26.489  26.061  -4.598  0.00  0.00    -0.001 A 
HETATM    3  C   UNK N   1      26.613  24.102  -5.994  0.00  0.00     0.031 A 
HETATM    4  C   UNK N   1      28.161  24.411  -4.115  0.00  0.00    -0.055 A 
HETATM    5  C   UNK N   1      27.696  23.652  -5.217  0.00  0.00     0.009 A 
HETATM    6  C   UNK N   1      26.036  25.319  -5.650  0.00  0.00     0.043 A 
HETATM    7  C   UNK N   1      24.829  27.111  -5.619  0.00  0.00     0.096 A 
HETATM    8  C   UNK N   1      25.733  27.203  -4.566  0.00  0.00    -0.029 A 
HETATM    9  N   UNK N   1      25.021  25.939  -6.279  0.00  0.00    -0.365 N 
HETATM   10  H   UNK N   1      24.519  25.611  -7.060  0.00  0.00     0.165 HD
ENDROOT
BRANCH   4  11
HETATM   11  C   UNK N   1      29.346  23.955  -3.322  0.00  0.00     0.066 C 
BRANCH  11  12
HETATM   12  C   UNK N   1      30.095  22.779  -3.945  0.00  0.00     0.115 A 
HETATM   13  N   UNK N   1      30.621  21.963  -2.884  0.00  0.00    -0.330 N 
HETATM   14  C   UNK N   1      31.946  21.991  -2.935  0.00  0.00     0.361 A 
HETATM   15  H   UNK N   1      30.084  21.465  -2.225  0.00  0.00     0.165 HD
HETATM   16  O   UNK N   1      32.655  21.402  -2.134  0.00  0.00    -0.239 OA
HETATM   17  O   UNK N   1      32.429  22.729  -3.929  0.00  0.00    -0.302 OA
HETATM   18  C   UNK N   1      31.390  23.266  -4.664  0.00  0.00     0.206 A 
ENDBRANCH  11  12
ENDBRANCH   4  11
BRANCH   8  19
HETATM   19  C   UNK N   1      25.917  28.356  -3.637  0.00  0.00     0.071 C 
BRANCH  19  20
HETATM   20  C   UNK N   1      26.680  29.529  -4.254  0.00  0.00     0.276 C 
BRANCH  20  21
HETATM   21  N   UNK N   1      27.882  29.926  -3.511  0.00  0.00     0.080 N 
HETATM   22  C   UNK N   1      27.862  29.452  -2.132  0.00  0.00     0.309 C 
HETATM   23  C   UNK N   1      28.991  29.237  -4.148  0.00  0.00     0.309 C 
ENDBRANCH  20  21
ENDBRANCH  19  20
ENDBRANCH   8  19
TORSDOF 5
ENDMDL
MODEL 8
REMARK VINA RESULT:      -5.9     13.578     15.852
REMARK  5 active torsions:
REMARK  status: ('A' for Active; 'I' for Inactive)
REMARK    1  A    between atoms: C_4  and  C_7 
REMARK    2  A    between atoms: C_16  and  C_7 
REMARK    3  A    between atoms: C_9  and  C_10 
REMARK    4  A    between atoms: C_10  and  C_14 
REMARK    5  A    between atoms: C_14  and  N_11 
ROOT
HETATM    1  C   UNK N   1      26.999  26.842  -3.828  0.00  0.00     0.021 A 
HETATM    2  C   UNK N   1      26.567  25.697  -4.495  0.00  0.00    -0.001 A 
HETATM    3  C   UNK N   1      24.795  26.881  -5.616  0.00  0.00     0.031 A 
HETATM    4  C   UNK N   1      26.304  28.043  -4.068  0.00  0.00    -0.055 A 
HETATM    5  C   UNK N   1      25.197  28.054  -4.953  0.00  0.00     0.009 A 
HETATM    6  C   UNK N   1      25.509  25.717  -5.356  0.00  0.00     0.043 A 
HETATM    7  C   UNK N   1      26.188  23.667  -5.292  0.00  0.00     0.096 A 
HETATM    8  C   UNK N   1      27.009  24.401  -4.441  0.00  0.00    -0.029 A 
HETATM    9  N   UNK N   1      25.268  24.491  -5.857  0.00  0.00    -0.365 N 
HETATM   10  H   UNK N   1      24.567  24.242  -6.503  0.00  0.00     0.165 HD
ENDROOT
BRANCH   4  11
HETATM   11  C   UNK N   1      26.697  29.281  -3.324  0.00  0.00     0.066 C 
BRANCH  11  12
HETATM   12  C   UNK N   1      28.022  29.162  -2.576  0.00  0.00     0.115 A 
HETATM   13  N   UNK N   1      27.764  29.321  -1.170  0.00  0.00    -0.330 N 
HETATM   14  C   UNK N   1      28.370  30.421  -0.744  0.00  0.00     0.361 A 
HETATM   15  H   UNK N   1      27.225  28.713  -0.614  0.00  0.00     0.165 HD
HETATM   16  O   UNK N   1      28.301  30.814   0.411  0.00  0.00    -0.239 OA
HETATM   17  O   UNK N   1      29.048  31.062  -1.690  0.00  0.00    -0.302 OA
HETATM   18  C   UNK N   1      28.944  30.379  -2.887  0.00  0.00     0.206 A 
ENDBRANCH  11  12
ENDBRANCH   4  11
BRANCH   8  19
HETATM   19  C   UNK N   1      28.096  23.876  -3.565  0.00  0.00     0.071 C 
BRANCH  19  20
HETATM   20  C   UNK N   1      29.341  23.425  -4.332  0.00  0.00     0.276 C 
BRANCH  20  21
HETATM   21  N   UNK N   1      30.362  22.778  -3.499  0.00  0.00     0.080 N 
HETATM   22  C   UNK N   1      30.395  21.332  -3.686  0.00  0.00     0.309 C 
HETATM   23  C   UNK N   1      31.641  23.267  -3.984  0.00  0.00     0.309 C 
ENDBRANCH  20  21
ENDBRANCH  19  20
ENDBRANCH   8  19
TORSDOF 5
ENDMDL
MODEL 9
REMARK VINA RESULT:      -5.9      5.374      8.443
REMARK  5 active torsions:
REMARK  status: ('A' for Active; 'I' for Inactive)
REMARK    1  A    between atoms: C_4  and  C_7 
REMARK    2  A    between atoms: C_16  and  C_7 
REMARK    3  A    between atoms: C_9  and  C_10 
REMARK    4  A    between atoms: C_10  and  C_14 
REMARK    5  A    between atoms: C_14  and  N_11 
ROOT
HETATM    1  C   UNK N   1      28.334  18.657   4.845  0.00  0.00     0.021 A 
HETATM    2  C   UNK N   1      28.952  18.008   5.913  0.00  0.00    -0.001 A 
HETATM    3  C   UNK N   1      27.906  19.443   7.539  0.00  0.00     0.031 A 
HETATM    4  C   UNK N   1      27.474  19.733   5.141  0.00  0.00    -0.055 A 
HETATM    5  C   UNK N   1      27.273  20.128   6.487  0.00  0.00     0.009 A 
HETATM    6  C   UNK N   1      28.744  18.384   7.208  0.00  0.00     0.043 A 
HETATM    7  C   UNK N   1      30.158  16.752   7.280  0.00  0.00     0.096 A 
HETATM    8  C   UNK N   1      29.850  16.973   5.941  0.00  0.00    -0.029 A 
HETATM    9  N   UNK N   1      29.464  17.626   8.055  0.00  0.00    -0.365 N 
HETATM   10  H   UNK N   1      29.484  17.692   9.037  0.00  0.00     0.165 HD
ENDROOT
BRANCH   4  11
HETATM   11  C   UNK N   1      26.841  20.496   4.020  0.00  0.00     0.066 C 
BRANCH  11  12
HETATM   12  C   UNK N   1      25.827  19.689   3.213  0.00  0.00     0.115 A 
HETATM   13  N   UNK N   1      24.930  20.606   2.564  0.00  0.00    -0.330 N 
HETATM   14  C   UNK N   1      23.708  20.427   3.048  0.00  0.00     0.361 A 
HETATM   15  H   UNK N   1      25.182  21.260   1.873  0.00  0.00     0.165 HD
HETATM   16  O   UNK N   1      22.748  21.092   2.691  0.00  0.00    -0.239 OA
HETATM   17  O   UNK N   1      23.629  19.470   3.966  0.00  0.00    -0.302 OA
HETATM   18  C   UNK N   1      24.872  18.898   4.158  0.00  0.00     0.206 A 
ENDBRANCH  11  12
ENDBRANCH   4  11
BRANCH   8  19
HETATM   19  C   UNK N   1      30.445  16.289   4.756  0.00  0.00     0.071 C 
BRANCH  19  20
HETATM   20  C   UNK N   1      31.726  15.515   5.071  0.00  0.00     0.276 C 
BRANCH  20  21
HETATM   21  N   UNK N   1      32.922  16.024   4.388  0.00  0.00     0.080 N 
HETATM   22  C   UNK N   1      32.763  17.406   3.950  0.00  0.00     0.309 C 
HETATM   23  C   UNK N   1      33.974  16.046   5.389  0.00  0.00     0.309 C 
ENDBRANCH  20  21
ENDBRANCH  19  20
ENDBRANCH   8  19
TORSDOF 5
ENDMDL
