MODEL 1
REMARK VINA RESULT:      -6.8      0.000      0.000
REMARK  6 active torsions:
REMARK  status: ('A' for Active; 'I' for Inactive)
REMARK    1  A    between atoms: C_3  and  C_15 
REMARK    2  A    between atoms: C_7  and  N_9 
REMARK       I    between atoms: N_9  and  C_10 
REMARK    3  A    between atoms: C_10  and  C_13 
REMARK    4  A    between atoms: C_13  and  C_18 
REMARK    5  A    between atoms: C_13  and  N_24 
REMARK    6  A    between atoms: C_15  and  O_17 
ROOT
HETATM    1  C   UNK N   1      34.944  12.114  11.761  0.00  0.00     0.187 A 
HETATM    2  N   UNK N   1      35.327  13.479  11.614  0.00  0.00    -0.292 N 
HETATM    3  C   UNK N   1      35.553  14.205  10.400  0.00  0.00     0.131 C 
HETATM    4  C   UNK N   1      35.548  13.484   9.237  0.00  0.00     0.055 C 
HETATM    5  C   UNK N   1      35.290  11.988   9.262  0.00  0.00     0.130 C 
HETATM    6  S   UNK N   1      36.052  11.138  10.709  0.00  0.00    -0.135 SA
HETATM    7  C   UNK N   1      35.234  12.290  13.354  0.00  0.00     0.210 A 
HETATM    8  C   UNK N   1      35.524  13.669  12.884  0.00  0.00     0.251 A 
HETATM    9  O   UNK N   1      35.967  14.654  13.454  0.00  0.00    -0.271 OA
HETATM   10 Cl   UNK N   1      35.856  14.181   7.647  0.00  0.00    -0.086 Cl
ENDROOT
BRANCH   7  11
HETATM   11  N   UNK N   1      36.483  11.694  13.774  0.00  0.00    -0.343 N 
HETATM   12  C   UNK N   1      36.560  10.946  14.904  0.00  0.00     0.245 C 
HETATM   13  O   UNK N   1      37.627  10.449  15.226  0.00  0.00    -0.271 OA
HETATM   14  H   UNK N   1      37.293  11.834  13.231  0.00  0.00     0.163 HD
BRANCH  12  15
HETATM   15  C   UNK N   1      35.333  10.722  15.750  0.00  0.00     0.201 C 
BRANCH  15  16
HETATM   16  C   UNK N   1      35.327  11.513  17.024  0.00  0.00    -0.027 A 
HETATM   17  C   UNK N   1      35.389  10.874  18.272  0.00  0.00     0.010 A 
HETATM   18  C   UNK N   1      35.344  11.627  19.449  0.00  0.00     0.001 A 
HETATM   19  C   UNK N   1      35.252  13.020  19.384  0.00  0.00     0.000 A 
HETATM   20  C   UNK N   1      35.199  13.661  18.143  0.00  0.00     0.001 A 
HETATM   21  C   UNK N   1      35.225  12.907  16.965  0.00  0.00     0.010 A 
ENDBRANCH  15  16
BRANCH  15  22
HETATM   22  N   UNK N   1      35.141   9.305  16.020  0.00  0.00    -0.415 N 
HETATM   23  H   UNK N   1      34.423   8.736  15.574  0.00  0.00     0.151 HD
HETATM   24  H   UNK N   1      35.760   8.857  16.695  0.00  0.00     0.151 HD
ENDBRANCH  15  22
ENDBRANCH  12  15
ENDBRANCH   7  11
BRANCH   3  25
HETATM   25  C   UNK N   1      35.854  15.679  10.435  0.00  0.00     0.195 C 
HETATM   26  O   UNK N   1      35.037  16.484  10.025  0.00  0.00    -0.645 OA
BRANCH  25  27
HETATM   27  O   UNK N   1      37.024  16.145  10.910  0.00  0.00    -0.772 OA
HETATM   28  H   UNK N   1      37.633  16.595  10.359  0.00  0.00     0.167 HD
ENDBRANCH  25  27
ENDBRANCH   3  25
TORSDOF 6
ENDMDL
MODEL 2
REMARK VINA RESULT:      -6.8      2.623      3.726
REMARK  6 active torsions:
REMARK  status: ('A' for Active; 'I' for Inactive)
REMARK    1  A    between atoms: C_3  and  C_15 
REMARK    2  A    between atoms: C_7  and  N_9 
REMARK       I    between atoms: N_9  and  C_10 
REMARK    3  A    between atoms: C_10  and  C_13 
REMARK    4  A    between atoms: C_13  and  C_18 
REMARK    5  A    between atoms: C_13  and  N_24 
REMARK    6  A    between atoms: C_15  and  O_17 
ROOT
HETATM    1  C   UNK N   1      33.631  14.931  10.127  0.00  0.00     0.187 A 
HETATM    2  N   UNK N   1      34.070  16.084   9.413  0.00  0.00    -0.292 N 
HETATM    3  C   UNK N   1      33.691  16.503   8.096  0.00  0.00     0.131 C 
HETATM    4  C   UNK N   1      32.933  15.630   7.364  0.00  0.00     0.055 C 
HETATM    5  C   UNK N   1      32.509  14.297   7.955  0.00  0.00     0.130 C 
HETATM    6  S   UNK N   1      33.806  13.518   9.005  0.00  0.00    -0.135 SA
HETATM    7  C   UNK N   1      34.780  15.278  11.229  0.00  0.00     0.210 A 
HETATM    8  C   UNK N   1      34.965  16.418  10.294  0.00  0.00     0.251 A 
HETATM    9  O   UNK N   1      35.793  17.314  10.247  0.00  0.00    -0.271 OA
HETATM   10 Cl   UNK N   1      32.408  15.936   5.708  0.00  0.00    -0.086 Cl
ENDROOT
BRANCH   7  11
HETATM   11  N   UNK N   1      35.944  14.427  11.125  0.00  0.00    -0.343 N 
HETATM   12  C   UNK N   1      36.074  13.316  11.893  0.00  0.00     0.245 C 
HETATM   13  O   UNK N   1      37.065  12.613  11.775  0.00  0.00    -0.271 OA
HETATM   14  H   UNK N   1      36.656  14.658  10.485  0.00  0.00     0.163 HD
BRANCH  12  15
HETATM   15  C   UNK N   1      34.996  12.947  12.881  0.00  0.00     0.201 C 
BRANCH  15  16
HETATM   16  C   UNK N   1      35.365  13.223  14.307  0.00  0.00    -0.027 A 
HETATM   17  C   UNK N   1      34.610  12.693  15.364  0.00  0.00     0.010 A 
HETATM   18  C   UNK N   1      34.947  12.994  16.688  0.00  0.00     0.001 A 
HETATM   19  C   UNK N   1      36.047  13.811  16.959  0.00  0.00     0.000 A 
HETATM   20  C   UNK N   1      36.807  14.334  15.909  0.00  0.00     0.001 A 
HETATM   21  C   UNK N   1      36.459  14.049  14.585  0.00  0.00     0.010 A 
ENDBRANCH  15  16
BRANCH  15  22
HETATM   22  N   UNK N   1      34.590  11.560  12.711  0.00  0.00    -0.415 N 
HETATM   23  H   UNK N   1      34.815  10.819  13.372  0.00  0.00     0.151 HD
HETATM   24  H   UNK N   1      34.049  11.317  11.882  0.00  0.00     0.151 HD
ENDBRANCH  15  22
ENDBRANCH  12  15
ENDBRANCH   7  11
BRANCH   3  25
HETATM   25  C   UNK N   1      34.181  17.813   7.539  0.00  0.00     0.195 C 
HETATM   26  O   UNK N   1      34.579  17.882   6.390  0.00  0.00    -0.645 OA
BRANCH  25  27
HETATM   27  O   UNK N   1      34.195  18.930   8.287  0.00  0.00    -0.772 OA
HETATM   28  H   UNK N   1      34.334  19.775   7.905  0.00  0.00     0.167 HD
ENDBRANCH  25  27
ENDBRANCH   3  25
TORSDOF 6
ENDMDL
MODEL 3
REMARK VINA RESULT:      -6.7      7.304     11.251
REMARK  6 active torsions:
REMARK  status: ('A' for Active; 'I' for Inactive)
REMARK    1  A    between atoms: C_3  and  C_15 
REMARK    2  A    between atoms: C_7  and  N_9 
REMARK       I    between atoms: N_9  and  C_10 
REMARK    3  A    between atoms: C_10  and  C_13 
REMARK    4  A    between atoms: C_13  and  C_18 
REMARK    5  A    between atoms: C_13  and  N_24 
REMARK    6  A    between atoms: C_15  and  O_17 
ROOT
HETATM    1  C   UNK N   1      32.973  16.250   6.129  0.00  0.00     0.187 A 
HETATM    2  N   UNK N   1      33.327  16.623   7.458  0.00  0.00    -0.292 N 
HETATM    3  C   UNK N   1      34.369  16.078   8.278  0.00  0.00     0.131 C 
HETATM    4  C   UNK N   1      35.016  14.971   7.802  0.00  0.00     0.055 C 
HETATM    5  C   UNK N   1      34.641  14.381   6.454  0.00  0.00     0.130 C 
HETATM    6  S   UNK N   1      32.833  14.442   6.107  0.00  0.00    -0.135 SA
HETATM    7  C   UNK N   1      31.657  17.193   6.303  0.00  0.00     0.210 A 
HETATM    8  C   UNK N   1      32.314  17.420   7.616  0.00  0.00     0.251 A 
HETATM    9  O   UNK N   1      31.963  18.027   8.616  0.00  0.00    -0.271 OA
HETATM   10 Cl   UNK N   1      36.289  14.124   8.680  0.00  0.00    -0.086 Cl
ENDROOT
BRANCH   7  11
HETATM   11  N   UNK N   1      30.444  16.442   6.539  0.00  0.00    -0.343 N 
HETATM   12  C   UNK N   1      29.306  16.708   5.850  0.00  0.00     0.245 C 
HETATM   13  O   UNK N   1      28.302  16.050   6.066  0.00  0.00    -0.271 OA
HETATM   14  H   UNK N   1      30.444  15.723   7.213  0.00  0.00     0.163 HD
BRANCH  12  15
HETATM   15  C   UNK N   1      29.285  17.806   4.817  0.00  0.00     0.201 C 
BRANCH  15  16
HETATM   16  C   UNK N   1      28.288  18.887   5.105  0.00  0.00    -0.027 A 
HETATM   17  C   UNK N   1      27.528  19.463   4.076  0.00  0.00     0.010 A 
HETATM   18  C   UNK N   1      26.630  20.496   4.360  0.00  0.00     0.001 A 
HETATM   19  C   UNK N   1      26.477  20.947   5.674  0.00  0.00     0.000 A 
HETATM   20  C   UNK N   1      27.225  20.370   6.704  0.00  0.00     0.001 A 
HETATM   21  C   UNK N   1      28.138  19.349   6.418  0.00  0.00     0.010 A 
ENDBRANCH  15  16
BRANCH  15  22
HETATM   22  N   UNK N   1      29.084  17.259   3.483  0.00  0.00    -0.415 N 
HETATM   23  H   UNK N   1      29.792  16.732   2.974  0.00  0.00     0.151 HD
HETATM   24  H   UNK N   1      28.182  17.413   3.033  0.00  0.00     0.151 HD
ENDBRANCH  15  22
ENDBRANCH  12  15
ENDBRANCH   7  11
BRANCH   3  25
HETATM   25  C   UNK N   1      34.667  16.670   9.629  0.00  0.00     0.195 C 
HETATM   26  O   UNK N   1      35.298  17.708   9.720  0.00  0.00    -0.645 OA
BRANCH  25  27
HETATM   27  O   UNK N   1      34.253  16.075  10.762  0.00  0.00    -0.772 OA
HETATM   28  H   UNK N   1      33.373  16.165  11.071  0.00  0.00     0.167 HD
ENDBRANCH  25  27
ENDBRANCH   3  25
TORSDOF 6
ENDMDL
MODEL 4
REMARK VINA RESULT:      -6.7      3.307      4.739
REMARK  6 active torsions:
REMARK  status: ('A' for Active; 'I' for Inactive)
REMARK    1  A    between atoms: C_3  and  C_15 
REMARK    2  A    between atoms: C_7  and  N_9 
REMARK       I    between atoms: N_9  and  C_10 
REMARK    3  A    between atoms: C_10  and  C_13 
REMARK    4  A    between atoms: C_13  and  C_18 
REMARK    5  A    between atoms: C_13  and  N_24 
REMARK    6  A    between atoms: C_15  and  O_17 
ROOT
HETATM    1  C   UNK N   1      34.895  14.536   8.306  0.00  0.00     0.187 A 
HETATM    2  N   UNK N   1      34.668  15.923   8.540  0.00  0.00    -0.292 N 
HETATM    3  C   UNK N   1      34.202  16.910   7.611  0.00  0.00     0.131 C 
HETATM    4  C   UNK N   1      34.096  16.526   6.302  0.00  0.00     0.055 C 
HETATM    5  C   UNK N   1      34.443  15.107   5.887  0.00  0.00     0.130 C 
HETATM    6  S   UNK N   1      35.888  14.412   6.794  0.00  0.00    -0.135 SA
HETATM    7  C   UNK N   1      35.592  14.486   9.777  0.00  0.00     0.210 A 
HETATM    8  C   UNK N   1      35.175  15.911   9.737  0.00  0.00     0.251 A 
HETATM    9  O   UNK N   1      35.373  16.845  10.497  0.00  0.00    -0.271 OA
HETATM   10 Cl   UNK N   1      33.592  17.603   5.001  0.00  0.00    -0.086 Cl
ENDROOT
BRANCH   7  11
HETATM   11  N   UNK N   1      37.037  14.446   9.721  0.00  0.00    -0.343 N 
HETATM   12  C   UNK N   1      37.737  13.462  10.340  0.00  0.00     0.245 C 
HETATM   13  O   UNK N   1      38.956  13.451  10.267  0.00  0.00    -0.271 OA
HETATM   14  H   UNK N   1      37.521  15.145   9.225  0.00  0.00     0.163 HD
BRANCH  12  15
HETATM   15  C   UNK N   1      37.015  12.384  11.107  0.00  0.00     0.201 C 
BRANCH  15  16
HETATM   16  C   UNK N   1      36.928  12.646  12.580  0.00  0.00    -0.027 A 
HETATM   17  C   UNK N   1      36.475  13.882  13.068  0.00  0.00     0.010 A 
HETATM   18  C   UNK N   1      36.437  14.121  14.446  0.00  0.00     0.001 A 
HETATM   19  C   UNK N   1      36.837  13.123  15.339  0.00  0.00     0.000 A 
HETATM   20  C   UNK N   1      37.280  11.889  14.857  0.00  0.00     0.001 A 
HETATM   21  C   UNK N   1      37.336  11.655  13.479  0.00  0.00     0.010 A 
ENDBRANCH  15  16
BRANCH  15  22
HETATM   22  N   UNK N   1      37.605  11.079  10.848  0.00  0.00    -0.415 N 
HETATM   23  H   UNK N   1      37.070  10.213  10.809  0.00  0.00     0.151 HD
HETATM   24  H   UNK N   1      38.612  11.030  10.698  0.00  0.00     0.151 HD
ENDBRANCH  15  22
ENDBRANCH  12  15
ENDBRANCH   7  11
BRANCH   3  25
HETATM   25  C   UNK N   1      33.921  18.317   8.066  0.00  0.00     0.195 C 
HETATM   26  O   UNK N   1      32.774  18.700   8.205  0.00  0.00    -0.645 OA
BRANCH  25  27
HETATM   27  O   UNK N   1      34.918  19.182   8.326  0.00  0.00    -0.772 OA
HETATM   28  H   UNK N   1      35.778  18.886   8.551  0.00  0.00     0.167 HD
ENDBRANCH  25  27
ENDBRANCH   3  25
TORSDOF 6
ENDMDL
MODEL 5
REMARK VINA RESULT:      -6.4     14.037     16.789
REMARK  6 active torsions:
REMARK  status: ('A' for Active; 'I' for Inactive)
REMARK    1  A    between atoms: C_3  and  C_15 
REMARK    2  A    between atoms: C_7  and  N_9 
REMARK       I    between atoms: N_9  and  C_10 
REMARK    3  A    between atoms: C_10  and  C_13 
REMARK    4  A    between atoms: C_13  and  C_18 
REMARK    5  A    between atoms: C_13  and  N_24 
REMARK    6  A    between atoms: C_15  and  O_17 
ROOT
HETATM    1  C   UNK N   1      20.986  14.244   7.811  0.00  0.00     0.187 A 
HETATM    2  N   UNK N   1      22.394  14.078   7.952  0.00  0.00    -0.292 N 
HETATM    3  C   UNK N   1      23.098  13.324   8.947  0.00  0.00     0.131 C 
HETATM    4  C   UNK N   1      22.355  12.814   9.977  0.00  0.00     0.055 C 
HETATM    5  C   UNK N   1      20.854  13.036  10.025  0.00  0.00     0.130 C 
HETATM    6  S   UNK N   1      20.342  14.706   9.441  0.00  0.00    -0.135 SA
HETATM    7  C   UNK N   1      21.315  15.373   6.684  0.00  0.00     0.210 A 
HETATM    8  C   UNK N   1      22.694  14.939   7.026  0.00  0.00     0.251 A 
HETATM    9  O   UNK N   1      23.792  15.351   6.687  0.00  0.00    -0.271 OA
HETATM   10 Cl   UNK N   1      23.038  11.904  11.324  0.00  0.00    -0.086 Cl
ENDROOT
BRANCH   7  11
HETATM   11  N   UNK N   1      21.144  16.725   7.166  0.00  0.00    -0.343 N 
HETATM   12  C   UNK N   1      21.210  17.786   6.323  0.00  0.00     0.245 C 
HETATM   13  O   UNK N   1      21.051  18.915   6.760  0.00  0.00    -0.271 OA
HETATM   14  H   UNK N   1      20.976  16.879   8.125  0.00  0.00     0.163 HD
BRANCH  12  15
HETATM   15  C   UNK N   1      21.467  17.572   4.853  0.00  0.00     0.201 C 
BRANCH  15  16
HETATM   16  C   UNK N   1      22.414  18.569   4.256  0.00  0.00    -0.027 A 
HETATM   17  C   UNK N   1      21.953  19.576   3.394  0.00  0.00     0.010 A 
HETATM   18  C   UNK N   1      22.857  20.474   2.817  0.00  0.00     0.001 A 
HETATM   19  C   UNK N   1      24.220  20.377   3.109  0.00  0.00     0.000 A 
HETATM   20  C   UNK N   1      24.682  19.381   3.973  0.00  0.00     0.001 A 
HETATM   21  C   UNK N   1      23.781  18.471   4.537  0.00  0.00     0.010 A 
ENDBRANCH  15  16
BRANCH  15  22
HETATM   22  N   UNK N   1      20.219  17.533   4.108  0.00  0.00    -0.415 N 
HETATM   23  H   UNK N   1      19.316  17.797   4.500  0.00  0.00     0.151 HD
HETATM   24  H   UNK N   1      20.249  17.222   3.137  0.00  0.00     0.151 HD
ENDBRANCH  15  22
ENDBRANCH  12  15
ENDBRANCH   7  11
BRANCH   3  25
HETATM   25  C   UNK N   1      24.594  13.177   8.880  0.00  0.00     0.195 C 
HETATM   26  O   UNK N   1      25.281  13.426   9.854  0.00  0.00    -0.645 OA
BRANCH  25  27
HETATM   27  O   UNK N   1      25.209  12.775   7.753  0.00  0.00    -0.772 OA
HETATM   28  H   UNK N   1      25.415  13.377   7.065  0.00  0.00     0.167 HD
ENDBRANCH  25  27
ENDBRANCH   3  25
TORSDOF 6
ENDMDL
MODEL 6
REMARK VINA RESULT:      -6.3      1.483      1.948
REMARK  6 active torsions:
REMARK  status: ('A' for Active; 'I' for Inactive)
REMARK    1  A    between atoms: C_3  and  C_15 
REMARK    2  A    between atoms: C_7  and  N_9 
REMARK       I    between atoms: N_9  and  C_10 
REMARK    3  A    between atoms: C_10  and  C_13 
REMARK    4  A    between atoms: C_13  and  C_18 
REMARK    5  A    between atoms: C_13  and  N_24 
REMARK    6  A    between atoms: C_15  and  O_17 
ROOT
HETATM    1  C   UNK N   1      34.746  12.906  10.363  0.00  0.00     0.187 A 
HETATM    2  N   UNK N   1      34.750  14.332  10.393  0.00  0.00    -0.292 N 
HETATM    3  C   UNK N   1      34.774  15.237   9.283  0.00  0.00     0.131 C 
HETATM    4  C   UNK N   1      34.963  14.690   8.043  0.00  0.00     0.055 C 
HETATM    5  C   UNK N   1      35.115  13.189   7.880  0.00  0.00     0.130 C 
HETATM    6  S   UNK N   1      36.075  12.399   9.239  0.00  0.00    -0.135 SA
HETATM    7  C   UNK N   1      34.977  12.954  11.974  0.00  0.00     0.210 A 
HETATM    8  C   UNK N   1      34.888  14.407  11.683  0.00  0.00     0.251 A 
HETATM    9  O   UNK N   1      35.051  15.396  12.381  0.00  0.00    -0.271 OA
HETATM   10 Cl   UNK N   1      35.074  15.637   6.559  0.00  0.00    -0.086 Cl
ENDROOT
BRANCH   7  11
HETATM   11  N   UNK N   1      36.340  12.663  12.362  0.00  0.00    -0.343 N 
HETATM   12  C   UNK N   1      36.614  11.812  13.383  0.00  0.00     0.245 C 
HETATM   13  O   UNK N   1      37.775  11.580  13.680  0.00  0.00    -0.271 OA
HETATM   14  H   UNK N   1      37.082  13.091  11.876  0.00  0.00     0.163 HD
BRANCH  12  15
HETATM   15  C   UNK N   1      35.492  11.149  14.140  0.00  0.00     0.201 C 
BRANCH  15  16
HETATM   16  C   UNK N   1      35.370  11.608  15.562  0.00  0.00    -0.027 A 
HETATM   17  C   UNK N   1      34.999  12.926  15.867  0.00  0.00     0.010 A 
HETATM   18  C   UNK N   1      34.928  13.345  17.199  0.00  0.00     0.001 A 
HETATM   19  C   UNK N   1      35.214  12.446  18.230  0.00  0.00     0.000 A 
HETATM   20  C   UNK N   1      35.576  11.130  17.931  0.00  0.00     0.001 A 
HETATM   21  C   UNK N   1      35.664  10.715  16.598  0.00  0.00     0.010 A 
ENDBRANCH  15  16
BRANCH  15  22
HETATM   22  N   UNK N   1      35.604   9.700  14.072  0.00  0.00    -0.415 N 
HETATM   23  H   UNK N   1      35.732   9.182  13.204  0.00  0.00     0.151 HD
HETATM   24  H   UNK N   1      35.552   9.173  14.943  0.00  0.00     0.151 HD
ENDBRANCH  15  22
ENDBRANCH  12  15
ENDBRANCH   7  11
BRANCH   3  25
HETATM   25  C   UNK N   1      34.670  16.722   9.504  0.00  0.00     0.195 C 
HETATM   26  O   UNK N   1      33.729  17.347   9.050  0.00  0.00    -0.645 OA
BRANCH  25  27
HETATM   27  O   UNK N   1      35.606  17.394  10.199  0.00  0.00    -0.772 OA
HETATM   28  H   UNK N   1      35.400  17.834  11.001  0.00  0.00     0.167 HD
ENDBRANCH  25  27
ENDBRANCH   3  25
TORSDOF 6
ENDMDL
MODEL 7
REMARK VINA RESULT:      -6.1     14.744     16.171
REMARK  6 active torsions:
REMARK  status: ('A' for Active; 'I' for Inactive)
REMARK    1  A    between atoms: C_3  and  C_15 
REMARK    2  A    between atoms: C_7  and  N_9 
REMARK       I    between atoms: N_9  and  C_10 
REMARK    3  A    between atoms: C_10  and  C_13 
REMARK    4  A    between atoms: C_13  and  C_18 
REMARK    5  A    between atoms: C_13  and  N_24 
REMARK    6  A    between atoms: C_15  and  O_17 
ROOT
HETATM    1  C   UNK N   1      20.566  15.897   5.252  0.00  0.00     0.187 A 
HETATM    2  N   UNK N   1      20.823  17.271   4.971  0.00  0.00    -0.292 N 
HETATM    3  C   UNK N   1      20.663  17.960   3.726  0.00  0.00     0.131 C 
HETATM    4  C   UNK N   1      20.369  17.197   2.629  0.00  0.00     0.055 C 
HETATM    5  C   UNK N   1      20.206  15.693   2.761  0.00  0.00     0.130 C 
HETATM    6  S   UNK N   1      21.384  14.931   3.954  0.00  0.00    -0.135 SA
HETATM    7  C   UNK N   1      21.282  16.144   6.695  0.00  0.00     0.210 A 
HETATM    8  C   UNK N   1      21.358  17.516   6.130  0.00  0.00     0.251 A 
HETATM    9  O   UNK N   1      21.892  18.539   6.528  0.00  0.00    -0.271 OA
HETATM   10 Cl   UNK N   1      20.184  17.847   1.000  0.00  0.00    -0.086 Cl
ENDROOT
BRANCH   7  11
HETATM   11  N   UNK N   1      22.627  15.618   6.760  0.00  0.00    -0.343 N 
HETATM   12  C   UNK N   1      22.886  14.420   7.344  0.00  0.00     0.245 C 
HETATM   13  O   UNK N   1      24.031  13.999   7.375  0.00  0.00    -0.271 OA
HETATM   14  H   UNK N   1      23.369  16.138   6.375  0.00  0.00     0.163 HD
BRANCH  12  15
HETATM   15  C   UNK N   1      21.764  13.610   7.942  0.00  0.00     0.201 C 
BRANCH  15  16
HETATM   16  C   UNK N   1      22.085  13.038   9.289  0.00  0.00    -0.027 A 
HETATM   17  C   UNK N   1      23.397  12.667   9.623  0.00  0.00     0.010 A 
HETATM   18  C   UNK N   1      23.670  12.100  10.872  0.00  0.00     0.001 A 
HETATM   19  C   UNK N   1      22.638  11.916  11.796  0.00  0.00     0.000 A 
HETATM   20  C   UNK N   1      21.332  12.292  11.471  0.00  0.00     0.001 A 
HETATM   21  C   UNK N   1      21.054  12.842  10.215  0.00  0.00     0.010 A 
ENDBRANCH  15  16
BRANCH  15  22
HETATM   22  N   UNK N   1      21.334  12.564   7.026  0.00  0.00    -0.415 N 
HETATM   23  H   UNK N   1      21.573  11.580   7.137  0.00  0.00     0.151 HD
HETATM   24  H   UNK N   1      20.761  12.833   6.226  0.00  0.00     0.151 HD
ENDBRANCH  15  22
ENDBRANCH  12  15
ENDBRANCH   7  11
BRANCH   3  25
HETATM   25  C   UNK N   1      20.886  19.446   3.639  0.00  0.00     0.195 C 
HETATM   26  O   UNK N   1      19.938  20.207   3.554  0.00  0.00    -0.645 OA
BRANCH  25  27
HETATM   27  O   UNK N   1      22.125  19.971   3.650  0.00  0.00    -0.772 OA
HETATM   28  H   UNK N   1      22.779  19.697   3.037  0.00  0.00     0.167 HD
ENDBRANCH  25  27
ENDBRANCH   3  25
TORSDOF 6
ENDMDL
MODEL 8
REMARK VINA RESULT:      -6.0      3.214      4.429
REMARK  6 active torsions:
REMARK  status: ('A' for Active; 'I' for Inactive)
REMARK    1  A    between atoms: C_3  and  C_15 
REMARK    2  A    between atoms: C_7  and  N_9 
REMARK       I    between atoms: N_9  and  C_10 
REMARK    3  A    between atoms: C_10  and  C_13 
REMARK    4  A    between atoms: C_13  and  C_18 
REMARK    5  A    between atoms: C_13  and  N_24 
REMARK    6  A    between atoms: C_15  and  O_17 
ROOT
HETATM    1  C   UNK N   1      33.799  14.626  10.116  0.00  0.00     0.187 A 
HETATM    2  N   UNK N   1      33.992  15.939   9.595  0.00  0.00    -0.292 N 
HETATM    3  C   UNK N   1      33.350  16.542   8.466  0.00  0.00     0.131 C 
HETATM    4  C   UNK N   1      32.563  15.730   7.695  0.00  0.00     0.055 C 
HETATM    5  C   UNK N   1      32.380  14.267   8.058  0.00  0.00     0.130 C 
HETATM    6  S   UNK N   1      33.910  13.480   8.715  0.00  0.00    -0.135 SA
HETATM    7  C   UNK N   1      35.084  14.907  11.077  0.00  0.00     0.210 A 
HETATM    8  C   UNK N   1      34.991  16.215  10.379  0.00  0.00     0.251 A 
HETATM    9  O   UNK N   1      35.707  17.204  10.390  0.00  0.00    -0.271 OA
HETATM   10 Cl   UNK N   1      31.729  16.267   6.237  0.00  0.00    -0.086 Cl
ENDROOT
BRANCH   7  11
HETATM   11  N   UNK N   1      36.289  14.248  10.624  0.00  0.00    -0.343 N 
HETATM   12  C   UNK N   1      37.094  13.582  11.491  0.00  0.00     0.245 C 
HETATM   13  O   UNK N   1      38.099  13.029  11.076  0.00  0.00    -0.271 OA
HETATM   14  H   UNK N   1      36.530  14.284   9.670  0.00  0.00     0.163 HD
BRANCH  12  15
HETATM   15  C   UNK N   1      36.744  13.519  12.955  0.00  0.00     0.201 C 
BRANCH  15  16
HETATM   16  C   UNK N   1      35.677  12.516  13.277  0.00  0.00    -0.027 A 
HETATM   17  C   UNK N   1      34.983  12.565  14.496  0.00  0.00     0.010 A 
HETATM   18  C   UNK N   1      34.018  11.598  14.794  0.00  0.00     0.001 A 
HETATM   19  C   UNK N   1      33.733  10.588  13.870  0.00  0.00     0.000 A 
HETATM   20  C   UNK N   1      34.416  10.541  12.652  0.00  0.00     0.001 A 
HETATM   21  C   UNK N   1      35.395  11.497  12.361  0.00  0.00     0.010 A 
ENDBRANCH  15  16
BRANCH  15  22
HETATM   22  N   UNK N   1      36.385  14.836  13.460  0.00  0.00    -0.415 N 
HETATM   23  H   UNK N   1      37.010  15.640  13.441  0.00  0.00     0.151 HD
HETATM   24  H   UNK N   1      35.453  14.960  13.857  0.00  0.00     0.151 HD
ENDBRANCH  15  22
ENDBRANCH  12  15
ENDBRANCH   7  11
BRANCH   3  25
HETATM   25  C   UNK N   1      33.605  17.985   8.121  0.00  0.00     0.195 C 
HETATM   26  O   UNK N   1      32.747  18.826   8.322  0.00  0.00    -0.645 OA
BRANCH  25  27
HETATM   27  O   UNK N   1      34.772  18.381   7.583  0.00  0.00    -0.772 OA
HETATM   28  H   UNK N   1      35.014  18.147   6.708  0.00  0.00     0.167 HD
ENDBRANCH  25  27
ENDBRANCH   3  25
TORSDOF 6
ENDMDL
MODEL 9
REMARK VINA RESULT:      -6.0      4.501      9.091
REMARK  6 active torsions:
REMARK  status: ('A' for Active; 'I' for Inactive)
REMARK    1  A    between atoms: C_3  and  C_15 
REMARK    2  A    between atoms: C_7  and  N_9 
REMARK       I    between atoms: N_9  and  C_10 
REMARK    3  A    between atoms: C_10  and  C_13 
REMARK    4  A    between atoms: C_13  and  C_18 
REMARK    5  A    between atoms: C_13  and  N_24 
REMARK    6  A    between atoms: C_15  and  O_17 
ROOT
HETATM    1  C   UNK N   1      34.658  14.151  10.089  0.00  0.00     0.187 A 
HETATM    2  N   UNK N   1      35.886  13.548   9.688  0.00  0.00    -0.292 N 
HETATM    3  C   UNK N   1      36.786  12.769  10.485  0.00  0.00     0.131 C 
HETATM    4  C   UNK N   1      36.530  12.708  11.828  0.00  0.00     0.055 C 
HETATM    5  C   UNK N   1      35.327  13.425  12.414  0.00  0.00     0.130 C 
HETATM    6  S   UNK N   1      34.991  15.055  11.625  0.00  0.00    -0.135 SA
HETATM    7  C   UNK N   1      34.657  14.911   8.649  0.00  0.00     0.210 A 
HETATM    8  C   UNK N   1      35.894  14.101   8.512  0.00  0.00     0.251 A 
HETATM    9  O   UNK N   1      36.759  14.062   7.652  0.00  0.00    -0.271 OA
HETATM   10 Cl   UNK N   1      37.546  11.846  12.983  0.00  0.00    -0.086 Cl
ENDROOT
BRANCH   7  11
HETATM   11  N   UNK N   1      35.046  16.301   8.738  0.00  0.00    -0.343 N 
HETATM   12  C   UNK N   1      34.157  17.298   8.496  0.00  0.00     0.245 C 
HETATM   13  O   UNK N   1      34.514  18.461   8.589  0.00  0.00    -0.271 OA
HETATM   14  H   UNK N   1      35.974  16.529   8.978  0.00  0.00     0.163 HD
BRANCH  12  15
HETATM   15  C   UNK N   1      32.733  16.970   8.124  0.00  0.00     0.201 C 
BRANCH  15  16
HETATM   16  C   UNK N   1      32.434  17.150   6.667  0.00  0.00    -0.027 A 
HETATM   17  C   UNK N   1      33.461  17.401   5.744  0.00  0.00     0.010 A 
HETATM   18  C   UNK N   1      33.158  17.604   4.394  0.00  0.00     0.001 A 
HETATM   19  C   UNK N   1      31.831  17.544   3.959  0.00  0.00     0.000 A 
HETATM   20  C   UNK N   1      30.806  17.286   4.874  0.00  0.00     0.001 A 
HETATM   21  C   UNK N   1      31.107  17.100   6.228  0.00  0.00     0.010 A 
ENDBRANCH  15  16
BRANCH  15  22
HETATM   22  N   UNK N   1      31.796  17.725   8.942  0.00  0.00    -0.415 N 
HETATM   23  H   UNK N   1      30.942  17.332   9.333  0.00  0.00     0.151 HD
HETATM   24  H   UNK N   1      32.008  18.704   9.134  0.00  0.00     0.151 HD
ENDBRANCH  15  22
ENDBRANCH  12  15
ENDBRANCH   7  11
BRANCH   3  25
HETATM   25  C   UNK N   1      37.993  12.120   9.862  0.00  0.00     0.195 C 
HETATM   26  O   UNK N   1      38.038  10.911   9.722  0.00  0.00    -0.645 OA
BRANCH  25  27
HETATM   27  O   UNK N   1      39.047  12.849   9.452  0.00  0.00    -0.772 OA
HETATM   28  H   UNK N   1      39.704  12.488   8.889  0.00  0.00     0.167 HD
ENDBRANCH  25  27
ENDBRANCH   3  25
TORSDOF 6
ENDMDL
