MODEL 1
REMARK VINA RESULT:      -4.3      0.000      0.000
REMARK  7 active torsions:
REMARK  status: ('A' for Active; 'I' for Inactive)
REMARK    1  A    between atoms: C_1  and  C_2 
REMARK    2  A    between atoms: C_1  and  C_3 
REMARK    3  A    between atoms: C_1  and  S_4 
REMARK    4  A    between atoms: C_2  and  C_5 
REMARK    5  A    between atoms: C_2  and  S_6 
REMARK    6  A    between atoms: C_3  and  O_7 
REMARK    7  A    between atoms: C_5  and  O_9 
ROOT
HETATM    1  C   UNK N   1      35.055  15.939   9.336  0.00  0.00     0.166 C 
ENDROOT
BRANCH   1   2
HETATM    2  C   UNK N   1      34.051  16.827   8.558  0.00  0.00     0.166 C 
BRANCH   2   3
HETATM    3  C   UNK N   1      34.468  18.046   7.779  0.00  0.00     0.155 C 
HETATM    4  O   UNK N   1      34.313  18.099   6.569  0.00  0.00    -0.649 OA
BRANCH   3   5
HETATM    5  O   UNK N   1      35.020  19.094   8.417  0.00  0.00    -0.775 OA
HETATM    6  H   UNK N   1      34.714  19.337   9.268  0.00  0.00     0.167 HD
ENDBRANCH   3   5
ENDBRANCH   2   3
BRANCH   2   7
HETATM    7  S   UNK N   1      32.264  16.437   8.540  0.00  0.00    -0.165 SA
HETATM    8  H   UNK N   1      31.600  16.238   9.710  0.00  0.00     0.102 HD
ENDBRANCH   2   7
ENDBRANCH   1   2
BRANCH   1   9
HETATM    9  C   UNK N   1      35.740  16.391  10.598  0.00  0.00     0.155 C 
HETATM   10  O   UNK N   1      35.163  17.102  11.405  0.00  0.00    -0.649 OA
BRANCH   9  11
HETATM   11  O   UNK N   1      37.007  16.011  10.846  0.00  0.00    -0.775 OA
HETATM   12  H   UNK N   1      37.684  16.204  10.228  0.00  0.00     0.167 HD
ENDBRANCH   9  11
ENDBRANCH   1   9
BRANCH   1  13
HETATM   13  S   UNK N   1      35.473  14.257   8.754  0.00  0.00    -0.165 SA
HETATM   14  H   UNK N   1      35.000  13.815   7.558  0.00  0.00     0.102 HD
ENDBRANCH   1  13
TORSDOF 7
ENDMDL
MODEL 2
REMARK VINA RESULT:      -4.3      0.033      3.859
REMARK  7 active torsions:
REMARK  status: ('A' for Active; 'I' for Inactive)
REMARK    1  A    between atoms: C_1  and  C_2 
REMARK    2  A    between atoms: C_1  and  C_3 
REMARK    3  A    between atoms: C_1  and  S_4 
REMARK    4  A    between atoms: C_2  and  C_5 
REMARK    5  A    between atoms: C_2  and  S_6 
REMARK    6  A    between atoms: C_3  and  O_7 
REMARK    7  A    between atoms: C_5  and  O_9 
ROOT
HETATM    1  C   UNK N   1      34.065  16.818   8.552  0.00  0.00     0.166 C 
ENDROOT
BRANCH   1   2
HETATM    2  C   UNK N   1      35.083  15.940   9.322  0.00  0.00     0.166 C 
BRANCH   2   3
HETATM    3  C   UNK N   1      35.749  16.384  10.598  0.00  0.00     0.155 C 
HETATM    4  O   UNK N   1      35.156  17.084  11.403  0.00  0.00    -0.649 OA
BRANCH   3   5
HETATM    5  O   UNK N   1      37.014  16.009  10.860  0.00  0.00    -0.775 OA
HETATM    6  H   UNK N   1      37.188  15.402  11.552  0.00  0.00     0.167 HD
ENDBRANCH   3   5
ENDBRANCH   2   3
BRANCH   2   7
HETATM    7  S   UNK N   1      35.545  14.278   8.714  0.00  0.00    -0.165 SA
HETATM    8  H   UNK N   1      36.428  14.150   7.688  0.00  0.00     0.102 HD
ENDBRANCH   2   7
ENDBRANCH   1   2
BRANCH   1   9
HETATM    9  C   UNK N   1      34.465  18.042   7.772  0.00  0.00     0.155 C 
HETATM   10  O   UNK N   1      34.296  18.100   6.565  0.00  0.00    -0.649 OA
BRANCH   9  11
HETATM   11  O   UNK N   1      35.018  19.091   8.408  0.00  0.00    -0.775 OA
HETATM   12  H   UNK N   1      35.504  18.957   9.198  0.00  0.00     0.167 HD
ENDBRANCH   9  11
ENDBRANCH   1   9
BRANCH   1  13
HETATM   13  S   UNK N   1      32.283  16.410   8.547  0.00  0.00    -0.165 SA
HETATM   14  H   UNK N   1      31.699  15.929   7.417  0.00  0.00     0.102 HD
ENDBRANCH   1  13
TORSDOF 7
ENDMDL
MODEL 3
REMARK VINA RESULT:      -4.2      1.133      1.531
REMARK  7 active torsions:
REMARK  status: ('A' for Active; 'I' for Inactive)
REMARK    1  A    between atoms: C_1  and  C_2 
REMARK    2  A    between atoms: C_1  and  C_3 
REMARK    3  A    between atoms: C_1  and  S_4 
REMARK    4  A    between atoms: C_2  and  C_5 
REMARK    5  A    between atoms: C_2  and  S_6 
REMARK    6  A    between atoms: C_3  and  O_7 
REMARK    7  A    between atoms: C_5  and  O_9 
ROOT
HETATM    1  C   UNK N   1      34.039  16.137   9.503  0.00  0.00     0.166 C 
ENDROOT
BRANCH   1   2
HETATM    2  C   UNK N   1      33.479  17.284   8.625  0.00  0.00     0.166 C 
BRANCH   2   3
HETATM    3  C   UNK N   1      34.356  18.193   7.805  0.00  0.00     0.155 C 
HETATM    4  O   UNK N   1      34.995  19.089   8.332  0.00  0.00    -0.649 OA
BRANCH   3   5
HETATM    5  O   UNK N   1      34.442  18.020   6.473  0.00  0.00    -0.775 OA
HETATM    6  H   UNK N   1      35.273  18.079   6.046  0.00  0.00     0.167 HD
ENDBRANCH   3   5
ENDBRANCH   2   3
BRANCH   2   7
HETATM    7  S   UNK N   1      31.681  17.608   8.531  0.00  0.00    -0.165 SA
HETATM    8  H   UNK N   1      31.079  18.379   9.476  0.00  0.00     0.102 HD
ENDBRANCH   2   7
ENDBRANCH   1   2
BRANCH   1   9
HETATM    9  C   UNK N   1      35.056  16.360  10.590  0.00  0.00     0.155 C 
HETATM   10  O   UNK N   1      35.131  15.605  11.545  0.00  0.00    -0.649 OA
BRANCH   9  11
HETATM   11  O   UNK N   1      35.899  17.406  10.514  0.00  0.00    -0.775 OA
HETATM   12  H   UNK N   1      36.805  17.265  10.320  0.00  0.00     0.167 HD
ENDBRANCH   9  11
ENDBRANCH   1   9
BRANCH   1  13
HETATM   13  S   UNK N   1      33.486  14.411   9.263  0.00  0.00    -0.165 SA
HETATM   14  H   UNK N   1      33.803  13.461  10.183  0.00  0.00     0.102 HD
ENDBRANCH   1  13
TORSDOF 7
ENDMDL
MODEL 4
REMARK VINA RESULT:      -4.1      2.614      4.871
REMARK  7 active torsions:
REMARK  status: ('A' for Active; 'I' for Inactive)
REMARK    1  A    between atoms: C_1  and  C_2 
REMARK    2  A    between atoms: C_1  and  C_3 
REMARK    3  A    between atoms: C_1  and  S_4 
REMARK    4  A    between atoms: C_2  and  C_5 
REMARK    5  A    between atoms: C_2  and  S_6 
REMARK    6  A    between atoms: C_3  and  O_7 
REMARK    7  A    between atoms: C_5  and  O_9 
ROOT
HETATM    1  C   UNK N   1      34.906  15.006  10.781  0.00  0.00     0.166 C 
ENDROOT
BRANCH   1   2
HETATM    2  C   UNK N   1      35.195  13.783  11.688  0.00  0.00     0.166 C 
BRANCH   2   3
HETATM    3  C   UNK N   1      35.609  13.912  13.130  0.00  0.00     0.155 C 
HETATM    4  O   UNK N   1      34.880  13.524  14.028  0.00  0.00    -0.649 OA
BRANCH   3   5
HETATM    5  O   UNK N   1      36.798  14.461  13.440  0.00  0.00    -0.775 OA
HETATM    6  H   UNK N   1      37.574  13.936  13.427  0.00  0.00     0.167 HD
ENDBRANCH   3   5
ENDBRANCH   2   3
BRANCH   2   7
HETATM    7  S   UNK N   1      35.047  12.077  11.046  0.00  0.00    -0.165 SA
HETATM    8  H   UNK N   1      34.470  11.854   9.835  0.00  0.00     0.102 HD
ENDBRANCH   2   7
ENDBRANCH   1   2
BRANCH   1   9
HETATM    9  C   UNK N   1      35.835  16.186  10.678  0.00  0.00     0.155 C 
HETATM   10  O   UNK N   1      35.405  17.305  10.449  0.00  0.00    -0.649 OA
BRANCH   9  11
HETATM   11  O   UNK N   1      37.159  16.012  10.839  0.00  0.00    -0.775 OA
HETATM   12  H   UNK N   1      37.755  16.690  10.588  0.00  0.00     0.167 HD
ENDBRANCH   9  11
ENDBRANCH   1   9
BRANCH   1  13
HETATM   13  S   UNK N   1      33.388  15.087   9.765  0.00  0.00    -0.165 SA
HETATM   14  H   UNK N   1      33.459  14.891   8.421  0.00  0.00     0.102 HD
ENDBRANCH   1  13
TORSDOF 7
ENDMDL
MODEL 5
REMARK VINA RESULT:      -4.1      2.681      3.643
REMARK  7 active torsions:
REMARK  status: ('A' for Active; 'I' for Inactive)
REMARK    1  A    between atoms: C_1  and  C_2 
REMARK    2  A    between atoms: C_1  and  C_3 
REMARK    3  A    between atoms: C_1  and  S_4 
REMARK    4  A    between atoms: C_2  and  C_5 
REMARK    5  A    between atoms: C_2  and  S_6 
REMARK    6  A    between atoms: C_3  and  O_7 
REMARK    7  A    between atoms: C_5  and  O_9 
ROOT
HETATM    1  C   UNK N   1      35.195  13.728  11.794  0.00  0.00     0.166 C 
ENDROOT
BRANCH   1   2
HETATM    2  C   UNK N   1      34.878  14.936  10.877  0.00  0.00     0.166 C 
BRANCH   2   3
HETATM    3  C   UNK N   1      35.738  16.171  10.821  0.00  0.00     0.155 C 
HETATM    4  O   UNK N   1      35.237  17.279  10.721  0.00  0.00    -0.649 OA
BRANCH   3   5
HETATM    5  O   UNK N   1      37.077  16.059  10.883  0.00  0.00    -0.775 OA
HETATM    6  H   UNK N   1      37.469  15.420  11.444  0.00  0.00     0.167 HD
ENDBRANCH   3   5
ENDBRANCH   2   3
BRANCH   2   7
HETATM    7  S   UNK N   1      33.409  14.933   9.787  0.00  0.00    -0.165 SA
HETATM    8  H   UNK N   1      33.317  15.827   8.766  0.00  0.00     0.102 HD
ENDBRANCH   2   7
ENDBRANCH   1   2
BRANCH   1   9
HETATM    9  C   UNK N   1      35.633  13.880  13.226  0.00  0.00     0.155 C 
HETATM   10  O   UNK N   1      34.918  13.513  14.144  0.00  0.00    -0.649 OA
BRANCH   9  11
HETATM   11  O   UNK N   1      36.830  14.427  13.506  0.00  0.00    -0.775 OA
HETATM   12  H   UNK N   1      36.935  15.359  13.491  0.00  0.00     0.167 HD
ENDBRANCH   9  11
ENDBRANCH   1   9
BRANCH   1  13
HETATM   13  S   UNK N   1      35.052  12.013  11.176  0.00  0.00    -0.165 SA
HETATM   14  H   UNK N   1      34.574  11.780   9.924  0.00  0.00     0.102 HD
ENDBRANCH   1  13
TORSDOF 7
ENDMDL
MODEL 6
REMARK VINA RESULT:      -4.0     12.274     13.138
REMARK  7 active torsions:
REMARK  status: ('A' for Active; 'I' for Inactive)
REMARK    1  A    between atoms: C_1  and  C_2 
REMARK    2  A    between atoms: C_1  and  C_3 
REMARK    3  A    between atoms: C_1  and  S_4 
REMARK    4  A    between atoms: C_2  and  C_5 
REMARK    5  A    between atoms: C_2  and  S_6 
REMARK    6  A    between atoms: C_3  and  O_7 
REMARK    7  A    between atoms: C_5  and  O_9 
ROOT
HETATM    1  C   UNK N   1      22.043  12.766  10.323  0.00  0.00     0.166 C 
ENDROOT
BRANCH   1   2
HETATM    2  C   UNK N   1      23.411  12.362   9.717  0.00  0.00     0.166 C 
BRANCH   2   3
HETATM    3  C   UNK N   1      24.727  12.816  10.289  0.00  0.00     0.155 C 
HETATM    4  O   UNK N   1      25.449  13.581   9.670  0.00  0.00    -0.649 OA
BRANCH   3   5
HETATM    5  O   UNK N   1      25.120  12.377  11.499  0.00  0.00    -0.775 OA
HETATM    6  H   UNK N   1      25.135  12.964  12.228  0.00  0.00     0.167 HD
ENDBRANCH   3   5
ENDBRANCH   2   3
BRANCH   2   7
HETATM    7  S   UNK N   1      23.507  11.288   8.240  0.00  0.00    -0.165 SA
HETATM    8  H   UNK N   1      23.986  10.020   8.350  0.00  0.00     0.102 HD
ENDBRANCH   2   7
ENDBRANCH   1   2
BRANCH   1   9
HETATM    9  C   UNK N   1      21.471  12.117  11.555  0.00  0.00     0.155 C 
HETATM   10  O   UNK N   1      20.266  12.093  11.750  0.00  0.00    -0.649 OA
BRANCH   9  11
HETATM   11  O   UNK N   1      22.292  11.553  12.459  0.00  0.00    -0.775 OA
HETATM   12  H   UNK N   1      23.207  11.467  12.272  0.00  0.00     0.167 HD
ENDBRANCH   9  11
ENDBRANCH   1   9
BRANCH   1  13
HETATM   13  S   UNK N   1      21.026  14.080   9.562  0.00  0.00    -0.165 SA
HETATM   14  H   UNK N   1      19.821  13.774   9.012  0.00  0.00     0.102 HD
ENDBRANCH   1  13
TORSDOF 7
ENDMDL
MODEL 7
REMARK VINA RESULT:      -3.9      2.423      3.372
REMARK  7 active torsions:
REMARK  status: ('A' for Active; 'I' for Inactive)
REMARK    1  A    between atoms: C_1  and  C_2 
REMARK    2  A    between atoms: C_1  and  C_3 
REMARK    3  A    between atoms: C_1  and  S_4 
REMARK    4  A    between atoms: C_2  and  C_5 
REMARK    5  A    between atoms: C_2  and  S_6 
REMARK    6  A    between atoms: C_3  and  O_7 
REMARK    7  A    between atoms: C_5  and  O_9 
ROOT
HETATM    1  C   UNK N   1      32.377  16.470   8.577  0.00  0.00     0.166 C 
ENDROOT
BRANCH   1   2
HETATM    2  C   UNK N   1      33.551  17.214   7.891  0.00  0.00     0.166 C 
BRANCH   2   3
HETATM    3  C   UNK N   1      34.614  17.952   8.659  0.00  0.00     0.155 C 
HETATM    4  O   UNK N   1      34.992  19.057   8.303  0.00  0.00    -0.649 OA
BRANCH   3   5
HETATM    5  O   UNK N   1      35.161  17.394   9.755  0.00  0.00    -0.775 OA
HETATM    6  H   UNK N   1      35.299  17.910  10.524  0.00  0.00     0.167 HD
ENDBRANCH   3   5
ENDBRANCH   2   3
BRANCH   2   7
HETATM    7  S   UNK N   1      33.717  17.237   6.070  0.00  0.00    -0.165 SA
HETATM    8  H   UNK N   1      33.024  18.149   5.335  0.00  0.00     0.102 HD
ENDBRANCH   2   7
ENDBRANCH   1   2
BRANCH   1   9
HETATM    9  C   UNK N   1      32.545  15.152   9.284  0.00  0.00     0.155 C 
HETATM   10  O   UNK N   1      32.230  14.104   8.743  0.00  0.00    -0.649 OA
BRANCH   9  11
HETATM   11  O   UNK N   1      33.049  15.120  10.531  0.00  0.00    -0.775 OA
HETATM   12  H   UNK N   1      33.936  14.850  10.672  0.00  0.00     0.167 HD
ENDBRANCH   9  11
ENDBRANCH   1   9
BRANCH   1  13
HETATM   13  S   UNK N   1      30.687  17.166   8.566  0.00  0.00    -0.165 SA
HETATM   14  H   UNK N   1      30.314  18.060   9.521  0.00  0.00     0.102 HD
ENDBRANCH   1  13
TORSDOF 7
ENDMDL
MODEL 8
REMARK VINA RESULT:      -3.8      2.168      2.594
REMARK  7 active torsions:
REMARK  status: ('A' for Active; 'I' for Inactive)
REMARK    1  A    between atoms: C_1  and  C_2 
REMARK    2  A    between atoms: C_1  and  C_3 
REMARK    3  A    between atoms: C_1  and  S_4 
REMARK    4  A    between atoms: C_2  and  C_5 
REMARK    5  A    between atoms: C_2  and  S_6 
REMARK    6  A    between atoms: C_3  and  O_7 
REMARK    7  A    between atoms: C_5  and  O_9 
ROOT
HETATM    1  C   UNK N   1      34.262  16.050   9.503  0.00  0.00     0.166 C 
ENDROOT
BRANCH   1   2
HETATM    2  C   UNK N   1      33.601  17.156   8.641  0.00  0.00     0.166 C 
BRANCH   2   3
HETATM    3  C   UNK N   1      34.394  18.147   7.831  0.00  0.00     0.155 C 
HETATM    4  O   UNK N   1      34.993  19.062   8.373  0.00  0.00    -0.649 OA
BRANCH   3   5
HETATM    5  O   UNK N   1      34.447  18.029   6.492  0.00  0.00    -0.775 OA
HETATM    6  H   UNK N   1      33.660  18.075   5.986  0.00  0.00     0.167 HD
ENDBRANCH   3   5
ENDBRANCH   2   3
BRANCH   2   7
HETATM    7  S   UNK N   1      31.782  17.325   8.558  0.00  0.00    -0.165 SA
HETATM    8  H   UNK N   1      31.062  17.502   9.698  0.00  0.00     0.102 HD
ENDBRANCH   2   7
ENDBRANCH   1   2
BRANCH   1   9
HETATM    9  C   UNK N   1      34.005  14.582   9.287  0.00  0.00     0.155 C 
HETATM   10  O   UNK N   1      34.353  14.028   8.257  0.00  0.00    -0.649 OA
BRANCH   9  11
HETATM   11  O   UNK N   1      33.383  13.864  10.240  0.00  0.00    -0.775 OA
HETATM   12  H   UNK N   1      33.806  13.709  11.062  0.00  0.00     0.167 HD
ENDBRANCH   9  11
ENDBRANCH   1   9
BRANCH   1  13
HETATM   13  S   UNK N   1      35.415  16.473  10.856  0.00  0.00    -0.165 SA
HETATM   14  H   UNK N   1      36.682  16.878  10.569  0.00  0.00     0.102 HD
ENDBRANCH   1  13
TORSDOF 7
ENDMDL
MODEL 9
REMARK VINA RESULT:      -3.7     13.669     15.023
REMARK  7 active torsions:
REMARK  status: ('A' for Active; 'I' for Inactive)
REMARK    1  A    between atoms: C_1  and  C_2 
REMARK    2  A    between atoms: C_1  and  C_3 
REMARK    3  A    between atoms: C_1  and  S_4 
REMARK    4  A    between atoms: C_2  and  C_5 
REMARK    5  A    between atoms: C_2  and  S_6 
REMARK    6  A    between atoms: C_3  and  O_7 
REMARK    7  A    between atoms: C_5  and  O_9 
ROOT
HETATM    1  C   UNK N   1      21.202  19.331   3.074  0.00  0.00     0.166 C 
ENDROOT
BRANCH   1   2
HETATM    2  C   UNK N   1      22.134  18.745   4.165  0.00  0.00     0.166 C 
BRANCH   2   3
HETATM    3  C   UNK N   1      21.619  18.015   5.377  0.00  0.00     0.155 C 
HETATM    4  O   UNK N   1      21.352  16.825   5.325  0.00  0.00    -0.649 OA
BRANCH   3   5
HETATM    5  O   UNK N   1      21.447  18.675   6.536  0.00  0.00    -0.775 OA
HETATM    6  H   UNK N   1      21.984  19.416   6.737  0.00  0.00     0.167 HD
ENDBRANCH   3   5
ENDBRANCH   2   3
BRANCH   2   7
HETATM    7  S   UNK N   1      23.951  18.909   4.042  0.00  0.00    -0.165 SA
HETATM    8  H   UNK N   1      24.655  18.083   3.222  0.00  0.00     0.102 HD
ENDBRANCH   2   7
ENDBRANCH   1   2
BRANCH   1   9
HETATM    9  C   UNK N   1      21.569  20.532   2.244  0.00  0.00     0.155 C 
HETATM   10  O   UNK N   1      21.580  20.473   1.025  0.00  0.00    -0.649 OA
BRANCH   9  11
HETATM   11  O   UNK N   1      21.891  21.690   2.848  0.00  0.00    -0.775 OA
HETATM   12  H   UNK N   1      22.671  22.148   2.600  0.00  0.00     0.167 HD
ENDBRANCH   9  11
ENDBRANCH   1   9
BRANCH   1  13
HETATM   13  S   UNK N   1      19.572  18.582   2.727  0.00  0.00    -0.165 SA
HETATM   14  H   UNK N   1      19.496  17.392   2.072  0.00  0.00     0.102 HD
ENDBRANCH   1  13
TORSDOF 7
ENDMDL
