MODEL 1
REMARK VINA RESULT:      -3.7      0.000      0.000
REMARK  5 active torsions:
REMARK  status: ('A' for Active; 'I' for Inactive)
REMARK    1  A    between atoms: C_4  and  C_3 
REMARK    2  A    between atoms: C_5  and  C_3 
REMARK    3  A    between atoms: C_3  and  N_6 
REMARK    4  A    between atoms: O_8  and  C_4 
REMARK    5  A    between atoms: S_9  and  C_5 
ROOT
HETATM    1  C   UNK N   1      33.334  17.731   7.994  0.00  0.00     0.191 C 
ENDROOT
BRANCH   1   2
HETATM    2  C   UNK N   1      34.664  18.152   8.583  0.00  0.00     0.164 C 
HETATM    3  O   UNK N   1      35.304  19.042   8.048  0.00  0.00    -0.648 OA
BRANCH   2   4
HETATM    4  O   UNK N   1      35.166  17.548   9.680  0.00  0.00    -0.775 OA
HETATM    5  H   UNK N   1      34.630  16.995  10.214  0.00  0.00     0.167 HD
ENDBRANCH   2   4
ENDBRANCH   1   2
BRANCH   1   6
HETATM    6  C   UNK N   1      33.420  16.742   6.802  0.00  0.00     0.028 C 
HETATM    7  C   UNK N   1      34.670  15.877   6.877  0.00  0.00     0.029 C 
HETATM    8  C   UNK N   1      33.414  17.476   5.470  0.00  0.00     0.029 C 
BRANCH   6   9
HETATM    9  S   UNK N   1      31.966  15.643   6.816  0.00  0.00    -0.170 SA
HETATM   10  H   UNK N   1      31.170  15.505   7.910  0.00  0.00     0.102 HD
ENDBRANCH   6   9
ENDBRANCH   1   6
BRANCH   1  11
HETATM   11  N   UNK N   1      32.515  17.157   9.055  0.00  0.00    -0.416 N 
HETATM   12  H   UNK N   1      31.521  17.068   9.266  0.00  0.00     0.150 HD
HETATM   13  H   UNK N   1      33.091  16.731   9.781  0.00  0.00     0.150 HD
ENDBRANCH   1  11
TORSDOF 5
ENDMDL
MODEL 2
REMARK VINA RESULT:      -3.7      2.812      3.239
REMARK  5 active torsions:
REMARK  status: ('A' for Active; 'I' for Inactive)
REMARK    1  A    between atoms: C_4  and  C_3 
REMARK    2  A    between atoms: C_5  and  C_3 
REMARK    3  A    between atoms: C_3  and  N_6 
REMARK    4  A    between atoms: O_8  and  C_4 
REMARK    5  A    between atoms: S_9  and  C_5 
ROOT
HETATM    1  C   UNK N   1      34.610  16.183   9.413  0.00  0.00     0.191 C 
ENDROOT
BRANCH   1   2
HETATM    2  C   UNK N   1      33.782  15.021   9.924  0.00  0.00     0.164 C 
HETATM    3  O   UNK N   1      33.707  14.001   9.261  0.00  0.00    -0.648 OA
BRANCH   2   4
HETATM    4  O   UNK N   1      33.110  15.101  11.091  0.00  0.00    -0.775 OA
HETATM    5  H   UNK N   1      33.550  14.982  11.910  0.00  0.00     0.167 HD
ENDBRANCH   2   4
ENDBRANCH   1   2
BRANCH   1   6
HETATM    6  C   UNK N   1      33.960  17.010   8.273  0.00  0.00     0.028 C 
HETATM    7  C   UNK N   1      34.528  18.421   8.207  0.00  0.00     0.029 C 
HETATM    8  C   UNK N   1      32.451  17.099   8.442  0.00  0.00     0.029 C 
BRANCH   6   9
HETATM    9  S   UNK N   1      34.273  16.195   6.674  0.00  0.00    -0.170 SA
HETATM   10  H   UNK N   1      33.358  15.383   6.080  0.00  0.00     0.102 HD
ENDBRANCH   6   9
ENDBRANCH   1   6
BRANCH   1  11
HETATM   11  N   UNK N   1      34.931  17.055  10.536  0.00  0.00    -0.416 N 
HETATM   12  H   UNK N   1      34.419  17.634  11.203  0.00  0.00     0.150 HD
HETATM   13  H   UNK N   1      35.936  17.099  10.698  0.00  0.00     0.150 HD
ENDBRANCH   1  11
TORSDOF 5
ENDMDL
MODEL 3
REMARK VINA RESULT:      -3.7     12.127     12.535
REMARK  5 active torsions:
REMARK  status: ('A' for Active; 'I' for Inactive)
REMARK    1  A    between atoms: C_4  and  C_3 
REMARK    2  A    between atoms: C_5  and  C_3 
REMARK    3  A    between atoms: C_3  and  N_6 
REMARK    4  A    between atoms: O_8  and  C_4 
REMARK    5  A    between atoms: S_9  and  C_5 
ROOT
HETATM    1  C   UNK N   1      44.348  22.018   3.815  0.00  0.00     0.191 C 
ENDROOT
BRANCH   1   2
HETATM    2  C   UNK N   1      43.807  23.292   3.201  0.00  0.00     0.164 C 
HETATM    3  O   UNK N   1      44.559  24.233   3.009  0.00  0.00    -0.648 OA
BRANCH   2   4
HETATM    4  O   UNK N   1      42.502  23.415   2.880  0.00  0.00    -0.775 OA
HETATM    5  H   UNK N   1      41.848  23.499   3.546  0.00  0.00     0.167 HD
ENDBRANCH   2   4
ENDBRANCH   1   2
BRANCH   1   6
HETATM    6  C   UNK N   1      44.265  20.758   2.913  0.00  0.00     0.028 C 
HETATM    7  C   UNK N   1      42.933  20.040   3.071  0.00  0.00     0.029 C 
HETATM    8  C   UNK N   1      45.387  19.779   3.222  0.00  0.00     0.029 C 
BRANCH   6   9
HETATM    9  S   UNK N   1      44.445  21.247   1.167  0.00  0.00    -0.170 SA
HETATM   10  H   UNK N   1      43.401  21.714   0.431  0.00  0.00     0.102 HD
ENDBRANCH   6   9
ENDBRANCH   1   6
BRANCH   1  11
HETATM   11  N   UNK N   1      45.730  22.246   4.220  0.00  0.00    -0.416 N 
HETATM   12  H   UNK N   1      46.225  22.833   4.892  0.00  0.00     0.150 HD
HETATM   13  H   UNK N   1      46.375  21.662   3.688  0.00  0.00     0.150 HD
ENDBRANCH   1  11
TORSDOF 5
ENDMDL
MODEL 4
REMARK VINA RESULT:      -3.5      1.625      2.301
REMARK  5 active torsions:
REMARK  status: ('A' for Active; 'I' for Inactive)
REMARK    1  A    between atoms: C_4  and  C_3 
REMARK    2  A    between atoms: C_5  and  C_3 
REMARK    3  A    between atoms: C_3  and  N_6 
REMARK    4  A    between atoms: O_8  and  C_4 
REMARK    5  A    between atoms: S_9  and  C_5 
ROOT
HETATM    1  C   UNK N   1      33.824  17.009   7.593  0.00  0.00     0.191 C 
ENDROOT
BRANCH   1   2
HETATM    2  C   UNK N   1      34.568  17.894   8.571  0.00  0.00     0.164 C 
HETATM    3  O   UNK N   1      34.890  19.021   8.237  0.00  0.00    -0.648 OA
BRANCH   2   4
HETATM    4  O   UNK N   1      34.901  17.451   9.802  0.00  0.00    -0.775 OA
HETATM    5  H   UNK N   1      34.244  17.158  10.402  0.00  0.00     0.167 HD
ENDBRANCH   2   4
ENDBRANCH   1   2
BRANCH   1   6
HETATM    6  C   UNK N   1      32.349  16.702   7.965  0.00  0.00     0.028 C 
HETATM    7  C   UNK N   1      31.649  17.923   8.545  0.00  0.00     0.029 C 
HETATM    8  C   UNK N   1      32.257  15.564   8.970  0.00  0.00     0.029 C 
BRANCH   6   9
HETATM    9  S   UNK N   1      31.441  16.178   6.475  0.00  0.00    -0.170 SA
HETATM   10  H   UNK N   1      31.265  14.868   6.155  0.00  0.00     0.102 HD
ENDBRANCH   6   9
ENDBRANCH   1   6
BRANCH   1  11
HETATM   11  N   UNK N   1      33.883  17.623   6.272  0.00  0.00    -0.416 N 
HETATM   12  H   UNK N   1      34.104  17.329   5.321  0.00  0.00     0.150 HD
HETATM   13  H   UNK N   1      33.637  18.612   6.310  0.00  0.00     0.150 HD
ENDBRANCH   1  11
TORSDOF 5
ENDMDL
MODEL 5
REMARK VINA RESULT:      -3.5     11.473     11.844
REMARK  5 active torsions:
REMARK  status: ('A' for Active; 'I' for Inactive)
REMARK    1  A    between atoms: C_4  and  C_3 
REMARK    2  A    between atoms: C_5  and  C_3 
REMARK    3  A    between atoms: C_3  and  N_6 
REMARK    4  A    between atoms: O_8  and  C_4 
REMARK    5  A    between atoms: S_9  and  C_5 
ROOT
HETATM    1  C   UNK N   1      43.759  22.334   2.808  0.00  0.00     0.191 C 
ENDROOT
BRANCH   1   2
HETATM    2  C   UNK N   1      44.485  22.331   4.137  0.00  0.00     0.164 C 
HETATM    3  O   UNK N   1      43.849  22.472   5.168  0.00  0.00    -0.648 OA
BRANCH   2   4
HETATM    4  O   UNK N   1      45.826  22.194   4.203  0.00  0.00    -0.775 OA
HETATM    5  H   UNK N   1      46.214  21.461   4.639  0.00  0.00     0.167 HD
ENDBRANCH   2   4
ENDBRANCH   1   2
BRANCH   1   6
HETATM    6  C   UNK N   1      43.092  20.990   2.412  0.00  0.00     0.028 C 
HETATM    7  C   UNK N   1      41.642  20.926   2.869  0.00  0.00     0.029 C 
HETATM    8  C   UNK N   1      43.841  19.805   3.000  0.00  0.00     0.029 C 
BRANCH   6   9
HETATM    9  S   UNK N   1      43.128  20.803   0.600  0.00  0.00    -0.170 SA
HETATM   10  H   UNK N   1      42.591  19.724  -0.030  0.00  0.00     0.102 HD
ENDBRANCH   6   9
ENDBRANCH   1   6
BRANCH   1  11
HETATM   11  N   UNK N   1      42.761  23.396   2.824  0.00  0.00    -0.416 N 
HETATM   12  H   UNK N   1      42.475  24.162   2.214  0.00  0.00     0.150 HD
HETATM   13  H   UNK N   1      42.197  23.364   3.673  0.00  0.00     0.150 HD
ENDBRANCH   1  11
TORSDOF 5
ENDMDL
MODEL 6
REMARK VINA RESULT:      -3.4     16.490     17.362
REMARK  5 active torsions:
REMARK  status: ('A' for Active; 'I' for Inactive)
REMARK    1  A    between atoms: C_4  and  C_3 
REMARK    2  A    between atoms: C_5  and  C_3 
REMARK    3  A    between atoms: C_3  and  N_6 
REMARK    4  A    between atoms: O_8  and  C_4 
REMARK    5  A    between atoms: S_9  and  C_5 
ROOT
HETATM    1  C   UNK N   1      26.867  25.864  -5.000  0.00  0.00     0.191 C 
ENDROOT
BRANCH   1   2
HETATM    2  C   UNK N   1      26.059  24.644  -4.610  0.00  0.00     0.164 C 
HETATM    3  O   UNK N   1      26.107  24.234  -3.463  0.00  0.00    -0.648 OA
BRANCH   2   4
HETATM    4  O   UNK N   1      25.300  23.989  -5.513  0.00  0.00    -0.775 OA
HETATM    5  H   UNK N   1      25.389  23.065  -5.637  0.00  0.00     0.167 HD
ENDBRANCH   2   4
ENDBRANCH   1   2
BRANCH   1   6
HETATM    6  C   UNK N   1      26.114  27.217  -4.909  0.00  0.00     0.028 C 
HETATM    7  C   UNK N   1      25.839  27.611  -3.464  0.00  0.00     0.029 C 
HETATM    8  C   UNK N   1      24.793  27.169  -5.661  0.00  0.00     0.029 C 
BRANCH   6   9
HETATM    9  S   UNK N   1      27.120  28.528  -5.675  0.00  0.00    -0.170 SA
HETATM   10  H   UNK N   1      26.583  29.475  -6.490  0.00  0.00     0.102 HD
ENDBRANCH   6   9
ENDBRANCH   1   6
BRANCH   1  11
HETATM   11  N   UNK N   1      28.069  25.910  -4.176  0.00  0.00    -0.416 N 
HETATM   12  H   UNK N   1      28.632  26.626  -3.716  0.00  0.00     0.150 HD
HETATM   13  H   UNK N   1      28.448  24.977  -4.018  0.00  0.00     0.150 HD
ENDBRANCH   1  11
TORSDOF 5
ENDMDL
MODEL 7
REMARK VINA RESULT:      -3.4      1.741      2.341
REMARK  5 active torsions:
REMARK  status: ('A' for Active; 'I' for Inactive)
REMARK    1  A    between atoms: C_4  and  C_3 
REMARK    2  A    between atoms: C_5  and  C_3 
REMARK    3  A    between atoms: C_3  and  N_6 
REMARK    4  A    between atoms: O_8  and  C_4 
REMARK    5  A    between atoms: S_9  and  C_5 
ROOT
HETATM    1  C   UNK N   1      33.273  16.870   7.956  0.00  0.00     0.191 C 
ENDROOT
BRANCH   1   2
HETATM    2  C   UNK N   1      34.136  17.879   7.226  0.00  0.00     0.164 C 
HETATM    3  O   UNK N   1      34.149  17.888   6.007  0.00  0.00    -0.648 OA
BRANCH   2   4
HETATM    4  O   UNK N   1      34.908  18.756   7.901  0.00  0.00    -0.775 OA
HETATM    5  H   UNK N   1      35.107  19.598   7.540  0.00  0.00     0.167 HD
ENDBRANCH   2   4
ENDBRANCH   1   2
BRANCH   1   6
HETATM    6  C   UNK N   1      34.041  15.697   8.620  0.00  0.00     0.028 C 
HETATM    7  C   UNK N   1      34.666  16.112   9.944  0.00  0.00     0.029 C 
HETATM    8  C   UNK N   1      35.137  15.164   7.710  0.00  0.00     0.029 C 
BRANCH   6   9
HETATM    9  S   UNK N   1      32.892  14.320   8.939  0.00  0.00    -0.170 SA
HETATM   10  H   UNK N   1      32.670  13.833  10.190  0.00  0.00     0.102 HD
ENDBRANCH   6   9
ENDBRANCH   1   6
BRANCH   1  11
HETATM   11  N   UNK N   1      32.481  17.572   8.957  0.00  0.00    -0.416 N 
HETATM   12  H   UNK N   1      31.501  17.821   9.095  0.00  0.00     0.150 HD
HETATM   13  H   UNK N   1      33.062  17.904   9.727  0.00  0.00     0.150 HD
ENDBRANCH   1  11
TORSDOF 5
ENDMDL
MODEL 8
REMARK VINA RESULT:      -3.4      8.261      8.889
REMARK  5 active torsions:
REMARK  status: ('A' for Active; 'I' for Inactive)
REMARK    1  A    between atoms: C_4  and  C_3 
REMARK    2  A    between atoms: C_5  and  C_3 
REMARK    3  A    between atoms: C_3  and  N_6 
REMARK    4  A    between atoms: O_8  and  C_4 
REMARK    5  A    between atoms: S_9  and  C_5 
ROOT
HETATM    1  C   UNK N   1      35.732  13.559  14.596  0.00  0.00     0.191 C 
ENDROOT
BRANCH   1   2
HETATM    2  C   UNK N   1      35.539  13.284  13.119  0.00  0.00     0.164 C 
HETATM    3  O   UNK N   1      36.412  12.703  12.497  0.00  0.00    -0.648 OA
BRANCH   2   4
HETATM    4  O   UNK N   1      34.425  13.687  12.472  0.00  0.00    -0.775 OA
HETATM    5  H   UNK N   1      34.014  13.138  11.833  0.00  0.00     0.167 HD
ENDBRANCH   2   4
ENDBRANCH   1   2
BRANCH   1   6
HETATM    6  C   UNK N   1      35.364  12.387  15.543  0.00  0.00     0.028 C 
HETATM    7  C   UNK N   1      36.503  11.385  15.668  0.00  0.00     0.029 C 
HETATM    8  C   UNK N   1      34.121  11.655  15.063  0.00  0.00     0.029 C 
BRANCH   6   9
HETATM    9  S   UNK N   1      34.995  13.040  17.204  0.00  0.00    -0.170 SA
HETATM   10  H   UNK N   1      34.309  12.320  18.132  0.00  0.00     0.102 HD
ENDBRANCH   6   9
ENDBRANCH   1   6
BRANCH   1  11
HETATM   11  N   UNK N   1      37.116  13.959  14.818  0.00  0.00    -0.416 N 
HETATM   12  H   UNK N   1      37.998  13.914  14.306  0.00  0.00     0.150 HD
HETATM   13  H   UNK N   1      37.235  14.402  15.728  0.00  0.00     0.150 HD
ENDBRANCH   1  11
TORSDOF 5
ENDMDL
MODEL 9
REMARK VINA RESULT:      -3.3      1.460      2.137
REMARK  5 active torsions:
REMARK  status: ('A' for Active; 'I' for Inactive)
REMARK    1  A    between atoms: C_4  and  C_3 
REMARK    2  A    between atoms: C_5  and  C_3 
REMARK    3  A    between atoms: C_3  and  N_6 
REMARK    4  A    between atoms: O_8  and  C_4 
REMARK    5  A    between atoms: S_9  and  C_5 
ROOT
HETATM    1  C   UNK N   1      32.540  17.737   7.866  0.00  0.00     0.191 C 
ENDROOT
BRANCH   1   2
HETATM    2  C   UNK N   1      33.966  17.920   8.342  0.00  0.00     0.164 C 
HETATM    3  O   UNK N   1      34.301  17.471   9.425  0.00  0.00    -0.648 OA
BRANCH   2   4
HETATM    4  O   UNK N   1      34.872  18.588   7.597  0.00  0.00    -0.775 OA
HETATM    5  H   UNK N   1      34.979  18.399   6.685  0.00  0.00     0.167 HD
ENDBRANCH   2   4
ENDBRANCH   1   2
BRANCH   1   6
HETATM    6  C   UNK N   1      32.332  16.629   6.800  0.00  0.00     0.028 C 
HETATM    7  C   UNK N   1      30.895  16.127   6.783  0.00  0.00     0.029 C 
HETATM    8  C   UNK N   1      33.257  15.446   7.042  0.00  0.00     0.029 C 
BRANCH   6   9
HETATM    9  S   UNK N   1      32.726  17.290   5.149  0.00  0.00    -0.170 SA
HETATM   10  H   UNK N   1      32.255  18.490   4.716  0.00  0.00     0.102 HD
ENDBRANCH   6   9
ENDBRANCH   1   6
BRANCH   1  11
HETATM   11  N   UNK N   1      31.693  17.474   9.024  0.00  0.00    -0.416 N 
HETATM   12  H   UNK N   1      31.825  17.229  10.005  0.00  0.00     0.150 HD
HETATM   13  H   UNK N   1      30.705  17.559   8.789  0.00  0.00     0.150 HD
ENDBRANCH   1  11
TORSDOF 5
ENDMDL
