REMARK  8 active torsions:
REMARK  status: ('A' for Active; 'I' for Inactive)
REMARK    1  A    between atoms: C_2  and  C_7 
REMARK    2  A    between atoms: C_6  and  N_14 
REMARK    3  A    between atoms: C_7  and  C_8 
REMARK    4  A    between atoms: C_7  and  O_9 
REMARK    5  A    between atoms: C_8  and  N_10 
REMARK    6  A    between atoms: C_8  and  C_11 
REMARK       I    between atoms: N_10  and  C_12 
REMARK    7  A    between atoms: C_11  and  O_13 
REMARK    8  A    between atoms: C_12  and  C_15 
ROOT
HETATM    1  C   UNK N   1      -1.491  -1.320   0.233  0.00  0.00     0.176 C 
ENDROOT
BRANCH   1   2
HETATM    2  C   UNK N   1      -0.137  -0.652   0.108  0.00  0.00    -0.028 A 
HETATM    3  C   UNK N   1       0.002   0.718  -0.159  0.00  0.00     0.012 A 
HETATM    4  C   UNK N   1       1.266   1.308  -0.217  0.00  0.00     0.037 A 
HETATM    5  C   UNK N   1       2.419   0.532  -0.026  0.00  0.00     0.102 A 
HETATM    6  C   UNK N   1       2.285  -0.841   0.221  0.00  0.00     0.037 A 
HETATM    7  C   UNK N   1       1.017  -1.425   0.299  0.00  0.00     0.012 A 
BRANCH   5   8
HETATM    8  N   UNK N   1       3.708   1.130  -0.076  0.00  0.00    -0.116 N 
HETATM    9  O   UNK N   1       4.788   0.390   0.055  0.00  0.00    -0.532 OA
HETATM   10  O   UNK N   1       3.820   2.311  -0.223  0.00  0.00    -0.532 OA
ENDBRANCH   5   8
ENDBRANCH   1   2
BRANCH   1  11
HETATM   11  C   UNK N   1      -2.746  -0.464  -0.031  0.00  0.00     0.141 C 
BRANCH  11  12
HETATM   12  N   UNK N   1      -3.916  -1.256   0.288  0.00  0.00    -0.349 N 
HETATM   13  C   UNK N   1      -5.182  -0.875  -0.017  0.00  0.00     0.251 C 
HETATM   14  O   UNK N   1      -5.388   0.171  -0.617  0.00  0.00    -0.271 OA
HETATM   15  H   UNK N   1      -3.785  -2.116   0.749  0.00  0.00     0.163 HD
BRANCH  13  16
HETATM   16  C   UNK N   1      -6.330  -1.751   0.402  0.00  0.00     0.269 C 
HETATM   17 Cl   UNK N   1      -6.166  -3.374  -0.315  0.00  0.00    -0.098 Cl
HETATM   18 Cl   UNK N   1      -7.921  -1.072  -0.046  0.00  0.00    -0.098 Cl
ENDBRANCH  13  16
ENDBRANCH  11  12
BRANCH  11  19
HETATM   19  C   UNK N   1      -2.776   0.820   0.791  0.00  0.00     0.192 C 
BRANCH  19  20
HETATM   20  O   UNK N   1      -2.703   1.917  -0.068  0.00  0.00    -0.399 OA
HETATM   21  H   UNK N   1      -2.017   2.255  -0.666  0.00  0.00     0.209 HD
ENDBRANCH  19  20
ENDBRANCH  11  19
ENDBRANCH   1  11
BRANCH   1  22
HETATM   22  O   UNK N   1      -1.532  -2.439  -0.603  0.00  0.00    -0.389 OA
HETATM   23  H   UNK N   1      -2.219  -2.802  -1.184  0.00  0.00     0.210 HD
ENDBRANCH   1  22
TORSDOF 8
