MODEL 1
REMARK VINA RESULT:      -8.4      0.000      0.000
REMARK  19 active torsions:
REMARK  status: ('A' for Active; 'I' for Inactive)
REMARK    1  A    between atoms: C_18  and  O_3 
REMARK    2  A    between atoms: O_5  and  C_31 
REMARK    3  A    between atoms: O_5  and  C_43 
REMARK    4  A    between atoms: C_16  and  N_8 
REMARK       I    between atoms: N_8  and  C_24 
REMARK    5  A    between atoms: C_19  and  N_9 
REMARK       I    between atoms: N_9  and  C_31 
REMARK    6  A    between atoms: C_22  and  N_10 
REMARK       I    between atoms: N_10  and  C_34 
REMARK       I    between atoms: N_11  and  C_34 
REMARK    7  A    between atoms: N_11  and  C_41 
REMARK    8  A    between atoms: C_16  and  C_17 
REMARK    9  A    between atoms: C_16  and  C_20 
REMARK   10  A    between atoms: C_17  and  C_18 
REMARK   11  A    between atoms: C_18  and  C_19 
REMARK   12  A    between atoms: C_19  and  C_21 
REMARK   13  A    between atoms: C_20  and  C_25 
REMARK   14  A    between atoms: C_21  and  C_26 
REMARK   15  A    between atoms: C_22  and  C_23 
REMARK   16  A    between atoms: C_22  and  C_24 
REMARK   17  A    between atoms: C_41  and  C_44 
REMARK   18  A    between atoms: C_43  and  C_45 
REMARK   19  A    between atoms: C_46  and  C_48 
ROOT
HETATM    1  C   UNK N   1      29.879  17.122   6.547  0.00  0.00     0.091 C 
ENDROOT
BRANCH   1   2
HETATM    2  N   UNK N   1      29.829  15.749   6.112  0.00  0.00    -0.354 N 
HETATM    3  C   UNK N   1      28.939  15.048   5.370  0.00  0.00     0.241 C 
HETATM    4  O   UNK N   1      29.105  13.843   5.327  0.00  0.00    -0.271 OA
HETATM    5  H   UNK N   1      30.597  15.213   6.413  0.00  0.00     0.162 HD
BRANCH   3   6
HETATM    6  C   UNK N   1      27.779  15.626   4.554  0.00  0.00     0.181 C 
BRANCH   6   7
HETATM    7  N   UNK N   1      26.537  14.970   4.909  0.00  0.00    -0.329 N 
HETATM    8  C   UNK N   1      25.423  15.683   5.222  0.00  0.00     0.319 C 
HETATM    9  O   UNK N   1      25.419  16.904   5.108  0.00  0.00    -0.247 OA
HETATM   10  N   UNK N   1      24.320  15.069   5.706  0.00  0.00    -0.333 N 
HETATM   11  C   UNK N   1      23.225  15.879   6.201  0.00  0.00     0.154 C 
HETATM   12  H   UNK N   1      26.500  13.987   4.926  0.00  0.00     0.165 HD
BRANCH  10  13
HETATM   13  C   UNK N   1      24.216  13.620   5.711  0.00  0.00     0.184 C 
BRANCH  13  14
HETATM   14  C   UNK N   1      24.135  13.177   7.132  0.00  0.00     0.034 A 
HETATM   15  N   UNK N   1      22.924  12.820   7.690  0.00  0.00    -0.355 N 
HETATM   16  C   UNK N   1      22.986  12.733   9.035  0.00  0.00     0.054 A 
ATOM     17  HN  UNK N   1      22.080  12.642   7.146  1.00  0.00     0.166 HD
HETATM   18  S   UNK N   1      24.527  13.086   9.524  0.00  0.00    -0.086 SA
HETATM   19  C   UNK N   1      25.190  13.386   8.034  0.00  0.00     0.078 A 
BRANCH  16  20
HETATM   20  C   UNK N   1      21.778  12.506   9.891  0.00  0.00     0.035 C 
HETATM   21  C   UNK N   1      20.826  13.688   9.899  0.00  0.00     0.016 C 
HETATM   22  C   UNK N   1      22.183  12.153  11.307  0.00  0.00     0.016 C 
ENDBRANCH  16  20
ENDBRANCH  13  14
ENDBRANCH  10  13
ENDBRANCH   6   7
BRANCH   6  23
HETATM   23  C   UNK N   1      27.902  15.950   3.055  0.00  0.00     0.009 C 
HETATM   24  C   UNK N   1      27.564  14.738   2.213  0.00  0.00     0.012 C 
HETATM   25  C   UNK N   1      29.341  16.294   2.706  0.00  0.00     0.012 C 
ENDBRANCH   6  23
ENDBRANCH   3   6
ENDBRANCH   1   2
BRANCH   1  26
HETATM   26  C   UNK N   1      30.855  17.222   7.740  0.00  0.00     0.059 C 
BRANCH  26  27
HETATM   27  C   UNK N   1      32.064  16.264   7.645  0.00  0.00     0.143 C 
BRANCH  27  28
HETATM   28  O   UNK N   1      31.802  15.102   8.371  0.00  0.00    -0.393 OA
HETATM   29  H   UNK N   1      32.516  14.500   8.635  0.00  0.00     0.210 HD
ENDBRANCH  27  28
BRANCH  27  30
HETATM   30  C   UNK N   1      33.419  16.872   8.070  0.00  0.00     0.119 C 
BRANCH  30  31
HETATM   31  N   UNK N   1      34.277  15.972   8.838  0.00  0.00    -0.329 N 
HETATM   32  C   UNK N   1      35.111  16.360   9.842  0.00  0.00     0.361 C 
HETATM   33  O   UNK N   1      35.205  17.536  10.148  0.00  0.00    -0.238 OA
HETATM   34  H   UNK N   1      34.251  15.014   8.612  0.00  0.00     0.165 HD
BRANCH  32  35
HETATM   35  O   UNK N   1      35.812  15.454  10.561  0.00  0.00    -0.299 OA
BRANCH  35  36
HETATM   36  C   UNK N   1      35.857  15.406  11.934  0.00  0.00     0.228 C 
BRANCH  36  37
HETATM   37  C   UNK N   1      36.425  14.076  12.306  0.00  0.00     0.023 A 
HETATM   38  S   UNK N   1      37.028  12.927  11.292  0.00  0.00    -0.086 SA
HETATM   39  C   UNK N   1      37.548  11.854  12.442  0.00  0.00     0.138 A 
HETATM   40  N   UNK N   1      37.256  12.373  13.666  0.00  0.00    -0.368 N 
HETATM   41  C   UNK N   1      36.635  13.603  13.606  0.00  0.00     0.104 A 
ATOM     42  HN  UNK N   1      37.474  11.899  14.543  1.00  0.00     0.165 HD
ENDBRANCH  36  37
ENDBRANCH  35  36
ENDBRANCH  32  35
ENDBRANCH  30  31
BRANCH  30  43
HETATM   43  C   UNK N   1      34.135  17.565   6.901  0.00  0.00     0.066 C 
BRANCH  43  44
HETATM   44  C   UNK N   1      33.823  16.975   5.561  0.00  0.00    -0.056 A 
HETATM   45  C   UNK N   1      34.265  15.684   5.247  0.00  0.00     0.007 A 
HETATM   46  C   UNK N   1      33.947  15.110   4.016  0.00  0.00     0.001 A 
HETATM   47  C   UNK N   1      33.176  15.823   3.095  0.00  0.00     0.000 A 
HETATM   48  C   UNK N   1      32.721  17.107   3.408  0.00  0.00     0.001 A 
HETATM   49  C   UNK N   1      33.041  17.683   4.644  0.00  0.00     0.007 A 
ENDBRANCH  43  44
ENDBRANCH  30  43
ENDBRANCH  27  30
ENDBRANCH  26  27
ENDBRANCH   1  26
BRANCH   1  50
HETATM   50  C   UNK N   1      28.490  17.613   6.986  0.00  0.00     0.063 C 
BRANCH  50  51
HETATM   51  C   UNK N   1      28.013  18.925   6.401  0.00  0.00    -0.056 A 
HETATM   52  C   UNK N   1      28.007  19.113   5.017  0.00  0.00     0.007 A 
HETATM   53  C   UNK N   1      27.460  20.283   4.474  0.00  0.00     0.001 A 
HETATM   54  C   UNK N   1      26.913  21.263   5.308  0.00  0.00     0.000 A 
HETATM   55  C   UNK N   1      26.913  21.081   6.689  0.00  0.00     0.001 A 
HETATM   56  C   UNK N   1      27.449  19.914   7.221  0.00  0.00     0.007 A 
ENDBRANCH  50  51
ENDBRANCH   1  50
TORSDOF 19
ENDMDL
MODEL 2
REMARK VINA RESULT:      -8.0      4.482     10.889
REMARK  19 active torsions:
REMARK  status: ('A' for Active; 'I' for Inactive)
REMARK    1  A    between atoms: C_18  and  O_3 
REMARK    2  A    between atoms: O_5  and  C_31 
REMARK    3  A    between atoms: O_5  and  C_43 
REMARK    4  A    between atoms: C_16  and  N_8 
REMARK       I    between atoms: N_8  and  C_24 
REMARK    5  A    between atoms: C_19  and  N_9 
REMARK       I    between atoms: N_9  and  C_31 
REMARK    6  A    between atoms: C_22  and  N_10 
REMARK       I    between atoms: N_10  and  C_34 
REMARK       I    between atoms: N_11  and  C_34 
REMARK    7  A    between atoms: N_11  and  C_41 
REMARK    8  A    between atoms: C_16  and  C_17 
REMARK    9  A    between atoms: C_16  and  C_20 
REMARK   10  A    between atoms: C_17  and  C_18 
REMARK   11  A    between atoms: C_18  and  C_19 
REMARK   12  A    between atoms: C_19  and  C_21 
REMARK   13  A    between atoms: C_20  and  C_25 
REMARK   14  A    between atoms: C_21  and  C_26 
REMARK   15  A    between atoms: C_22  and  C_23 
REMARK   16  A    between atoms: C_22  and  C_24 
REMARK   17  A    between atoms: C_41  and  C_44 
REMARK   18  A    between atoms: C_43  and  C_45 
REMARK   19  A    between atoms: C_46  and  C_48 
ROOT
HETATM    1  C   UNK N   1      26.337  13.264   4.647  0.00  0.00     0.091 C 
ENDROOT
BRANCH   1   2
HETATM    2  N   UNK N   1      27.638  12.686   4.873  0.00  0.00    -0.354 N 
HETATM    3  C   UNK N   1      28.897  13.135   4.656  0.00  0.00     0.241 C 
HETATM    4  O   UNK N   1      29.790  12.321   4.800  0.00  0.00    -0.271 OA
HETATM    5  H   UNK N   1      27.605  11.784   5.265  0.00  0.00     0.162 HD
BRANCH   3   6
HETATM    6  C   UNK N   1      29.303  14.566   4.293  0.00  0.00     0.181 C 
BRANCH   6   7
HETATM    7  N   UNK N   1      29.015  15.466   5.391  0.00  0.00    -0.329 N 
HETATM    8  C   UNK N   1      29.990  16.218   5.966  0.00  0.00     0.319 C 
HETATM    9  O   UNK N   1      31.122  16.226   5.496  0.00  0.00    -0.247 OA
HETATM   10  N   UNK N   1      29.744  16.930   7.088  0.00  0.00    -0.333 N 
HETATM   11  C   UNK N   1      30.852  17.566   7.774  0.00  0.00     0.154 C 
HETATM   12  H   UNK N   1      28.092  15.533   5.728  0.00  0.00     0.165 HD
BRANCH  10  13
HETATM   13  C   UNK N   1      28.391  17.082   7.594  0.00  0.00     0.184 C 
BRANCH  13  14
HETATM   14  C   UNK N   1      27.759  18.218   6.864  0.00  0.00     0.034 A 
HETATM   15  N   UNK N   1      26.961  17.988   5.762  0.00  0.00    -0.355 N 
HETATM   16  C   UNK N   1      26.719  19.116   5.061  0.00  0.00     0.054 A 
ATOM     17  HN  UNK N   1      26.596  17.071   5.507  1.00  0.00     0.166 HD
HETATM   18  S   UNK N   1      27.479  20.383   5.808  0.00  0.00    -0.086 SA
HETATM   19  C   UNK N   1      28.174  19.545   7.059  0.00  0.00     0.078 A 
BRANCH  16  20
HETATM   20  C   UNK N   1      26.004  19.118   3.745  0.00  0.00     0.035 C 
HETATM   21  C   UNK N   1      25.943  20.493   3.107  0.00  0.00     0.016 C 
HETATM   22  C   UNK N   1      24.609  18.548   3.892  0.00  0.00     0.016 C 
ENDBRANCH  16  20
ENDBRANCH  13  14
ENDBRANCH  10  13
ENDBRANCH   6   7
BRANCH   6  23
HETATM   23  C   UNK N   1      29.036  15.175   2.905  0.00  0.00     0.009 C 
HETATM   24  C   UNK N   1      27.767  16.001   2.915  0.00  0.00     0.012 C 
HETATM   25  C   UNK N   1      28.794  14.076   1.884  0.00  0.00     0.012 C 
ENDBRANCH   6  23
ENDBRANCH   3   6
ENDBRANCH   1   2
BRANCH   1  26
HETATM   26  C   UNK N   1      25.648  13.470   6.014  0.00  0.00     0.059 C 
BRANCH  26  27
HETATM   27  C   UNK N   1      24.965  14.847   6.172  0.00  0.00     0.143 C 
BRANCH  27  28
HETATM   28  O   UNK N   1      25.577  15.562   7.201  0.00  0.00    -0.393 OA
HETATM   29  H   UNK N   1      25.682  16.526   7.154  0.00  0.00     0.210 HD
ENDBRANCH  27  28
BRANCH  27  30
HETATM   30  C   UNK N   1      23.435  14.801   6.383  0.00  0.00     0.119 C 
BRANCH  30  31
HETATM   31  N   UNK N   1      22.662  15.585   5.422  0.00  0.00    -0.329 N 
HETATM   32  C   UNK N   1      21.916  16.681   5.731  0.00  0.00     0.361 C 
HETATM   33  O   UNK N   1      21.833  17.066   6.885  0.00  0.00    -0.238 OA
HETATM   34  H   UNK N   1      22.682  15.299   4.480  0.00  0.00     0.165 HD
BRANCH  32  35
HETATM   35  O   UNK N   1      21.295  17.401   4.770  0.00  0.00    -0.299 OA
BRANCH  35  36
HETATM   36  C   UNK N   1      21.114  18.764   4.803  0.00  0.00     0.228 C 
BRANCH  36  37
HETATM   37  C   UNK N   1      20.899  19.210   3.395  0.00  0.00     0.023 A 
HETATM   38  S   UNK N   1      21.509  20.555   2.667  0.00  0.00    -0.086 SA
HETATM   39  C   UNK N   1      20.932  20.274   1.141  0.00  0.00     0.138 A 
HETATM   40  N   UNK N   1      20.235  19.105   1.162  0.00  0.00    -0.368 N 
HETATM   41  C   UNK N   1      20.209  18.505   2.403  0.00  0.00     0.104 A 
ATOM     42  HN  UNK N   1      19.775  18.712   0.340  1.00  0.00     0.165 HD
ENDBRANCH  36  37
ENDBRANCH  35  36
ENDBRANCH  32  35
ENDBRANCH  30  31
BRANCH  30  43
HETATM   43  C   UNK N   1      22.920  13.366   6.571  0.00  0.00     0.066 C 
BRANCH  43  44
HETATM   44  C   UNK N   1      22.491  13.051   7.969  0.00  0.00    -0.056 A 
HETATM   45  C   UNK N   1      23.069  11.973   8.652  0.00  0.00     0.007 A 
HETATM   46  C   UNK N   1      22.703  11.695   9.969  0.00  0.00     0.001 A 
HETATM   47  C   UNK N   1      21.763  12.501  10.615  0.00  0.00     0.000 A 
HETATM   48  C   UNK N   1      21.193  13.586   9.943  0.00  0.00     0.001 A 
HETATM   49  C   UNK N   1      21.559  13.865   8.621  0.00  0.00     0.007 A 
ENDBRANCH  43  44
ENDBRANCH  30  43
ENDBRANCH  27  30
ENDBRANCH  26  27
ENDBRANCH   1  26
BRANCH   1  50
HETATM   50  C   UNK N   1      25.467  12.343   3.776  0.00  0.00     0.063 C 
BRANCH  50  51
HETATM   51  C   UNK N   1      24.517  13.016   2.808  0.00  0.00    -0.056 A 
HETATM   52  C   UNK N   1      25.019  13.762   1.740  0.00  0.00     0.007 A 
HETATM   53  C   UNK N   1      24.141  14.289   0.783  0.00  0.00     0.001 A 
HETATM   54  C   UNK N   1      22.763  14.066   0.887  0.00  0.00     0.000 A 
HETATM   55  C   UNK N   1      22.257  13.321   1.948  0.00  0.00     0.001 A 
HETATM   56  C   UNK N   1      23.134  12.793   2.889  0.00  0.00     0.007 A 
ENDBRANCH  50  51
ENDBRANCH   1  50
TORSDOF 19
ENDMDL
MODEL 3
REMARK VINA RESULT:      -7.8      3.823      6.141
REMARK  19 active torsions:
REMARK  status: ('A' for Active; 'I' for Inactive)
REMARK    1  A    between atoms: C_18  and  O_3 
REMARK    2  A    between atoms: O_5  and  C_31 
REMARK    3  A    between atoms: O_5  and  C_43 
REMARK    4  A    between atoms: C_16  and  N_8 
REMARK       I    between atoms: N_8  and  C_24 
REMARK    5  A    between atoms: C_19  and  N_9 
REMARK       I    between atoms: N_9  and  C_31 
REMARK    6  A    between atoms: C_22  and  N_10 
REMARK       I    between atoms: N_10  and  C_34 
REMARK       I    between atoms: N_11  and  C_34 
REMARK    7  A    between atoms: N_11  and  C_41 
REMARK    8  A    between atoms: C_16  and  C_17 
REMARK    9  A    between atoms: C_16  and  C_20 
REMARK   10  A    between atoms: C_17  and  C_18 
REMARK   11  A    between atoms: C_18  and  C_19 
REMARK   12  A    between atoms: C_19  and  C_21 
REMARK   13  A    between atoms: C_20  and  C_25 
REMARK   14  A    between atoms: C_21  and  C_26 
REMARK   15  A    between atoms: C_22  and  C_23 
REMARK   16  A    between atoms: C_22  and  C_24 
REMARK   17  A    between atoms: C_41  and  C_44 
REMARK   18  A    between atoms: C_43  and  C_45 
REMARK   19  A    between atoms: C_46  and  C_48 
ROOT
HETATM    1  C   UNK N   1      28.580  16.574   4.809  0.00  0.00     0.091 C 
ENDROOT
BRANCH   1   2
HETATM    2  N   UNK N   1      27.810  15.730   5.688  0.00  0.00    -0.354 N 
HETATM    3  C   UNK N   1      26.524  15.306   5.667  0.00  0.00     0.241 C 
HETATM    4  O   UNK N   1      26.131  14.732   6.666  0.00  0.00    -0.271 OA
HETATM    5  H   UNK N   1      28.322  15.393   6.458  0.00  0.00     0.162 HD
BRANCH   3   6
HETATM    6  C   UNK N   1      25.540  15.442   4.502  0.00  0.00     0.181 C 
BRANCH   6   7
HETATM    7  N   UNK N   1      24.176  15.377   4.985  0.00  0.00    -0.329 N 
HETATM    8  C   UNK N   1      23.478  16.503   5.293  0.00  0.00     0.319 C 
HETATM    9  O   UNK N   1      23.959  17.608   5.068  0.00  0.00    -0.247 OA
HETATM   10  N   UNK N   1      22.269  16.427   5.892  0.00  0.00    -0.333 N 
HETATM   11  C   UNK N   1      21.645  17.644   6.372  0.00  0.00     0.154 C 
HETATM   12  H   UNK N   1      23.745  14.499   5.094  0.00  0.00     0.165 HD
BRANCH  10  13
HETATM   13  C   UNK N   1      21.587  15.152   6.037  0.00  0.00     0.184 C 
BRANCH  13  14
HETATM   14  C   UNK N   1      21.650  14.765   7.474  0.00  0.00     0.034 A 
HETATM   15  N   UNK N   1      22.699  14.007   7.954  0.00  0.00    -0.355 N 
HETATM   16  C   UNK N   1      22.450  13.507   9.182  0.00  0.00     0.054 A 
ATOM     17  HN  UNK N   1      23.563  13.845   7.438  1.00  0.00     0.166 HD
HETATM   18  S   UNK N   1      20.950  14.008   9.670  0.00  0.00    -0.086 SA
HETATM   19  C   UNK N   1      20.535  14.877   8.321  0.00  0.00     0.078 A 
BRANCH  16  20
HETATM   20  C   UNK N   1      23.362  12.535   9.864  0.00  0.00     0.035 C 
HETATM   21  C   UNK N   1      22.921  12.199  11.277  0.00  0.00     0.016 C 
HETATM   22  C   UNK N   1      24.787  13.049   9.871  0.00  0.00     0.016 C 
ENDBRANCH  16  20
ENDBRANCH  13  14
ENDBRANCH  10  13
ENDBRANCH   6   7
BRANCH   6  23
HETATM   23  C   UNK N   1      25.753  14.736   3.152  0.00  0.00     0.009 C 
HETATM   24  C   UNK N   1      26.137  15.734   2.078  0.00  0.00     0.012 C 
HETATM   25  C   UNK N   1      24.454  14.109   2.672  0.00  0.00     0.012 C 
ENDBRANCH   6  23
ENDBRANCH   3   6
ENDBRANCH   1   2
BRANCH   1  26
HETATM   26  C   UNK N   1      29.906  15.854   4.476  0.00  0.00     0.059 C 
BRANCH  26  27
HETATM   27  C   UNK N   1      30.967  16.764   3.819  0.00  0.00     0.143 C 
BRANCH  27  28
HETATM   28  O   UNK N   1      30.671  16.930   2.466  0.00  0.00    -0.393 OA
HETATM   29  H   UNK N   1      29.984  16.401   2.030  0.00  0.00     0.210 HD
ENDBRANCH  27  28
BRANCH  27  30
HETATM   30  C   UNK N   1      32.430  16.303   3.998  0.00  0.00     0.119 C 
BRANCH  30  31
HETATM   31  N   UNK N   1      33.071  15.816   2.778  0.00  0.00    -0.329 N 
HETATM   32  C   UNK N   1      33.795  14.667   2.683  0.00  0.00     0.361 C 
HETATM   33  O   UNK N   1      33.975  13.968   3.665  0.00  0.00    -0.238 OA
HETATM   34  H   UNK N   1      32.971  16.359   1.962  0.00  0.00     0.165 HD
BRANCH  32  35
HETATM   35  O   UNK N   1      34.287  14.243   1.497  0.00  0.00    -0.299 OA
BRANCH  35  36
HETATM   36  C   UNK N   1      34.624  12.942   1.207  0.00  0.00     0.228 C 
BRANCH  36  37
HETATM   37  C   UNK N   1      33.920  12.580  -0.059  0.00  0.00     0.023 A 
HETATM   38  S   UNK N   1      32.453  11.849  -0.214  0.00  0.00    -0.086 SA
HETATM   39  C   UNK N   1      32.336  11.911  -1.864  0.00  0.00     0.138 A 
HETATM   40  N   UNK N   1      33.459  12.513  -2.344  0.00  0.00    -0.368 N 
HETATM   41  C   UNK N   1      34.344  12.889  -1.356  0.00  0.00     0.104 A 
ATOM     42  HN  UNK N   1      33.630  12.669  -3.338  1.00  0.00     0.165 HD
ENDBRANCH  36  37
ENDBRANCH  35  36
ENDBRANCH  32  35
ENDBRANCH  30  31
BRANCH  30  43
HETATM   43  C   UNK N   1      33.271  17.330   4.772  0.00  0.00     0.066 C 
BRANCH  43  44
HETATM   44  C   UNK N   1      33.509  16.967   6.204  0.00  0.00    -0.056 A 
HETATM   45  C   UNK N   1      33.343  15.641   6.624  0.00  0.00     0.007 A 
HETATM   46  C   UNK N   1      33.599  15.284   7.948  0.00  0.00     0.001 A 
HETATM   47  C   UNK N   1      34.033  16.252   8.858  0.00  0.00     0.000 A 
HETATM   48  C   UNK N   1      34.212  17.574   8.441  0.00  0.00     0.001 A 
HETATM   49  C   UNK N   1      33.954  17.932   7.112  0.00  0.00     0.007 A 
ENDBRANCH  43  44
ENDBRANCH  30  43
ENDBRANCH  27  30
ENDBRANCH  26  27
ENDBRANCH   1  26
BRANCH   1  50
HETATM   50  C   UNK N   1      28.891  17.926   5.472  0.00  0.00     0.063 C 
BRANCH  50  51
HETATM   51  C   UNK N   1      29.097  17.920   6.971  0.00  0.00    -0.056 A 
HETATM   52  C   UNK N   1      28.073  18.347   7.820  0.00  0.00     0.007 A 
HETATM   53  C   UNK N   1      28.225  18.234   9.208  0.00  0.00     0.001 A 
HETATM   54  C   UNK N   1      29.394  17.690   9.752  0.00  0.00     0.000 A 
HETATM   55  C   UNK N   1      30.416  17.260   8.911  0.00  0.00     0.001 A 
HETATM   56  C   UNK N   1      30.257  17.366   7.534  0.00  0.00     0.007 A 
ENDBRANCH  50  51
ENDBRANCH   1  50
TORSDOF 19
ENDMDL
MODEL 4
REMARK VINA RESULT:      -7.7      3.777     11.002
REMARK  19 active torsions:
REMARK  status: ('A' for Active; 'I' for Inactive)
REMARK    1  A    between atoms: C_18  and  O_3 
REMARK    2  A    between atoms: O_5  and  C_31 
REMARK    3  A    between atoms: O_5  and  C_43 
REMARK    4  A    between atoms: C_16  and  N_8 
REMARK       I    between atoms: N_8  and  C_24 
REMARK    5  A    between atoms: C_19  and  N_9 
REMARK       I    between atoms: N_9  and  C_31 
REMARK    6  A    between atoms: C_22  and  N_10 
REMARK       I    between atoms: N_10  and  C_34 
REMARK       I    between atoms: N_11  and  C_34 
REMARK    7  A    between atoms: N_11  and  C_41 
REMARK    8  A    between atoms: C_16  and  C_17 
REMARK    9  A    between atoms: C_16  and  C_20 
REMARK   10  A    between atoms: C_17  and  C_18 
REMARK   11  A    between atoms: C_18  and  C_19 
REMARK   12  A    between atoms: C_19  and  C_21 
REMARK   13  A    between atoms: C_20  and  C_25 
REMARK   14  A    between atoms: C_21  and  C_26 
REMARK   15  A    between atoms: C_22  and  C_23 
REMARK   16  A    between atoms: C_22  and  C_24 
REMARK   17  A    between atoms: C_41  and  C_44 
REMARK   18  A    between atoms: C_43  and  C_45 
REMARK   19  A    between atoms: C_46  and  C_48 
ROOT
HETATM    1  C   UNK N   1      24.622  16.315   4.794  0.00  0.00     0.091 C 
ENDROOT
BRANCH   1   2
HETATM    2  N   UNK N   1      24.875  16.087   3.393  0.00  0.00    -0.354 N 
HETATM    3  C   UNK N   1      25.932  15.575   2.719  0.00  0.00     0.241 C 
HETATM    4  O   UNK N   1      25.898  15.679   1.506  0.00  0.00    -0.271 OA
HETATM    5  H   UNK N   1      24.130  16.357   2.810  0.00  0.00     0.162 HD
BRANCH   3   6
HETATM    6  C   UNK N   1      27.133  14.846   3.327  0.00  0.00     0.181 C 
BRANCH   6   7
HETATM    7  N   UNK N   1      28.049  15.796   3.924  0.00  0.00    -0.329 N 
HETATM    8  C   UNK N   1      28.153  15.929   5.273  0.00  0.00     0.319 C 
HETATM    9  O   UNK N   1      27.543  15.169   6.017  0.00  0.00    -0.247 OA
HETATM   10  N   UNK N   1      28.889  16.925   5.816  0.00  0.00    -0.333 N 
HETATM   11  C   UNK N   1      28.822  17.146   7.247  0.00  0.00     0.154 C 
HETATM   12  H   UNK N   1      28.608  16.358   3.340  0.00  0.00     0.165 HD
BRANCH  10  13
HETATM   13  C   UNK N   1      29.753  17.750   4.990  0.00  0.00     0.184 C 
BRANCH  13  14
HETATM   14  C   UNK N   1      31.112  17.139   5.005  0.00  0.00     0.034 A 
HETATM   15  N   UNK N   1      31.892  17.185   6.142  0.00  0.00    -0.355 N 
HETATM   16  C   UNK N   1      33.177  16.857   5.896  0.00  0.00     0.054 A 
ATOM     17  HN  UNK N   1      31.536  17.439   7.064  1.00  0.00     0.166 HD
HETATM   18  S   UNK N   1      33.340  16.504   4.287  0.00  0.00    -0.086 SA
HETATM   19  C   UNK N   1      31.773  16.773   3.820  0.00  0.00     0.078 A 
BRANCH  16  20
HETATM   20  C   UNK N   1      34.258  16.969   6.927  0.00  0.00     0.035 C 
HETATM   21  C   UNK N   1      34.376  15.733   7.799  0.00  0.00     0.016 C 
HETATM   22  C   UNK N   1      34.052  18.198   7.788  0.00  0.00     0.016 C 
ENDBRANCH  16  20
ENDBRANCH  13  14
ENDBRANCH  10  13
ENDBRANCH   6   7
BRANCH   6  23
HETATM   23  C   UNK N   1      27.832  13.670   2.622  0.00  0.00     0.009 C 
HETATM   24  C   UNK N   1      28.099  12.541   3.596  0.00  0.00     0.012 C 
HETATM   25  C   UNK N   1      29.199  14.096   2.114  0.00  0.00     0.012 C 
ENDBRANCH   6  23
ENDBRANCH   3   6
ENDBRANCH   1   2
BRANCH   1  26
HETATM   26  C   UNK N   1      23.586  15.277   5.279  0.00  0.00     0.059 C 
BRANCH  26  27
HETATM   27  C   UNK N   1      23.711  14.919   6.778  0.00  0.00     0.143 C 
BRANCH  27  28
HETATM   28  O   UNK N   1      25.011  14.498   7.054  0.00  0.00    -0.393 OA
HETATM   29  H   UNK N   1      25.464  13.851   6.490  0.00  0.00     0.210 HD
ENDBRANCH  27  28
BRANCH  27  30
HETATM   30  C   UNK N   1      22.688  13.883   7.292  0.00  0.00     0.119 C 
BRANCH  30  31
HETATM   31  N   UNK N   1      21.550  13.654   6.403  0.00  0.00    -0.329 N 
HETATM   32  C   UNK N   1      20.300  14.160   6.591  0.00  0.00     0.361 C 
HETATM   33  O   UNK N   1      20.051  14.841   7.571  0.00  0.00    -0.238 OA
HETATM   34  H   UNK N   1      21.699  13.092   5.608  0.00  0.00     0.165 HD
BRANCH  32  35
HETATM   35  O   UNK N   1      19.322  13.970   5.677  0.00  0.00    -0.299 OA
BRANCH  35  36
HETATM   36  C   UNK N   1      18.644  14.977   5.032  0.00  0.00     0.228 C 
BRANCH  36  37
HETATM   37  C   UNK N   1      19.587  15.569   4.037  0.00  0.00     0.023 A 
HETATM   38  S   UNK N   1      20.331  17.036   4.113  0.00  0.00    -0.086 SA
HETATM   39  C   UNK N   1      21.264  16.894   2.752  0.00  0.00     0.138 A 
HETATM   40  N   UNK N   1      21.011  15.678   2.193  0.00  0.00    -0.368 N 
HETATM   41  C   UNK N   1      20.085  14.934   2.894  0.00  0.00     0.104 A 
ATOM     42  HN  UNK N   1      21.462  15.350   1.339  1.00  0.00     0.165 HD
ENDBRANCH  36  37
ENDBRANCH  35  36
ENDBRANCH  32  35
ENDBRANCH  30  31
BRANCH  30  43
HETATM   43  C   UNK N   1      23.365  12.592   7.777  0.00  0.00     0.066 C 
BRANCH  43  44
HETATM   44  C   UNK N   1      23.224  12.346   9.246  0.00  0.00    -0.056 A 
HETATM   45  C   UNK N   1      24.367  12.174  10.039  0.00  0.00     0.007 A 
HETATM   46  C   UNK N   1      24.247  11.982  11.415  0.00  0.00     0.001 A 
HETATM   47  C   UNK N   1      22.983  11.971  12.009  0.00  0.00     0.000 A 
HETATM   48  C   UNK N   1      21.840  12.154  11.225  0.00  0.00     0.001 A 
HETATM   49  C   UNK N   1      21.960  12.346   9.843  0.00  0.00     0.007 A 
ENDBRANCH  43  44
ENDBRANCH  30  43
ENDBRANCH  27  30
ENDBRANCH  26  27
ENDBRANCH   1  26
BRANCH   1  50
HETATM   50  C   UNK N   1      24.071  17.731   5.032  0.00  0.00     0.063 C 
BRANCH  50  51
HETATM   51  C   UNK N   1      24.798  18.870   4.352  0.00  0.00    -0.056 A 
HETATM   52  C   UNK N   1      26.145  19.107   4.631  0.00  0.00     0.007 A 
HETATM   53  C   UNK N   1      26.844  20.089   3.916  0.00  0.00     0.001 A 
HETATM   54  C   UNK N   1      26.202  20.833   2.920  0.00  0.00     0.000 A 
HETATM   55  C   UNK N   1      24.859  20.600   2.635  0.00  0.00     0.001 A 
HETATM   56  C   UNK N   1      24.173  19.617   3.341  0.00  0.00     0.007 A 
ENDBRANCH  50  51
ENDBRANCH   1  50
TORSDOF 19
ENDMDL
MODEL 5
REMARK VINA RESULT:      -7.7      6.010     10.593
REMARK  19 active torsions:
REMARK  status: ('A' for Active; 'I' for Inactive)
REMARK    1  A    between atoms: C_18  and  O_3 
REMARK    2  A    between atoms: O_5  and  C_31 
REMARK    3  A    between atoms: O_5  and  C_43 
REMARK    4  A    between atoms: C_16  and  N_8 
REMARK       I    between atoms: N_8  and  C_24 
REMARK    5  A    between atoms: C_19  and  N_9 
REMARK       I    between atoms: N_9  and  C_31 
REMARK    6  A    between atoms: C_22  and  N_10 
REMARK       I    between atoms: N_10  and  C_34 
REMARK       I    between atoms: N_11  and  C_34 
REMARK    7  A    between atoms: N_11  and  C_41 
REMARK    8  A    between atoms: C_16  and  C_17 
REMARK    9  A    between atoms: C_16  and  C_20 
REMARK   10  A    between atoms: C_17  and  C_18 
REMARK   11  A    between atoms: C_18  and  C_19 
REMARK   12  A    between atoms: C_19  and  C_21 
REMARK   13  A    between atoms: C_20  and  C_25 
REMARK   14  A    between atoms: C_21  and  C_26 
REMARK   15  A    between atoms: C_22  and  C_23 
REMARK   16  A    between atoms: C_22  and  C_24 
REMARK   17  A    between atoms: C_41  and  C_44 
REMARK   18  A    between atoms: C_43  and  C_45 
REMARK   19  A    between atoms: C_46  and  C_48 
ROOT
HETATM    1  C   UNK N   1      36.308  13.294  13.286  0.00  0.00     0.091 C 
ENDROOT
BRANCH   1   2
HETATM    2  N   UNK N   1      37.243  12.574  12.459  0.00  0.00    -0.354 N 
HETATM    3  C   UNK N   1      37.270  11.305  11.987  0.00  0.00     0.241 C 
HETATM    4  O   UNK N   1      38.303  10.954  11.448  0.00  0.00    -0.271 OA
HETATM    5  H   UNK N   1      38.017  13.114  12.179  0.00  0.00     0.162 HD
BRANCH   3   6
HETATM    6  C   UNK N   1      36.121  10.294  12.029  0.00  0.00     0.181 C 
BRANCH   6   7
HETATM    7  N   UNK N   1      35.286  10.432  10.854  0.00  0.00    -0.329 N 
HETATM    8  C   UNK N   1      35.362   9.550   9.822  0.00  0.00     0.319 C 
HETATM    9  O   UNK N   1      36.071   8.553   9.912  0.00  0.00    -0.247 OA
HETATM   10  N   UNK N   1      34.698   9.776   8.667  0.00  0.00    -0.333 N 
HETATM   11  C   UNK N   1      34.952   8.913   7.530  0.00  0.00     0.154 C 
HETATM   12  H   UNK N   1      34.650  11.182  10.800  0.00  0.00     0.165 HD
BRANCH  10  13
HETATM   13  C   UNK N   1      33.725  10.850   8.563  0.00  0.00     0.184 C 
BRANCH  13  14
HETATM   14  C   UNK N   1      33.766  11.366   7.166  0.00  0.00     0.034 A 
HETATM   15  N   UNK N   1      34.637  12.378   6.816  0.00  0.00    -0.355 N 
HETATM   16  C   UNK N   1      34.340  12.916   5.614  0.00  0.00     0.054 A 
ATOM     17  HN  UNK N   1      35.416  12.683   7.398  1.00  0.00     0.166 HD
HETATM   18  S   UNK N   1      33.019  12.138   4.992  0.00  0.00    -0.086 SA
HETATM   19  C   UNK N   1      32.748  11.083   6.241  0.00  0.00     0.078 A 
BRANCH  16  20
HETATM   20  C   UNK N   1      35.039  14.124   5.069  0.00  0.00     0.035 C 
HETATM   21  C   UNK N   1      35.967  14.777   6.076  0.00  0.00     0.016 C 
HETATM   22  C   UNK N   1      34.037  15.133   4.549  0.00  0.00     0.016 C 
ENDBRANCH  16  20
ENDBRANCH  13  14
ENDBRANCH  10  13
ENDBRANCH   6   7
BRANCH   6  23
HETATM   23  C   UNK N   1      35.336   9.986  13.316  0.00  0.00     0.009 C 
HETATM   24  C   UNK N   1      35.364   8.503  13.621  0.00  0.00     0.012 C 
HETATM   25  C   UNK N   1      33.867  10.331  13.133  0.00  0.00     0.012 C 
ENDBRANCH   6  23
ENDBRANCH   3   6
ENDBRANCH   1   2
BRANCH   1  26
HETATM   26  C   UNK N   1      35.998  14.648  12.611  0.00  0.00     0.059 C 
BRANCH  26  27
HETATM   27  C   UNK N   1      34.764  14.618  11.680  0.00  0.00     0.143 C 
BRANCH  27  28
HETATM   28  O   UNK N   1      34.218  13.335  11.664  0.00  0.00    -0.393 OA
HETATM   29  H   UNK N   1      34.773  12.549  11.788  0.00  0.00     0.210 HD
ENDBRANCH  27  28
BRANCH  27  30
HETATM   30  C   UNK N   1      35.015  15.116  10.240  0.00  0.00     0.119 C 
BRANCH  30  31
HETATM   31  N   UNK N   1      36.405  15.026   9.796  0.00  0.00    -0.329 N 
HETATM   32  C   UNK N   1      37.003  13.895   9.332  0.00  0.00     0.361 C 
HETATM   33  O   UNK N   1      36.385  12.845   9.284  0.00  0.00    -0.238 OA
HETATM   34  H   UNK N   1      36.950  15.846   9.837  0.00  0.00     0.165 HD
BRANCH  32  35
HETATM   35  O   UNK N   1      38.271  13.913   8.862  0.00  0.00    -0.299 OA
BRANCH  35  36
HETATM   36  C   UNK N   1      39.034  12.796   8.618  0.00  0.00     0.228 C 
BRANCH  36  37
HETATM   37  C   UNK N   1      40.057  13.180   7.601  0.00  0.00     0.023 A 
HETATM   38  S   UNK N   1      41.457  12.392   7.242  0.00  0.00    -0.086 SA
HETATM   39  C   UNK N   1      41.942  13.344   5.977  0.00  0.00     0.138 A 
HETATM   40  N   UNK N   1      41.008  14.320   5.802  0.00  0.00    -0.368 N 
HETATM   41  C   UNK N   1      39.959  14.241   6.693  0.00  0.00     0.104 A 
ATOM     42  HN  UNK N   1      41.079  15.039   5.082  1.00  0.00     0.165 HD
ENDBRANCH  36  37
ENDBRANCH  35  36
ENDBRANCH  32  35
ENDBRANCH  30  31
BRANCH  30  43
HETATM   43  C   UNK N   1      34.006  14.529   9.241  0.00  0.00     0.066 C 
BRANCH  43  44
HETATM   44  C   UNK N   1      33.183  15.558   8.532  0.00  0.00    -0.056 A 
HETATM   45  C   UNK N   1      33.509  16.916   8.649  0.00  0.00     0.007 A 
HETATM   46  C   UNK N   1      32.771  17.880   7.963  0.00  0.00     0.001 A 
HETATM   47  C   UNK N   1      31.707  17.490   7.146  0.00  0.00     0.000 A 
HETATM   48  C   UNK N   1      31.385  16.136   7.016  0.00  0.00     0.001 A 
HETATM   49  C   UNK N   1      32.125  15.168   7.705  0.00  0.00     0.007 A 
ENDBRANCH  43  44
ENDBRANCH  30  43
ENDBRANCH  27  30
ENDBRANCH  26  27
ENDBRANCH   1  26
BRANCH   1  50
HETATM   50  C   UNK N   1      36.890  13.549  14.686  0.00  0.00     0.063 C 
BRANCH  50  51
HETATM   51  C   UNK N   1      36.254  12.799  15.837  0.00  0.00    -0.056 A 
HETATM   52  C   UNK N   1      36.476  11.429  15.987  0.00  0.00     0.007 A 
HETATM   53  C   UNK N   1      35.979  10.761  17.115  0.00  0.00     0.001 A 
HETATM   54  C   UNK N   1      35.267  11.459  18.096  0.00  0.00     0.000 A 
HETATM   55  C   UNK N   1      35.046  12.826  17.953  0.00  0.00     0.001 A 
HETATM   56  C   UNK N   1      35.548  13.485  16.837  0.00  0.00     0.007 A 
ENDBRANCH  50  51
ENDBRANCH   1  50
TORSDOF 19
ENDMDL
MODEL 6
REMARK VINA RESULT:      -7.7      3.317     10.939
REMARK  19 active torsions:
REMARK  status: ('A' for Active; 'I' for Inactive)
REMARK    1  A    between atoms: C_18  and  O_3 
REMARK    2  A    between atoms: O_5  and  C_31 
REMARK    3  A    between atoms: O_5  and  C_43 
REMARK    4  A    between atoms: C_16  and  N_8 
REMARK       I    between atoms: N_8  and  C_24 
REMARK    5  A    between atoms: C_19  and  N_9 
REMARK       I    between atoms: N_9  and  C_31 
REMARK    6  A    between atoms: C_22  and  N_10 
REMARK       I    between atoms: N_10  and  C_34 
REMARK       I    between atoms: N_11  and  C_34 
REMARK    7  A    between atoms: N_11  and  C_41 
REMARK    8  A    between atoms: C_16  and  C_17 
REMARK    9  A    between atoms: C_16  and  C_20 
REMARK   10  A    between atoms: C_17  and  C_18 
REMARK   11  A    between atoms: C_18  and  C_19 
REMARK   12  A    between atoms: C_19  and  C_21 
REMARK   13  A    between atoms: C_20  and  C_25 
REMARK   14  A    between atoms: C_21  and  C_26 
REMARK   15  A    between atoms: C_22  and  C_23 
REMARK   16  A    between atoms: C_22  and  C_24 
REMARK   17  A    between atoms: C_41  and  C_44 
REMARK   18  A    between atoms: C_43  and  C_45 
REMARK   19  A    between atoms: C_46  and  C_48 
ROOT
HETATM    1  C   UNK N   1      25.589  16.234   3.902  0.00  0.00     0.091 C 
ENDROOT
BRANCH   1   2
HETATM    2  N   UNK N   1      26.469  16.263   5.043  0.00  0.00    -0.354 N 
HETATM    3  C   UNK N   1      27.633  16.907   5.294  0.00  0.00     0.241 C 
HETATM    4  O   UNK N   1      28.222  16.579   6.307  0.00  0.00    -0.271 OA
HETATM    5  H   UNK N   1      26.161  15.703   5.791  0.00  0.00     0.162 HD
BRANCH   3   6
HETATM    6  C   UNK N   1      28.253  18.028   4.454  0.00  0.00     0.181 C 
BRANCH   6   7
HETATM    7  N   UNK N   1      29.694  17.886   4.410  0.00  0.00    -0.329 N 
HETATM    8  C   UNK N   1      30.291  16.939   3.639  0.00  0.00     0.319 C 
HETATM    9  O   UNK N   1      29.619  16.248   2.880  0.00  0.00    -0.247 OA
HETATM   10  N   UNK N   1      31.620  16.709   3.727  0.00  0.00    -0.333 N 
HETATM   11  C   UNK N   1      32.184  15.570   3.029  0.00  0.00     0.154 C 
HETATM   12  H   UNK N   1      30.254  18.488   4.952  0.00  0.00     0.165 HD
BRANCH  10  13
HETATM   13  C   UNK N   1      32.481  17.598   4.487  0.00  0.00     0.184 C 
BRANCH  13  14
HETATM   14  C   UNK N   1      33.029  16.825   5.637  0.00  0.00     0.034 A 
HETATM   15  N   UNK N   1      34.326  16.353   5.614  0.00  0.00    -0.355 N 
HETATM   16  C   UNK N   1      34.556  15.441   6.581  0.00  0.00     0.054 A 
ATOM     17  HN  UNK N   1      35.029  16.659   4.942  1.00  0.00     0.166 HD
HETATM   18  S   UNK N   1      33.170  15.231   7.460  0.00  0.00    -0.086 SA
HETATM   19  C   UNK N   1      32.196  16.287   6.632  0.00  0.00     0.078 A 
BRANCH  16  20
HETATM   20  C   UNK N   1      35.836  14.669   6.683  0.00  0.00     0.035 C 
HETATM   21  C   UNK N   1      36.215  13.977   5.387  0.00  0.00     0.016 C 
HETATM   22  C   UNK N   1      35.766  13.662   7.812  0.00  0.00     0.016 C 
ENDBRANCH  16  20
ENDBRANCH  13  14
ENDBRANCH  10  13
ENDBRANCH   6   7
BRANCH   6  23
HETATM   23  C   UNK N   1      27.776  19.488   4.541  0.00  0.00     0.009 C 
HETATM   24  C   UNK N   1      27.142  19.767   5.888  0.00  0.00     0.012 C 
HETATM   25  C   UNK N   1      26.682  19.747   3.518  0.00  0.00     0.012 C 
ENDBRANCH   6  23
ENDBRANCH   3   6
ENDBRANCH   1   2
BRANCH   1  26
HETATM   26  C   UNK N   1      24.318  15.444   4.283  0.00  0.00     0.059 C 
BRANCH  26  27
HETATM   27  C   UNK N   1      23.545  16.037   5.482  0.00  0.00     0.143 C 
BRANCH  27  28
HETATM   28  O   UNK N   1      24.132  15.616   6.676  0.00  0.00    -0.393 OA
HETATM   29  H   UNK N   1      24.160  14.678   6.921  0.00  0.00     0.210 HD
ENDBRANCH  27  28
BRANCH  27  30
HETATM   30  C   UNK N   1      22.029  15.746   5.495  0.00  0.00     0.119 C 
BRANCH  30  31
HETATM   31  N   UNK N   1      21.492  15.363   6.800  0.00  0.00    -0.329 N 
HETATM   32  C   UNK N   1      20.476  14.478   6.994  0.00  0.00     0.361 C 
HETATM   33  O   UNK N   1      19.921  13.955   6.043  0.00  0.00    -0.238 OA
HETATM   34  H   UNK N   1      21.895  15.776   7.598  0.00  0.00     0.165 HD
BRANCH  32  35
HETATM   35  O   UNK N   1      20.092  14.113   8.238  0.00  0.00    -0.299 OA
BRANCH  35  36
HETATM   36  C   UNK N   1      20.651  14.584   9.403  0.00  0.00     0.228 C 
BRANCH  36  37
HETATM   37  C   UNK N   1      21.425  13.457  10.002  0.00  0.00     0.023 A 
HETATM   38  S   UNK N   1      23.022  13.117   9.790  0.00  0.00    -0.086 SA
HETATM   39  C   UNK N   1      23.129  11.844  10.844  0.00  0.00     0.138 A 
HETATM   40  N   UNK N   1      21.900  11.647  11.395  0.00  0.00    -0.368 N 
HETATM   41  C   UNK N   1      20.947  12.534  10.938  0.00  0.00     0.104 A 
ATOM     42  HN  UNK N   1      21.702  10.916  12.077  1.00  0.00     0.165 HD
ENDBRANCH  36  37
ENDBRANCH  35  36
ENDBRANCH  32  35
ENDBRANCH  30  31
BRANCH  30  43
HETATM   43  C   UNK N   1      21.222  16.849   4.793  0.00  0.00     0.066 C 
BRANCH  43  44
HETATM   44  C   UNK N   1      20.828  16.513   3.389  0.00  0.00    -0.056 A 
HETATM   45  C   UNK N   1      20.443  17.532   2.508  0.00  0.00     0.007 A 
HETATM   46  C   UNK N   1      20.110  17.234   1.186  0.00  0.00     0.001 A 
HETATM   47  C   UNK N   1      20.170  15.913   0.735  0.00  0.00     0.000 A 
HETATM   48  C   UNK N   1      20.566  14.894   1.606  0.00  0.00     0.001 A 
HETATM   49  C   UNK N   1      20.899  15.193   2.933  0.00  0.00     0.007 A 
ENDBRANCH  43  44
ENDBRANCH  30  43
ENDBRANCH  27  30
ENDBRANCH  26  27
ENDBRANCH   1  26
BRANCH   1  50
HETATM   50  C   UNK N   1      26.266  15.556   2.699  0.00  0.00     0.063 C 
BRANCH  50  51
HETATM   51  C   UNK N   1      25.485  14.462   2.004  0.00  0.00    -0.056 A 
HETATM   52  C   UNK N   1      24.467  14.791   1.106  0.00  0.00     0.007 A 
HETATM   53  C   UNK N   1      23.823  13.780   0.380  0.00  0.00     0.001 A 
HETATM   54  C   UNK N   1      24.196  12.442   0.544  0.00  0.00     0.000 A 
HETATM   55  C   UNK N   1      25.212  12.107   1.435  0.00  0.00     0.001 A 
HETATM   56  C   UNK N   1      25.854  13.115   2.146  0.00  0.00     0.007 A 
ENDBRANCH  50  51
ENDBRANCH   1  50
TORSDOF 19
ENDMDL
MODEL 7
REMARK VINA RESULT:      -7.6      3.359     10.646
REMARK  19 active torsions:
REMARK  status: ('A' for Active; 'I' for Inactive)
REMARK    1  A    between atoms: C_18  and  O_3 
REMARK    2  A    between atoms: O_5  and  C_31 
REMARK    3  A    between atoms: O_5  and  C_43 
REMARK    4  A    between atoms: C_16  and  N_8 
REMARK       I    between atoms: N_8  and  C_24 
REMARK    5  A    between atoms: C_19  and  N_9 
REMARK       I    between atoms: N_9  and  C_31 
REMARK    6  A    between atoms: C_22  and  N_10 
REMARK       I    between atoms: N_10  and  C_34 
REMARK       I    between atoms: N_11  and  C_34 
REMARK    7  A    between atoms: N_11  and  C_41 
REMARK    8  A    between atoms: C_16  and  C_17 
REMARK    9  A    between atoms: C_16  and  C_20 
REMARK   10  A    between atoms: C_17  and  C_18 
REMARK   11  A    between atoms: C_18  and  C_19 
REMARK   12  A    between atoms: C_19  and  C_21 
REMARK   13  A    between atoms: C_20  and  C_25 
REMARK   14  A    between atoms: C_21  and  C_26 
REMARK   15  A    between atoms: C_22  and  C_23 
REMARK   16  A    between atoms: C_22  and  C_24 
REMARK   17  A    between atoms: C_41  and  C_44 
REMARK   18  A    between atoms: C_43  and  C_45 
REMARK   19  A    between atoms: C_46  and  C_48 
ROOT
HETATM    1  C   UNK N   1      28.694  16.937   4.007  0.00  0.00     0.091 C 
ENDROOT
BRANCH   1   2
HETATM    2  N   UNK N   1      29.831  16.966   3.121  0.00  0.00    -0.354 N 
HETATM    3  C   UNK N   1      31.097  16.500   3.231  0.00  0.00     0.241 C 
HETATM    4  O   UNK N   1      31.875  16.843   2.360  0.00  0.00    -0.271 OA
HETATM    5  H   UNK N   1      29.650  17.413   2.264  0.00  0.00     0.162 HD
BRANCH   3   6
HETATM    6  C   UNK N   1      31.630  15.557   4.314  0.00  0.00     0.181 C 
BRANCH   6   7
HETATM    7  N   UNK N   1      32.279  16.313   5.366  0.00  0.00    -0.329 N 
HETATM    8  C   UNK N   1      31.634  16.615   6.524  0.00  0.00     0.319 C 
HETATM    9  O   UNK N   1      30.517  16.160   6.745  0.00  0.00    -0.247 OA
HETATM   10  N   UNK N   1      32.188  17.453   7.428  0.00  0.00    -0.333 N 
HETATM   11  C   UNK N   1      31.393  17.895   8.556  0.00  0.00     0.154 C 
HETATM   12  H   UNK N   1      33.206  16.617   5.238  0.00  0.00     0.165 HD
BRANCH  10  13
HETATM   13  C   UNK N   1      33.566  17.892   7.291  0.00  0.00     0.184 C 
BRANCH  13  14
HETATM   14  C   UNK N   1      34.423  16.938   8.050  0.00  0.00     0.034 A 
HETATM   15  N   UNK N   1      34.743  15.704   7.520  0.00  0.00    -0.355 N 
HETATM   16  C   UNK N   1      35.265  14.870   8.443  0.00  0.00     0.054 A 
ATOM     17  HN  UNK N   1      34.601  15.453   6.542  1.00  0.00     0.166 HD
HETATM   18  S   UNK N   1      35.337  15.658   9.897  0.00  0.00    -0.086 SA
HETATM   19  C   UNK N   1      34.684  17.105   9.420  0.00  0.00     0.078 A 
BRANCH  16  20
HETATM   20  C   UNK N   1      35.560  13.428   8.163  0.00  0.00     0.035 C 
HETATM   21  C   UNK N   1      36.462  12.794   9.205  0.00  0.00     0.016 C 
HETATM   22  C   UNK N   1      36.159  13.262   6.782  0.00  0.00     0.016 C 
ENDBRANCH  16  20
ENDBRANCH  13  14
ENDBRANCH  10  13
ENDBRANCH   6   7
BRANCH   6  23
HETATM   23  C   UNK N   1      32.331  14.228   3.984  0.00  0.00     0.009 C 
HETATM   24  C   UNK N   1      32.055  13.193   5.055  0.00  0.00     0.012 C 
HETATM   25  C   UNK N   1      33.839  14.413   3.981  0.00  0.00     0.012 C 
ENDBRANCH   6  23
ENDBRANCH   3   6
ENDBRANCH   1   2
BRANCH   1  26
HETATM   26  C   UNK N   1      27.945  15.602   3.798  0.00  0.00     0.059 C 
BRANCH  26  27
HETATM   27  C   UNK N   1      26.620  15.496   4.587  0.00  0.00     0.143 C 
BRANCH  27  28
HETATM   28  O   UNK N   1      26.790  14.649   5.681  0.00  0.00    -0.393 OA
HETATM   29  H   UNK N   1      27.359  14.897   6.428  0.00  0.00     0.210 HD
ENDBRANCH  27  28
BRANCH  27  30
HETATM   30  C   UNK N   1      25.393  15.061   3.754  0.00  0.00     0.119 C 
BRANCH  30  31
HETATM   31  N   UNK N   1      24.151  15.756   4.088  0.00  0.00    -0.329 N 
HETATM   32  C   UNK N   1      23.358  15.466   5.155  0.00  0.00     0.361 C 
HETATM   33  O   UNK N   1      23.646  14.551   5.907  0.00  0.00    -0.238 OA
HETATM   34  H   UNK N   1      23.867  16.490   3.496  0.00  0.00     0.165 HD
BRANCH  32  35
HETATM   35  O   UNK N   1      22.267  16.211   5.442  0.00  0.00    -0.299 OA
BRANCH  35  36
HETATM   36  C   UNK N   1      22.229  17.585   5.426  0.00  0.00     0.228 C 
BRANCH  36  37
HETATM   37  C   UNK N   1      21.159  17.981   4.463  0.00  0.00     0.023 A 
HETATM   38  S   UNK N   1      21.008  19.415   3.669  0.00  0.00    -0.086 SA
HETATM   39  C   UNK N   1      19.693  19.028   2.740  0.00  0.00     0.138 A 
HETATM   40  N   UNK N   1      19.331  17.749   3.032  0.00  0.00    -0.368 N 
HETATM   41  C   UNK N   1      20.135  17.156   3.984  0.00  0.00     0.104 A 
ATOM     42  HN  UNK N   1      18.543  17.274   2.592  1.00  0.00     0.165 HD
ENDBRANCH  36  37
ENDBRANCH  35  36
ENDBRANCH  32  35
ENDBRANCH  30  31
BRANCH  30  43
HETATM   43  C   UNK N   1      25.699  15.024   2.249  0.00  0.00     0.066 C 
BRANCH  43  44
HETATM   44  C   UNK N   1      25.039  13.895   1.522  0.00  0.00    -0.056 A 
HETATM   45  C   UNK N   1      23.910  14.139   0.729  0.00  0.00     0.007 A 
HETATM   46  C   UNK N   1      23.311  13.100   0.017  0.00  0.00     0.001 A 
HETATM   47  C   UNK N   1      23.843  11.811   0.087  0.00  0.00     0.000 A 
HETATM   48  C   UNK N   1      24.977  11.564   0.867  0.00  0.00     0.001 A 
HETATM   49  C   UNK N   1      25.578  12.606   1.582  0.00  0.00     0.007 A 
ENDBRANCH  43  44
ENDBRANCH  30  43
ENDBRANCH  27  30
ENDBRANCH  26  27
ENDBRANCH   1  26
BRANCH   1  50
HETATM   50  C   UNK N   1      27.737  18.105   3.717  0.00  0.00     0.063 C 
BRANCH  50  51
HETATM   51  C   UNK N   1      27.474  19.070   4.852  0.00  0.00    -0.056 A 
HETATM   52  C   UNK N   1      27.934  18.780   6.139  0.00  0.00     0.007 A 
HETATM   53  C   UNK N   1      27.788  19.725   7.162  0.00  0.00     0.001 A 
HETATM   54  C   UNK N   1      27.189  20.963   6.904  0.00  0.00     0.000 A 
HETATM   55  C   UNK N   1      26.731  21.260   5.623  0.00  0.00     0.001 A 
HETATM   56  C   UNK N   1      26.887  20.321   4.609  0.00  0.00     0.007 A 
ENDBRANCH  50  51
ENDBRANCH   1  50
TORSDOF 19
ENDMDL
MODEL 8
REMARK VINA RESULT:      -7.6      1.973      2.760
REMARK  19 active torsions:
REMARK  status: ('A' for Active; 'I' for Inactive)
REMARK    1  A    between atoms: C_18  and  O_3 
REMARK    2  A    between atoms: O_5  and  C_31 
REMARK    3  A    between atoms: O_5  and  C_43 
REMARK    4  A    between atoms: C_16  and  N_8 
REMARK       I    between atoms: N_8  and  C_24 
REMARK    5  A    between atoms: C_19  and  N_9 
REMARK       I    between atoms: N_9  and  C_31 
REMARK    6  A    between atoms: C_22  and  N_10 
REMARK       I    between atoms: N_10  and  C_34 
REMARK       I    between atoms: N_11  and  C_34 
REMARK    7  A    between atoms: N_11  and  C_41 
REMARK    8  A    between atoms: C_16  and  C_17 
REMARK    9  A    between atoms: C_16  and  C_20 
REMARK   10  A    between atoms: C_17  and  C_18 
REMARK   11  A    between atoms: C_18  and  C_19 
REMARK   12  A    between atoms: C_19  and  C_21 
REMARK   13  A    between atoms: C_20  and  C_25 
REMARK   14  A    between atoms: C_21  and  C_26 
REMARK   15  A    between atoms: C_22  and  C_23 
REMARK   16  A    between atoms: C_22  and  C_24 
REMARK   17  A    between atoms: C_41  and  C_44 
REMARK   18  A    between atoms: C_43  and  C_45 
REMARK   19  A    between atoms: C_46  and  C_48 
ROOT
HETATM    1  C   UNK N   1      28.915  16.713   5.590  0.00  0.00     0.091 C 
ENDROOT
BRANCH   1   2
HETATM    2  N   UNK N   1      28.242  15.444   5.711  0.00  0.00    -0.354 N 
HETATM    3  C   UNK N   1      27.028  15.002   5.306  0.00  0.00     0.241 C 
HETATM    4  O   UNK N   1      26.688  13.910   5.722  0.00  0.00    -0.271 OA
HETATM    5  H   UNK N   1      28.772  14.762   6.182  0.00  0.00     0.162 HD
BRANCH   3   6
HETATM    6  C   UNK N   1      26.071  15.718   4.349  0.00  0.00     0.181 C 
BRANCH   6   7
HETATM    7  N   UNK N   1      24.702  15.564   4.797  0.00  0.00    -0.329 N 
HETATM    8  C   UNK N   1      23.932  16.640   5.108  0.00  0.00     0.319 C 
HETATM    9  O   UNK N   1      24.351  17.776   4.915  0.00  0.00    -0.247 OA
HETATM   10  N   UNK N   1      22.716  16.481   5.676  0.00  0.00    -0.333 N 
HETATM   11  C   UNK N   1      22.009  17.649   6.162  0.00  0.00     0.154 C 
HETATM   12  H   UNK N   1      24.322  14.659   4.880  0.00  0.00     0.165 HD
BRANCH  10  13
HETATM   13  C   UNK N   1      22.108  15.166   5.780  0.00  0.00     0.184 C 
BRANCH  13  14
HETATM   14  C   UNK N   1      22.039  14.811   7.226  0.00  0.00     0.034 A 
HETATM   15  N   UNK N   1      23.005  14.009   7.800  0.00  0.00    -0.355 N 
HETATM   16  C   UNK N   1      22.636  13.554   9.015  0.00  0.00     0.054 A 
ATOM     17  HN  UNK N   1      23.895  13.787   7.355  1.00  0.00     0.166 HD
HETATM   18  S   UNK N   1      21.134  14.148   9.376  0.00  0.00    -0.086 SA
HETATM   19  C   UNK N   1      20.872  15.005   7.982  0.00  0.00     0.078 A 
BRANCH  16  20
HETATM   20  C   UNK N   1      23.438  12.550   9.786  0.00  0.00     0.035 C 
HETATM   21  C   UNK N   1      22.867  12.267  11.163  0.00  0.00     0.016 C 
HETATM   22  C   UNK N   1      24.882  12.989   9.898  0.00  0.00     0.016 C 
ENDBRANCH  16  20
ENDBRANCH  13  14
ENDBRANCH  10  13
ENDBRANCH   6   7
BRANCH   6  23
HETATM   23  C   UNK N   1      26.233  15.662   2.820  0.00  0.00     0.009 C 
HETATM   24  C   UNK N   1      25.295  14.637   2.217  0.00  0.00     0.012 C 
HETATM   25  C   UNK N   1      27.631  15.193   2.454  0.00  0.00     0.012 C 
ENDBRANCH   6  23
ENDBRANCH   3   6
ENDBRANCH   1   2
BRANCH   1  26
HETATM   26  C   UNK N   1      30.432  16.481   5.759  0.00  0.00     0.059 C 
BRANCH  26  27
HETATM   27  C   UNK N   1      31.312  17.487   4.983  0.00  0.00     0.143 C 
BRANCH  27  28
HETATM   28  O   UNK N   1      30.691  17.827   3.782  0.00  0.00    -0.393 OA
HETATM   29  H   UNK N   1      29.724  17.881   3.711  0.00  0.00     0.210 HD
ENDBRANCH  27  28
BRANCH  27  30
HETATM   30  C   UNK N   1      32.765  17.029   4.728  0.00  0.00     0.119 C 
BRANCH  30  31
HETATM   31  N   UNK N   1      33.286  16.077   5.708  0.00  0.00    -0.329 N 
HETATM   32  C   UNK N   1      34.161  16.386   6.704  0.00  0.00     0.361 C 
HETATM   33  O   UNK N   1      34.592  17.521   6.818  0.00  0.00    -0.238 OA
HETATM   34  H   UNK N   1      32.982  15.143   5.642  0.00  0.00     0.165 HD
BRANCH  32  35
HETATM   35  O   UNK N   1      34.532  15.465   7.623  0.00  0.00    -0.299 OA
BRANCH  35  36
HETATM   36  C   UNK N   1      33.726  14.994   8.632  0.00  0.00     0.228 C 
BRANCH  36  37
HETATM   37  C   UNK N   1      34.541  15.007   9.883  0.00  0.00     0.023 A 
HETATM   38  S   UNK N   1      35.282  16.301  10.581  0.00  0.00    -0.086 SA
HETATM   39  C   UNK N   1      35.848  15.540  11.938  0.00  0.00     0.138 A 
HETATM   40  N   UNK N   1      35.468  14.233  11.878  0.00  0.00    -0.368 N 
HETATM   41  C   UNK N   1      34.743  13.925  10.746  0.00  0.00     0.104 A 
ATOM     42  HN  UNK N   1      35.697  13.549  12.600  1.00  0.00     0.165 HD
ENDBRANCH  36  37
ENDBRANCH  35  36
ENDBRANCH  32  35
ENDBRANCH  30  31
BRANCH  30  43
HETATM   43  C   UNK N   1      32.989  16.602   3.269  0.00  0.00     0.066 C 
BRANCH  43  44
HETATM   44  C   UNK N   1      32.933  15.123   3.053  0.00  0.00    -0.056 A 
HETATM   45  C   UNK N   1      34.120  14.393   2.907  0.00  0.00     0.007 A 
HETATM   46  C   UNK N   1      34.080  13.008   2.743  0.00  0.00     0.001 A 
HETATM   47  C   UNK N   1      32.851  12.343   2.733  0.00  0.00     0.000 A 
HETATM   48  C   UNK N   1      31.664  13.066   2.891  0.00  0.00     0.001 A 
HETATM   49  C   UNK N   1      31.704  14.456   3.055  0.00  0.00     0.007 A 
ENDBRANCH  43  44
ENDBRANCH  30  43
ENDBRANCH  27  30
ENDBRANCH  26  27
ENDBRANCH   1  26
BRANCH   1  50
HETATM   50  C   UNK N   1      28.431  17.700   6.666  0.00  0.00     0.063 C 
BRANCH  50  51
HETATM   51  C   UNK N   1      27.860  19.015   6.179  0.00  0.00    -0.056 A 
HETATM   52  C   UNK N   1      27.581  19.197   4.823  0.00  0.00     0.007 A 
HETATM   53  C   UNK N   1      26.948  20.371   4.392  0.00  0.00     0.001 A 
HETATM   54  C   UNK N   1      26.589  21.361   5.313  0.00  0.00     0.000 A 
HETATM   55  C   UNK N   1      26.862  21.184   6.667  0.00  0.00     0.001 A 
HETATM   56  C   UNK N   1      27.482  20.013   7.089  0.00  0.00     0.007 A 
ENDBRANCH  50  51
ENDBRANCH   1  50
TORSDOF 19
ENDMDL
MODEL 9
REMARK VINA RESULT:      -7.5      2.424      9.378
REMARK  19 active torsions:
REMARK  status: ('A' for Active; 'I' for Inactive)
REMARK    1  A    between atoms: C_18  and  O_3 
REMARK    2  A    between atoms: O_5  and  C_31 
REMARK    3  A    between atoms: O_5  and  C_43 
REMARK    4  A    between atoms: C_16  and  N_8 
REMARK       I    between atoms: N_8  and  C_24 
REMARK    5  A    between atoms: C_19  and  N_9 
REMARK       I    between atoms: N_9  and  C_31 
REMARK    6  A    between atoms: C_22  and  N_10 
REMARK       I    between atoms: N_10  and  C_34 
REMARK       I    between atoms: N_11  and  C_34 
REMARK    7  A    between atoms: N_11  and  C_41 
REMARK    8  A    between atoms: C_16  and  C_17 
REMARK    9  A    between atoms: C_16  and  C_20 
REMARK   10  A    between atoms: C_17  and  C_18 
REMARK   11  A    between atoms: C_18  and  C_19 
REMARK   12  A    between atoms: C_19  and  C_21 
REMARK   13  A    between atoms: C_20  and  C_25 
REMARK   14  A    between atoms: C_21  and  C_26 
REMARK   15  A    between atoms: C_22  and  C_23 
REMARK   16  A    between atoms: C_22  and  C_24 
REMARK   17  A    between atoms: C_41  and  C_44 
REMARK   18  A    between atoms: C_43  and  C_45 
REMARK   19  A    between atoms: C_46  and  C_48 
ROOT
HETATM    1  C   UNK N   1      28.712  16.897   3.858  0.00  0.00     0.091 C 
ENDROOT
BRANCH   1   2
HETATM    2  N   UNK N   1      29.899  16.970   3.042  0.00  0.00    -0.354 N 
HETATM    3  C   UNK N   1      31.159  16.502   3.203  0.00  0.00     0.241 C 
HETATM    4  O   UNK N   1      31.983  16.888   2.395  0.00  0.00    -0.271 OA
HETATM    5  H   UNK N   1      29.766  17.458   2.198  0.00  0.00     0.162 HD
BRANCH   3   6
HETATM    6  C   UNK N   1      31.632  15.510   4.269  0.00  0.00     0.181 C 
BRANCH   6   7
HETATM    7  N   UNK N   1      32.324  16.207   5.334  0.00  0.00    -0.329 N 
HETATM    8  C   UNK N   1      31.680  16.584   6.470  0.00  0.00     0.319 C 
HETATM    9  O   UNK N   1      30.516  16.248   6.661  0.00  0.00    -0.247 OA
HETATM   10  N   UNK N   1      32.291  17.371   7.384  0.00  0.00    -0.333 N 
HETATM   11  C   UNK N   1      31.512  17.903   8.485  0.00  0.00     0.154 C 
HETATM   12  H   UNK N   1      33.282  16.412   5.232  0.00  0.00     0.165 HD
BRANCH  10  13
HETATM   13  C   UNK N   1      33.710  17.664   7.286  0.00  0.00     0.184 C 
BRANCH  13  14
HETATM   14  C   UNK N   1      34.424  16.779   8.249  0.00  0.00     0.034 A 
HETATM   15  N   UNK N   1      34.455  15.413   8.059  0.00  0.00    -0.355 N 
HETATM   16  C   UNK N   1      34.878  14.752   9.157  0.00  0.00     0.054 A 
ATOM     17  HN  UNK N   1      34.188  14.955   7.188  1.00  0.00     0.166 HD
HETATM   18  S   UNK N   1      35.219  15.853  10.345  0.00  0.00    -0.086 SA
HETATM   19  C   UNK N   1      34.823  17.233   9.517  0.00  0.00     0.078 A 
BRANCH  16  20
HETATM   20  C   UNK N   1      34.864  13.258   9.263  0.00  0.00     0.035 C 
HETATM   21  C   UNK N   1      35.018  12.765  10.690  0.00  0.00     0.016 C 
HETATM   22  C   UNK N   1      35.932  12.648   8.381  0.00  0.00     0.016 C 
ENDBRANCH  16  20
ENDBRANCH  13  14
ENDBRANCH  10  13
ENDBRANCH   6   7
BRANCH   6  23
HETATM   23  C   UNK N   1      32.252  14.147   3.914  0.00  0.00     0.009 C 
HETATM   24  C   UNK N   1      31.375  13.396   2.934  0.00  0.00     0.012 C 
HETATM   25  C   UNK N   1      32.326  13.263   5.148  0.00  0.00     0.012 C 
ENDBRANCH   6  23
ENDBRANCH   3   6
ENDBRANCH   1   2
BRANCH   1  26
HETATM   26  C   UNK N   1      27.964  15.589   3.517  0.00  0.00     0.059 C 
BRANCH  26  27
HETATM   27  C   UNK N   1      27.230  14.953   4.719  0.00  0.00     0.143 C 
BRANCH  27  28
HETATM   28  O   UNK N   1      27.886  13.785   5.107  0.00  0.00    -0.393 OA
HETATM   29  H   UNK N   1      28.485  13.772   5.870  0.00  0.00     0.210 HD
ENDBRANCH  27  28
BRANCH  27  30
HETATM   30  C   UNK N   1      25.726  14.680   4.500  0.00  0.00     0.119 C 
BRANCH  30  31
HETATM   31  N   UNK N   1      24.906  14.778   5.706  0.00  0.00    -0.329 N 
HETATM   32  C   UNK N   1      24.732  13.778   6.614  0.00  0.00     0.361 C 
HETATM   33  O   UNK N   1      25.257  12.691   6.443  0.00  0.00    -0.238 OA
HETATM   34  H   UNK N   1      24.445  15.632   5.876  0.00  0.00     0.165 HD
BRANCH  32  35
HETATM   35  O   UNK N   1      24.023  13.975   7.748  0.00  0.00    -0.299 OA
BRANCH  35  36
HETATM   36  C   UNK N   1      22.832  13.357   8.047  0.00  0.00     0.228 C 
BRANCH  36  37
HETATM   37  C   UNK N   1      22.992  12.730   9.393  0.00  0.00     0.023 A 
HETATM   38  S   UNK N   1      24.393  12.478  10.220  0.00  0.00    -0.086 SA
HETATM   39  C   UNK N   1      23.734  11.878  11.615  0.00  0.00     0.138 A 
HETATM   40  N   UNK N   1      22.381  11.857  11.468  0.00  0.00    -0.368 N 
HETATM   41  C   UNK N   1      21.956  12.327  10.243  0.00  0.00     0.104 A 
ATOM     42  HN  UNK N   1      21.743  11.526  12.192  1.00  0.00     0.165 HD
ENDBRANCH  36  37
ENDBRANCH  35  36
ENDBRANCH  32  35
ENDBRANCH  30  31
BRANCH  30  43
HETATM   43  C   UNK N   1      25.164  15.461   3.303  0.00  0.00     0.066 C 
BRANCH  43  44
HETATM   44  C   UNK N   1      24.037  16.382   3.652  0.00  0.00    -0.056 A 
HETATM   45  C   UNK N   1      24.311  17.666   4.143  0.00  0.00     0.007 A 
HETATM   46  C   UNK N   1      23.270  18.546   4.436  0.00  0.00     0.001 A 
HETATM   47  C   UNK N   1      21.946  18.150   4.230  0.00  0.00     0.000 A 
HETATM   48  C   UNK N   1      21.667  16.875   3.729  0.00  0.00     0.001 A 
HETATM   49  C   UNK N   1      22.713  15.991   3.435  0.00  0.00     0.007 A 
ENDBRANCH  43  44
ENDBRANCH  30  43
ENDBRANCH  27  30
ENDBRANCH  26  27
ENDBRANCH   1  26
BRANCH   1  50
HETATM   50  C   UNK N   1      27.785  18.094   3.594  0.00  0.00     0.063 C 
BRANCH  50  51
HETATM   51  C   UNK N   1      27.623  19.093   4.720  0.00  0.00    -0.056 A 
HETATM   52  C   UNK N   1      26.927  20.285   4.503  0.00  0.00     0.007 A 
HETATM   53  C   UNK N   1      26.682  21.154   5.574  0.00  0.00     0.001 A 
HETATM   54  C   UNK N   1      27.124  20.834   6.863  0.00  0.00     0.000 A 
HETATM   55  C   UNK N   1      27.816  19.647   7.085  0.00  0.00     0.001 A 
HETATM   56  C   UNK N   1      28.049  18.784   6.021  0.00  0.00     0.007 A 
ENDBRANCH  50  51
ENDBRANCH   1  50
TORSDOF 19
ENDMDL
