MODEL 1
REMARK VINA RESULT:      -7.5      0.000      0.000
REMARK  1 active torsions:
REMARK  status: ('A' for Active; 'I' for Inactive)
REMARK    1  A    between atoms: C_3  and  O_21 
ROOT
HETATM    1  C   UNK N   1      30.342  21.586  -5.149  0.00  0.00     0.008 C 
HETATM    2  C   UNK N   1      27.924  22.328  -6.815  0.00  0.00     0.006 C 
HETATM    3  C   UNK N   1      29.968  22.638  -3.003  0.00  0.00     0.126 C 
HETATM    4  C   UNK N   1      29.346  24.942  -3.672  0.00  0.00     0.012 C 
HETATM    5  C   UNK N   1      30.439  21.349  -3.644  0.00  0.00     0.033 C 
HETATM    6  C   UNK N   1      26.530  24.871  -6.073  0.00  0.00    -0.035 C 
HETATM    7  C   UNK N   1      28.713  25.629  -4.885  0.00  0.00     0.007 C 
HETATM    8  C   UNK N   1      26.409  22.474  -6.992  0.00  0.00     0.006 C 
HETATM    9  C   UNK N   1      25.996  23.937  -7.211  0.00  0.00     0.001 C 
HETATM   10  C   UNK N   1      26.146  26.345  -6.376  0.00  0.00     0.021 C 
HETATM   11  C   UNK N   1      26.476  24.400  -8.595  0.00  0.00     0.084 C 
HETATM   12  C   UNK N   1      26.478  26.845  -7.790  0.00  0.00     0.052 C 
HETATM   13  C   UNK N   1      28.386  23.165  -5.619  0.00  0.00    -0.005 C 
HETATM   14  C   UNK N   1      28.069  24.662  -5.907  0.00  0.00    -0.002 C 
HETATM   15  C   UNK N   1      30.243  23.738  -4.021  0.00  0.00    -0.014 C 
HETATM   16  C   UNK N   1      31.717  24.140  -4.016  0.00  0.00     0.018 C 
HETATM   17  C   UNK N   1      29.897  23.039  -5.350  0.00  0.00     0.001 C 
HETATM   18  O   UNK N   1      25.276  26.115  -9.685  0.00  0.00    -0.298 OA
HETATM   19  C   UNK N   1      26.046  25.819  -8.787  0.00  0.00     0.131 C 
HETATM   20  C   UNK N   1      25.827  24.520  -4.764  0.00  0.00     0.016 C 
HETATM   21  C   UNK N   1      27.952  27.180  -7.942  0.00  0.00     0.018 C 
ENDROOT
BRANCH   3  22
HETATM   22  O   UNK N   1      30.591  22.864  -1.773  0.00  0.00    -0.395 OA
HETATM   23  H   UNK N   1      31.193  22.201  -1.400  0.00  0.00     0.210 HD
ENDBRANCH   3  22
TORSDOF 1
ENDMDL
MODEL 2
REMARK VINA RESULT:      -7.3     22.679     26.565
REMARK  1 active torsions:
REMARK  status: ('A' for Active; 'I' for Inactive)
REMARK    1  A    between atoms: C_3  and  O_21 
ROOT
HETATM    1  C   UNK N   1      35.186  12.101  19.025  0.00  0.00     0.008 C 
HETATM    2  C   UNK N   1      35.815  13.203  16.275  0.00  0.00     0.006 C 
HETATM    3  C   UNK N   1      36.491  10.071  19.197  0.00  0.00     0.126 C 
HETATM    4  C   UNK N   1      35.960   8.947  17.053  0.00  0.00     0.012 C 
HETATM    5  C   UNK N   1      36.082  11.307  19.972  0.00  0.00     0.033 C 
HETATM    6  C   UNK N   1      36.655  11.209  14.207  0.00  0.00    -0.035 C 
HETATM    7  C   UNK N   1      35.529   9.360  15.643  0.00  0.00     0.007 C 
HETATM    8  C   UNK N   1      36.813  13.583  15.177  0.00  0.00     0.006 C 
HETATM    9  C   UNK N   1      36.614  12.745  13.905  0.00  0.00     0.001 C 
HETATM   10  C   UNK N   1      36.382  10.408  12.904  0.00  0.00     0.021 C 
HETATM   11  C   UNK N   1      35.298  13.153  13.227  0.00  0.00     0.084 C 
HETATM   12  C   UNK N   1      35.148  10.844  12.098  0.00  0.00     0.052 C 
HETATM   13  C   UNK N   1      35.970  11.719  16.621  0.00  0.00    -0.005 C 
HETATM   14  C   UNK N   1      35.648  10.875  15.353  0.00  0.00    -0.002 C 
HETATM   15  C   UNK N   1      35.385   9.831  18.176  0.00  0.00    -0.014 C 
HETATM   16  C   UNK N   1      34.171   9.164  18.824  0.00  0.00     0.018 C 
HETATM   17  C   UNK N   1      35.025  11.267  17.750  0.00  0.00     0.001 C 
HETATM   18  O   UNK N   1      35.102  12.872  10.892  0.00  0.00    -0.298 OA
HETATM   19  C   UNK N   1      35.139  12.334  11.986  0.00  0.00     0.131 C 
HETATM   20  C   UNK N   1      38.066  10.821  14.643  0.00  0.00     0.016 C 
HETATM   21  C   UNK N   1      33.859  10.326  12.709  0.00  0.00     0.018 C 
ENDROOT
BRANCH   3  22
HETATM   22  O   UNK N   1      36.704   8.977  20.040  0.00  0.00    -0.395 OA
HETATM   23  H   UNK N   1      36.013   8.693  20.658  0.00  0.00     0.210 HD
ENDBRANCH   3  22
TORSDOF 1
ENDMDL
MODEL 3
REMARK VINA RESULT:      -7.2     12.997     16.368
REMARK  1 active torsions:
REMARK  status: ('A' for Active; 'I' for Inactive)
REMARK    1  A    between atoms: C_3  and  O_21 
ROOT
HETATM    1  C   UNK N   1      29.024  17.647   4.900  0.00  0.00     0.008 C 
HETATM    2  C   UNK N   1      31.999  17.099   5.061  0.00  0.00     0.006 C 
HETATM    3  C   UNK N   1      28.514  18.909   6.901  0.00  0.00     0.126 C 
HETATM    4  C   UNK N   1      29.624  17.549   8.651  0.00  0.00     0.012 C 
HETATM    5  C   UNK N   1      28.238  18.852   5.412  0.00  0.00     0.033 C 
HETATM    6  C   UNK N   1      33.189  17.023   7.806  0.00  0.00    -0.035 C 
HETATM    7  C   UNK N   1      30.805  16.581   8.742  0.00  0.00     0.007 C 
HETATM    8  C   UNK N   1      33.438  17.562   5.306  0.00  0.00     0.006 C 
HETATM    9  C   UNK N   1      34.067  16.862   6.519  0.00  0.00     0.001 C 
HETATM   10  C   UNK N   1      33.831  16.242   8.985  0.00  0.00     0.021 C 
HETATM   11  C   UNK N   1      34.312  15.383   6.184  0.00  0.00     0.084 C 
HETATM   12  C   UNK N   1      34.225  14.786   8.686  0.00  0.00     0.052 C 
HETATM   13  C   UNK N   1      31.147  17.382   6.301  0.00  0.00    -0.005 C 
HETATM   14  C   UNK N   1      31.725  16.571   7.499  0.00  0.00    -0.002 C 
HETATM   15  C   UNK N   1      28.850  17.482   7.321  0.00  0.00    -0.014 C 
HETATM   16  C   UNK N   1      27.584  16.639   7.471  0.00  0.00     0.018 C 
HETATM   17  C   UNK N   1      29.672  16.979   6.118  0.00  0.00     0.001 C 
HETATM   18  O   UNK N   1      36.058  14.252   7.299  0.00  0.00    -0.298 OA
HETATM   19  C   UNK N   1      34.939  14.732   7.375  0.00  0.00     0.131 C 
HETATM   20  C   UNK N   1      33.187  18.489   8.233  0.00  0.00     0.016 C 
HETATM   21  C   UNK N   1      33.023  13.858   8.702  0.00  0.00     0.018 C 
ENDROOT
BRANCH   3  22
HETATM   22  O   UNK N   1      27.436  19.447   7.608  0.00  0.00    -0.395 OA
HETATM   23  H   UNK N   1      26.526  19.247   7.340  0.00  0.00     0.210 HD
ENDBRANCH   3  22
TORSDOF 1
ENDMDL
MODEL 4
REMARK VINA RESULT:      -7.0      1.765      2.151
REMARK  1 active torsions:
REMARK  status: ('A' for Active; 'I' for Inactive)
REMARK    1  A    between atoms: C_3  and  O_21 
ROOT
HETATM    1  C   UNK N   1      30.215  21.989  -6.538  0.00  0.00     0.008 C 
HETATM    2  C   UNK N   1      27.410  23.119  -6.380  0.00  0.00     0.006 C 
HETATM    3  C   UNK N   1      31.052  22.077  -4.270  0.00  0.00     0.126 C 
HETATM    4  C   UNK N   1      30.481  24.398  -3.611  0.00  0.00     0.012 C 
HETATM    5  C   UNK N   1      30.991  21.189  -5.495  0.00  0.00     0.033 C 
HETATM    6  C   UNK N   1      26.875  25.039  -4.146  0.00  0.00    -0.035 C 
HETATM    7  C   UNK N   1      29.436  25.450  -3.991  0.00  0.00     0.007 C 
HETATM    8  C   UNK N   1      26.028  23.195  -5.723  0.00  0.00     0.006 C 
HETATM    9  C   UNK N   1      25.748  24.586  -5.135  0.00  0.00     0.001 C 
HETATM   10  C   UNK N   1      26.582  26.475  -3.633  0.00  0.00     0.021 C 
HETATM   11  C   UNK N   1      25.560  25.595  -6.278  0.00  0.00     0.084 C 
HETATM   12  C   UNK N   1      26.255  27.517  -4.714  0.00  0.00     0.052 C 
HETATM   13  C   UNK N   1      28.490  23.455  -5.348  0.00  0.00    -0.005 C 
HETATM   14  C   UNK N   1      28.265  24.913  -4.847  0.00  0.00    -0.002 C 
HETATM   15  C   UNK N   1      30.941  23.508  -4.783  0.00  0.00    -0.014 C 
HETATM   16  C   UNK N   1      32.275  23.999  -5.345  0.00  0.00     0.018 C 
HETATM   17  C   UNK N   1      29.915  23.361  -5.924  0.00  0.00     0.001 C 
HETATM   18  O   UNK N   1      24.210  27.492  -5.891  0.00  0.00    -0.298 OA
HETATM   19  C   UNK N   1      25.273  26.933  -5.676  0.00  0.00     0.131 C 
HETATM   20  C   UNK N   1      26.849  24.143  -2.910  0.00  0.00     0.016 C 
HETATM   21  C   UNK N   1      27.504  28.007  -5.425  0.00  0.00     0.018 C 
ENDROOT
BRANCH   3  22
HETATM   22  O   UNK N   1      32.211  21.853  -3.523  0.00  0.00    -0.395 OA
HETATM   23  H   UNK N   1      32.151  21.628  -2.581  0.00  0.00     0.210 HD
ENDBRANCH   3  22
TORSDOF 1
ENDMDL
MODEL 5
REMARK VINA RESULT:      -6.7      2.058      5.694
REMARK  1 active torsions:
REMARK  status: ('A' for Active; 'I' for Inactive)
REMARK    1  A    between atoms: C_3  and  O_21 
ROOT
HETATM    1  C   UNK N   1      25.456  25.236  -5.564  0.00  0.00     0.008 C 
HETATM    2  C   UNK N   1      27.567  23.172  -6.240  0.00  0.00     0.006 C 
HETATM    3  C   UNK N   1      26.627  27.354  -5.582  0.00  0.00     0.126 C 
HETATM    4  C   UNK N   1      28.618  26.840  -4.197  0.00  0.00     0.012 C 
HETATM    5  C   UNK N   1      25.343  26.685  -6.029  0.00  0.00     0.033 C 
HETATM    6  C   UNK N   1      30.389  23.879  -5.537  0.00  0.00    -0.035 C 
HETATM    7  C   UNK N   1      29.451  25.607  -3.839  0.00  0.00     0.007 C 
HETATM    8  C   UNK N   1      28.737  22.679  -7.097  0.00  0.00     0.006 C 
HETATM    9  C   UNK N   1      30.031  22.548  -6.280  0.00  0.00     0.001 C 
HETATM   10  C   UNK N   1      31.664  23.675  -4.673  0.00  0.00     0.021 C 
HETATM   11  C   UNK N   1      29.899  21.372  -5.301  0.00  0.00     0.084 C 
HETATM   12  C   UNK N   1      31.660  22.441  -3.758  0.00  0.00     0.052 C 
HETATM   13  C   UNK N   1      27.914  24.531  -5.627  0.00  0.00    -0.005 C 
HETATM   14  C   UNK N   1      29.158  24.360  -4.705  0.00  0.00    -0.002 C 
HETATM   15  C   UNK N   1      27.113  26.561  -4.374  0.00  0.00    -0.014 C 
HETATM   16  C   UNK N   1      26.339  26.943  -3.113  0.00  0.00     0.018 C 
HETATM   17  C   UNK N   1      26.767  25.114  -4.780  0.00  0.00     0.001 C 
HETATM   18  O   UNK N   1      31.861  20.252  -4.618  0.00  0.00    -0.298 OA
HETATM   19  C   UNK N   1      31.176  21.258  -4.533  0.00  0.00     0.131 C 
HETATM   20  C   UNK N   1      30.752  24.947  -6.567  0.00  0.00     0.016 C 
HETATM   21  C   UNK N   1      30.827  22.663  -2.508  0.00  0.00     0.018 C 
ENDROOT
BRANCH   3  22
HETATM   22  O   UNK N   1      26.437  28.710  -5.304  0.00  0.00    -0.395 OA
HETATM   23  H   UNK N   1      26.529  29.041  -4.397  0.00  0.00     0.210 HD
ENDBRANCH   3  22
TORSDOF 1
ENDMDL
MODEL 6
REMARK VINA RESULT:      -6.7     21.169     25.501
REMARK  1 active torsions:
REMARK  status: ('A' for Active; 'I' for Inactive)
REMARK    1  A    between atoms: C_3  and  O_21 
ROOT
HETATM    1  C   UNK N   1      36.326  15.019  12.950  0.00  0.00     0.008 C 
HETATM    2  C   UNK N   1      35.660  13.522  15.497  0.00  0.00     0.006 C 
HETATM    3  C   UNK N   1      35.148  13.832  11.203  0.00  0.00     0.126 C 
HETATM    4  C   UNK N   1      35.771  11.481  11.682  0.00  0.00     0.012 C 
HETATM    5  C   UNK N   1      35.471  15.225  11.703  0.00  0.00     0.033 C 
HETATM    6  C   UNK N   1      34.968  10.626  15.192  0.00  0.00    -0.035 C 
HETATM    7  C   UNK N   1      36.190  10.655  12.900  0.00  0.00     0.007 C 
HETATM    8  C   UNK N   1      34.653  12.852  16.436  0.00  0.00     0.006 C 
HETATM    9  C   UNK N   1      34.917  11.346  16.582  0.00  0.00     0.001 C 
HETATM   10  C   UNK N   1      35.304   9.122  15.388  0.00  0.00     0.021 C 
HETATM   11  C   UNK N   1      36.213  11.130  17.378  0.00  0.00     0.084 C 
HETATM   12  C   UNK N   1      36.517   8.821  16.283  0.00  0.00     0.052 C 
HETATM   13  C   UNK N   1      35.593  12.864  14.116  0.00  0.00    -0.005 C 
HETATM   14  C   UNK N   1      35.981  11.363  14.259  0.00  0.00    -0.002 C 
HETATM   15  C   UNK N   1      36.278  12.936  11.696  0.00  0.00    -0.014 C 
HETATM   16  C   UNK N   1      37.523  13.085  10.823  0.00  0.00     0.018 C 
HETATM   17  C   UNK N   1      36.553  13.511  13.100  0.00  0.00     0.001 C 
HETATM   18  O   UNK N   1      36.451   9.138  18.620  0.00  0.00    -0.298 OA
HETATM   19  C   UNK N   1      36.436   9.659  17.517  0.00  0.00     0.131 C 
HETATM   20  C   UNK N   1      33.579  10.660  14.558  0.00  0.00     0.016 C 
HETATM   21  C   UNK N   1      37.830   9.038  15.551  0.00  0.00     0.018 C 
ENDROOT
BRANCH   3  22
HETATM   22  O   UNK N   1      34.993  13.802   9.814  0.00  0.00    -0.395 OA
HETATM   23  H   UNK N   1      34.547  14.530   9.355  0.00  0.00     0.210 HD
ENDBRANCH   3  22
TORSDOF 1
ENDMDL
MODEL 7
REMARK VINA RESULT:      -6.6     23.775     27.166
REMARK  1 active torsions:
REMARK  status: ('A' for Active; 'I' for Inactive)
REMARK    1  A    between atoms: C_3  and  O_21 
ROOT
HETATM    1  C   UNK N   1      37.382   8.116  18.158  0.00  0.00     0.008 C 
HETATM    2  C   UNK N   1      37.102   9.164  15.330  0.00  0.00     0.006 C 
HETATM    3  C   UNK N   1      35.270   8.624  19.223  0.00  0.00     0.126 C 
HETATM    4  C   UNK N   1      34.955  11.005  18.606  0.00  0.00     0.012 C 
HETATM    5  C   UNK N   1      36.313   7.535  19.079  0.00  0.00     0.033 C 
HETATM    6  C   UNK N   1      35.181  11.425  14.936  0.00  0.00    -0.035 C 
HETATM    7  C   UNK N   1      35.387  11.940  17.474  0.00  0.00     0.007 C 
HETATM    8  C   UNK N   1      36.316   9.308  14.023  0.00  0.00     0.006 C 
HETATM    9  C   UNK N   1      35.945  10.770  13.735  0.00  0.00     0.001 C 
HETATM   10  C   UNK N   1      34.889  12.918  14.625  0.00  0.00     0.021 C 
HETATM   11  C   UNK N   1      37.214  11.558  13.376  0.00  0.00     0.084 C 
HETATM   12  C   UNK N   1      36.087  13.745  14.133  0.00  0.00     0.052 C 
HETATM   13  C   UNK N   1      36.271   9.709  16.494  0.00  0.00    -0.005 C 
HETATM   14  C   UNK N   1      36.002  11.224  16.249  0.00  0.00    -0.002 C 
HETATM   15  C   UNK N   1      36.002   9.940  18.985  0.00  0.00    -0.014 C 
HETATM   16  C   UNK N   1      36.787  10.368  20.225  0.00  0.00     0.018 C 
HETATM   17  C   UNK N   1      36.979   9.563  17.854  0.00  0.00     0.001 C 
HETATM   18  O   UNK N   1      37.005  13.449  11.979  0.00  0.00    -0.298 OA
HETATM   19  C   UNK N   1      36.820  12.970  13.086  0.00  0.00     0.131 C 
HETATM   20  C   UNK N   1      33.815  10.758  15.086  0.00  0.00     0.016 C 
HETATM   21  C   UNK N   1      37.007  14.144  15.273  0.00  0.00     0.018 C 
ENDROOT
BRANCH   3  22
HETATM   22  O   UNK N   1      34.631   8.572  20.465  0.00  0.00    -0.395 OA
HETATM   23  H   UNK N   1      33.781   9.020  20.597  0.00  0.00     0.210 HD
ENDBRANCH   3  22
TORSDOF 1
ENDMDL
MODEL 8
REMARK VINA RESULT:      -6.6     15.296     18.206
REMARK  1 active torsions:
REMARK  status: ('A' for Active; 'I' for Inactive)
REMARK    1  A    between atoms: C_3  and  O_21 
ROOT
HETATM    1  C   UNK N   1      23.473  16.728   5.372  0.00  0.00     0.008 C 
HETATM    2  C   UNK N   1      21.808  15.171   7.367  0.00  0.00     0.006 C 
HETATM    3  C   UNK N   1      24.458  15.048   3.936  0.00  0.00     0.126 C 
HETATM    4  C   UNK N   1      25.352  13.432   5.590  0.00  0.00     0.012 C 
HETATM    5  C   UNK N   1      23.780  16.403   3.913  0.00  0.00     0.033 C 
HETATM    6  C   UNK N   1      22.680  12.362   7.918  0.00  0.00    -0.035 C 
HETATM    7  C   UNK N   1      25.035  12.999   7.024  0.00  0.00     0.007 C 
HETATM    8  C   UNK N   1      20.784  14.082   7.701  0.00  0.00     0.006 C 
HETATM    9  C   UNK N   1      21.391  12.970   8.568  0.00  0.00     0.001 C 
HETATM   10  C   UNK N   1      23.293  11.292   8.862  0.00  0.00     0.021 C 
HETATM   11  C   UNK N   1      21.674  13.517   9.976  0.00  0.00     0.084 C 
HETATM   12  C   UNK N   1      23.487  11.724  10.324  0.00  0.00     0.052 C 
HETATM   13  C   UNK N   1      22.997  14.552   6.628  0.00  0.00    -0.005 C 
HETATM   14  C   UNK N   1      23.678  13.510   7.564  0.00  0.00    -0.002 C 
HETATM   15  C   UNK N   1      25.107  14.928   5.310  0.00  0.00    -0.014 C 
HETATM   16  C   UNK N   1      26.417  15.713   5.373  0.00  0.00     0.018 C 
HETATM   17  C   UNK N   1      24.056  15.593   6.221  0.00  0.00     0.001 C 
HETATM   18  O   UNK N   1      21.660  12.009  11.791  0.00  0.00    -0.298 OA
HETATM   19  C   UNK N   1      22.248  12.410  10.800  0.00  0.00     0.131 C 
HETATM   20  C   UNK N   1      22.294  11.616   6.642  0.00  0.00     0.016 C 
HETATM   21  C   UNK N   1      24.711  12.605  10.498  0.00  0.00     0.018 C 
ENDROOT
BRANCH   3  22
HETATM   22  O   UNK N   1      25.369  14.905   2.887  0.00  0.00    -0.395 OA
HETATM   23  H   UNK N   1      26.277  15.236   2.979  0.00  0.00     0.210 HD
ENDBRANCH   3  22
TORSDOF 1
ENDMDL
MODEL 9
REMARK VINA RESULT:      -6.5      1.712      6.072
REMARK  1 active torsions:
REMARK  status: ('A' for Active; 'I' for Inactive)
REMARK    1  A    between atoms: C_3  and  O_21 
ROOT
HETATM    1  C   UNK N   1      27.863  27.754  -6.181  0.00  0.00     0.008 C 
HETATM    2  C   UNK N   1      30.097  26.249  -4.795  0.00  0.00     0.006 C 
HETATM    3  C   UNK N   1      25.826  26.729  -5.373  0.00  0.00     0.126 C 
HETATM    4  C   UNK N   1      26.323  24.319  -5.670  0.00  0.00     0.012 C 
HETATM    5  C   UNK N   1      26.459  28.072  -5.675  0.00  0.00     0.033 C 
HETATM    6  C   UNK N   1      29.490  23.438  -3.968  0.00  0.00    -0.035 C 
HETATM    7  C   UNK N   1      27.563  23.423  -5.712  0.00  0.00     0.007 C 
HETATM    8  C   UNK N   1      30.731  25.646  -3.538  0.00  0.00     0.006 C 
HETATM    9  C   UNK N   1      30.861  24.119  -3.637  0.00  0.00     0.001 C 
HETATM   10  C   UNK N   1      29.686  21.905  -4.125  0.00  0.00     0.021 C 
HETATM   11  C   UNK N   1      31.933  23.764  -4.678  0.00  0.00     0.084 C 
HETATM   12  C   UNK N   1      30.829  21.469  -5.054  0.00  0.00     0.052 C 
HETATM   13  C   UNK N   1      28.709  25.641  -5.015  0.00  0.00    -0.005 C 
HETATM   14  C   UNK N   1      28.866  24.107  -5.234  0.00  0.00    -0.002 C 
HETATM   15  C   UNK N   1      26.532  25.721  -6.273  0.00  0.00    -0.014 C 
HETATM   16  C   UNK N   1      25.993  25.783  -7.702  0.00  0.00     0.018 C 
HETATM   17  C   UNK N   1      27.987  26.228  -6.242  0.00  0.00     0.001 C 
HETATM   18  O   UNK N   1      33.095  21.723  -4.445  0.00  0.00    -0.298 OA
HETATM   19  C   UNK N   1      32.048  22.275  -4.741  0.00  0.00     0.131 C 
HETATM   20  C   UNK N   1      28.542  23.615  -2.783  0.00  0.00     0.016 C 
HETATM   21  C   UNK N   1      30.447  21.589  -6.519  0.00  0.00     0.018 C 
ENDROOT
BRANCH   3  22
HETATM   22  O   UNK N   1      24.442  26.753  -5.561  0.00  0.00    -0.395 OA
HETATM   23  H   UNK N   1      24.063  27.153  -6.359  0.00  0.00     0.210 HD
ENDBRANCH   3  22
TORSDOF 1
ENDMDL
