MODEL 1
REMARK VINA RESULT:      -7.0      0.000      0.000
REMARK  12 active torsions:
REMARK  status: ('A' for Active; 'I' for Inactive)
REMARK    1  A    between atoms: C_6  and  O_21 
REMARK    2  A    between atoms: C_7  and  O_27 
REMARK    3  A    between atoms: C_9  and  O_26 
REMARK    4  A    between atoms: C_13  and  C_25 
REMARK    5  A    between atoms: C_14  and  O_19 
REMARK    6  A    between atoms: C_15  and  O_18 
REMARK    7  A    between atoms: C_30  and  O_26 
REMARK    8  A    between atoms: C_32  and  O_27 
REMARK    9  A    between atoms: C_31  and  O_42 
REMARK   10  A    between atoms: C_36  and  N_46 
REMARK   11  A    between atoms: C_40  and  O_48 
REMARK   12  A    between atoms: C_41  and  O_47 
ROOT
HETATM    1  N   UNK N   1      30.945  13.318   3.344  0.00  0.00     0.091 N 
HETATM    2  C   UNK N   1      30.566  13.267   1.936  0.00  0.00     0.277 C 
HETATM    3  C   UNK N   1      30.988  14.703   3.860  0.00  0.00     0.250 C 
HETATM    4  C   UNK N   1      29.379  12.331   1.734  0.00  0.00     0.013 C 
HETATM    5  C   UNK N   1      28.128  12.945   2.379  0.00  0.00     0.046 C 
HETATM    6  C   UNK N   1      26.853  12.100   2.303  0.00  0.00     0.081 C 
HETATM    7  C   UNK N   1      25.565  12.921   2.644  0.00  0.00     0.165 C 
HETATM    8  C   UNK N   1      25.785  14.096   3.648  0.00  0.00     0.043 C 
HETATM    9  C   UNK N   1      24.555  14.957   4.058  0.00  0.00     0.144 C 
HETATM   10  C   UNK N   1      24.859  16.062   5.105  0.00  0.00     0.111 C 
HETATM   11  C   UNK N   1      26.295  16.535   5.249  0.00  0.00     0.265 C 
HETATM   12  O   UNK N   1      26.992  16.918   4.142  0.00  0.00    -0.312 OA
HETATM   13  C   UNK N   1      28.222  17.578   4.105  0.00  0.00     0.168 C 
HETATM   14  C   UNK N   1      29.501  16.787   4.517  0.00  0.00     0.108 C 
HETATM   15  C   UNK N   1      29.602  15.433   3.763  0.00  0.00     0.187 C 
HETATM   16  C   UNK N   1      32.281  12.733   3.395  0.00  0.00     0.310 C 
HETATM   17  C   UNK N   1      31.523  14.678   5.293  0.00  0.00     0.045 C 
HETATM   18  C   UNK N   1      24.226  15.687   6.437  0.00  0.00     0.023 C 
HETATM   19  C   UNK N   1      29.714  10.934   2.241  0.00  0.00     0.012 C 
HETATM   20  C   UNK N   1      26.930  10.954   3.298  0.00  0.00     0.049 C 
HETATM   21  C   UNK N   1      29.527  16.564   6.021  0.00  0.00     0.051 C 
HETATM   22  O   UNK N   1      26.802  16.587   6.356  0.00  0.00    -0.265 OA
HETATM   23  C   UNK N   1      26.413  13.528   4.918  0.00  0.00     0.015 C 
ENDROOT
BRANCH   7  24
HETATM   24  O   UNK N   1      24.831  13.265   1.490  0.00  0.00    -0.350 OA
BRANCH  24  25
HETATM   25  C   UNK N   1      23.534  12.683   1.600  0.00  0.00     0.291 C 
HETATM   26  C   UNK N   1      22.536  13.018   0.466  0.00  0.00     0.206 C 
HETATM   27  C   UNK N   1      21.329  12.082   0.428  0.00  0.00     0.257 C 
HETATM   28  C   UNK N   1      21.726  10.602   0.553  0.00  0.00     0.070 C 
HETATM   29  C   UNK N   1      23.150  10.395   1.066  0.00  0.00     0.122 C 
HETATM   30  O   UNK N   1      23.575  11.334   2.036  0.00  0.00    -0.354 OA
HETATM   31  C   UNK N   1      24.165  10.121  -0.028  0.00  0.00     0.040 C 
BRANCH  26  32
HETATM   32  O   UNK N   1      22.116  14.348   0.545  0.00  0.00    -0.388 OA
HETATM   33  H   UNK N   1      21.400  14.884   0.171  0.00  0.00     0.210 HD
ENDBRANCH  26  32
BRANCH  27  34
HETATM   34  N   UNK N   1      20.246  12.487   1.337  0.00  0.00     0.087 N 
HETATM   35  C   UNK N   1      19.014  12.622   0.574  0.00  0.00     0.310 C 
HETATM   36  C   UNK N   1      20.022  11.514   2.397  0.00  0.00     0.310 C 
ENDBRANCH  27  34
ENDBRANCH  24  25
ENDBRANCH   7  24
BRANCH   6  37
HETATM   37  O   UNK N   1      26.775  11.563   1.019  0.00  0.00    -0.388 OA
HETATM   38  H   UNK N   1      27.392  11.564   0.270  0.00  0.00     0.210 HD
ENDBRANCH   6  37
BRANCH   9  39
HETATM   39  O   UNK N   1      23.844  15.519   2.980  0.00  0.00    -0.355 OA
BRANCH  39  40
HETATM   40  C   UNK N   1      22.569  15.814   3.508  0.00  0.00     0.263 C 
HETATM   41  C   UNK N   1      21.813  14.573   3.987  0.00  0.00     0.101 C 
HETATM   42  C   UNK N   1      20.564  15.042   4.775  0.00  0.00     0.089 C 
HETATM   43  C   UNK N   1      19.772  16.009   3.871  0.00  0.00     0.181 C 
HETATM   44  C   UNK N   1      20.969  15.823   6.035  0.00  0.00     0.049 C 
HETATM   45  C   UNK N   1      20.726  17.095   3.326  0.00  0.00     0.152 C 
HETATM   46  O   UNK N   1      21.769  16.506   2.578  0.00  0.00    -0.354 OA
HETATM   47  C   UNK N   1      19.976  18.104   2.477  0.00  0.00     0.042 C 
BRANCH  42  48
HETATM   48  O   UNK N   1      19.720  13.957   5.121  0.00  0.00    -0.383 OA
HETATM   49  C   UNK N   1      20.445  12.988   5.838  0.00  0.00     0.202 C 
ENDBRANCH  42  48
BRANCH  43  50
HETATM   50  O   UNK N   1      19.187  15.311   2.808  0.00  0.00    -0.390 OA
HETATM   51  H   UNK N   1      18.520  14.878   2.254  0.00  0.00     0.210 HD
ENDBRANCH  43  50
ENDBRANCH  39  40
ENDBRANCH   9  39
BRANCH  13  52
HETATM   52  C   UNK N   1      28.141  19.041   4.572  0.00  0.00     0.031 C 
HETATM   53  C   UNK N   1      27.120  19.880   3.824  0.00  0.00     0.007 C 
ENDBRANCH  13  52
BRANCH  15  54
HETATM   54  O   UNK N   1      29.314  15.660   2.413  0.00  0.00    -0.390 OA
HETATM   55  H   UNK N   1      29.155  16.196   1.620  0.00  0.00     0.210 HD
ENDBRANCH  15  54
BRANCH  14  56
HETATM   56  O   UNK N   1      30.609  17.565   4.172  0.00  0.00    -0.385 OA
HETATM   57  H   UNK N   1      30.638  18.421   3.718  0.00  0.00     0.210 HD
ENDBRANCH  14  56
TORSDOF 12
ENDMDL
MODEL 2
REMARK VINA RESULT:      -6.8      1.799      2.355
REMARK  12 active torsions:
REMARK  status: ('A' for Active; 'I' for Inactive)
REMARK    1  A    between atoms: C_6  and  O_21 
REMARK    2  A    between atoms: C_7  and  O_27 
REMARK    3  A    between atoms: C_9  and  O_26 
REMARK    4  A    between atoms: C_13  and  C_25 
REMARK    5  A    between atoms: C_14  and  O_19 
REMARK    6  A    between atoms: C_15  and  O_18 
REMARK    7  A    between atoms: C_30  and  O_26 
REMARK    8  A    between atoms: C_32  and  O_27 
REMARK    9  A    between atoms: C_31  and  O_42 
REMARK   10  A    between atoms: C_36  and  N_46 
REMARK   11  A    between atoms: C_40  and  O_48 
REMARK   12  A    between atoms: C_41  and  O_47 
ROOT
HETATM    1  N   UNK N   1      30.407  15.845   4.994  0.00  0.00     0.091 N 
HETATM    2  C   UNK N   1      30.584  15.377   3.623  0.00  0.00     0.277 C 
HETATM    3  C   UNK N   1      29.877  17.224   5.049  0.00  0.00     0.250 C 
HETATM    4  C   UNK N   1      29.857  14.054   3.410  0.00  0.00     0.013 C 
HETATM    5  C   UNK N   1      28.340  14.287   3.476  0.00  0.00     0.046 C 
HETATM    6  C   UNK N   1      27.464  13.040   3.325  0.00  0.00     0.081 C 
HETATM    7  C   UNK N   1      25.966  13.386   3.039  0.00  0.00     0.165 C 
HETATM    8  C   UNK N   1      25.478  14.737   3.652  0.00  0.00     0.043 C 
HETATM    9  C   UNK N   1      23.996  15.156   3.432  0.00  0.00     0.144 C 
HETATM   10  C   UNK N   1      23.587  16.482   4.128  0.00  0.00     0.111 C 
HETATM   11  C   UNK N   1      24.686  17.463   4.498  0.00  0.00     0.265 C 
HETATM   12  O   UNK N   1      25.596  17.843   3.555  0.00  0.00    -0.312 OA
HETATM   13  C   UNK N   1      26.522  18.883   3.646  0.00  0.00     0.168 C 
HETATM   14  C   UNK N   1      27.737  18.711   4.608  0.00  0.00     0.108 C 
HETATM   15  C   UNK N   1      28.473  17.364   4.365  0.00  0.00     0.187 C 
HETATM   16  C   UNK N   1      31.745  15.808   5.579  0.00  0.00     0.310 C 
HETATM   17  C   UNK N   1      29.853  17.683   6.509  0.00  0.00     0.045 C 
HETATM   18  C   UNK N   1      22.653  16.179   5.291  0.00  0.00     0.023 C 
HETATM   19  C   UNK N   1      30.364  13.006   4.394  0.00  0.00     0.012 C 
HETATM   20  C   UNK N   1      27.498  12.225   4.609  0.00  0.00     0.049 C 
HETATM   21  C   UNK N   1      27.289  18.820   6.057  0.00  0.00     0.051 C 
HETATM   22  O   UNK N   1      24.731  17.918   5.627  0.00  0.00    -0.265 OA
HETATM   23  C   UNK N   1      25.746  14.704   5.155  0.00  0.00     0.015 C 
ENDROOT
BRANCH   7  24
HETATM   24  O   UNK N   1      25.625  13.200   1.684  0.00  0.00    -0.350 OA
BRANCH  24  25
HETATM   25  C   UNK N   1      24.663  12.151   1.609  0.00  0.00     0.291 C 
HETATM   26  C   UNK N   1      24.018  11.913   0.222  0.00  0.00     0.206 C 
HETATM   27  C   UNK N   1      23.310  10.564   0.110  0.00  0.00     0.257 C 
HETATM   28  C   UNK N   1      24.158   9.405   0.660  0.00  0.00     0.070 C 
HETATM   29  C   UNK N   1      25.324   9.865   1.533  0.00  0.00     0.122 C 
HETATM   30  O   UNK N   1      25.053  10.998   2.336  0.00  0.00    -0.354 OA
HETATM   31  C   UNK N   1      26.654   9.914   0.807  0.00  0.00     0.040 C 
BRANCH  26  32
HETATM   32  O   UNK N   1      23.141  12.950  -0.106  0.00  0.00    -0.388 OA
HETATM   33  H   UNK N   1      22.448  13.456   0.346  0.00  0.00     0.210 HD
ENDBRANCH  26  32
BRANCH  27  34
HETATM   34  N   UNK N   1      21.929  10.584   0.615  0.00  0.00     0.087 N 
HETATM   35  C   UNK N   1      21.091   9.785  -0.266  0.00  0.00     0.310 C 
HETATM   36  C   UNK N   1      21.826  10.039   1.962  0.00  0.00     0.310 C 
ENDBRANCH  27  34
ENDBRANCH  24  25
ENDBRANCH   7  24
BRANCH   6  37
HETATM   37  O   UNK N   1      28.000  12.264   2.299  0.00  0.00    -0.388 OA
HETATM   38  H   UNK N   1      28.908  12.141   1.977  0.00  0.00     0.210 HD
ENDBRANCH   6  37
BRANCH   9  39
HETATM   39  O   UNK N   1      23.588  15.192   2.084  0.00  0.00    -0.355 OA
BRANCH  39  40
HETATM   40  C   UNK N   1      22.179  15.116   2.135  0.00  0.00     0.263 C 
HETATM   41  C   UNK N   1      21.666  13.738   2.559  0.00  0.00     0.101 C 
HETATM   42  C   UNK N   1      20.144  13.852   2.831  0.00  0.00     0.089 C 
HETATM   43  C   UNK N   1      19.485  14.465   1.578  0.00  0.00     0.181 C 
HETATM   44  C   UNK N   1      19.865  14.805   4.005  0.00  0.00     0.049 C 
HETATM   45  C   UNK N   1      20.242  15.751   1.180  0.00  0.00     0.152 C 
HETATM   46  O   UNK N   1      21.596  15.462   0.901  0.00  0.00    -0.354 OA
HETATM   47  C   UNK N   1      19.591  16.420  -0.016  0.00  0.00     0.042 C 
BRANCH  42  48
HETATM   48  O   UNK N   1      19.555  12.587   3.076  0.00  0.00    -0.383 OA
HETATM   49  C   UNK N   1      18.682  12.664   4.177  0.00  0.00     0.202 C 
ENDBRANCH  42  48
BRANCH  43  50
HETATM   50  O   UNK N   1      19.512  13.550   0.519  0.00  0.00    -0.390 OA
HETATM   51  H   UNK N   1      19.278  12.800  -0.049  0.00  0.00     0.210 HD
ENDBRANCH  43  50
ENDBRANCH  39  40
ENDBRANCH   9  39
BRANCH  13  52
HETATM   52  C   UNK N   1      25.878  20.278   3.600  0.00  0.00     0.031 C 
HETATM   53  C   UNK N   1      24.870  20.463   2.479  0.00  0.00     0.007 C 
ENDBRANCH  13  52
BRANCH  15  54
HETATM   54  O   UNK N   1      28.632  17.195   2.985  0.00  0.00    -0.390 OA
HETATM   55  H   UNK N   1      28.459  17.367   2.047  0.00  0.00     0.210 HD
ENDBRANCH  15  54
BRANCH  14  56
HETATM   56  O   UNK N   1      28.633  19.752   4.349  0.00  0.00    -0.385 OA
HETATM   57  H   UNK N   1      28.643  20.653   4.708  0.00  0.00     0.210 HD
ENDBRANCH  14  56
TORSDOF 12
ENDMDL
MODEL 3
REMARK VINA RESULT:      -6.6      7.082     12.204
REMARK  12 active torsions:
REMARK  status: ('A' for Active; 'I' for Inactive)
REMARK    1  A    between atoms: C_6  and  O_21 
REMARK    2  A    between atoms: C_7  and  O_27 
REMARK    3  A    between atoms: C_9  and  O_26 
REMARK    4  A    between atoms: C_13  and  C_25 
REMARK    5  A    between atoms: C_14  and  O_19 
REMARK    6  A    between atoms: C_15  and  O_18 
REMARK    7  A    between atoms: C_30  and  O_26 
REMARK    8  A    between atoms: C_32  and  O_27 
REMARK    9  A    between atoms: C_31  and  O_42 
REMARK   10  A    between atoms: C_36  and  N_46 
REMARK   11  A    between atoms: C_40  and  O_48 
REMARK   12  A    between atoms: C_41  and  O_47 
ROOT
HETATM    1  N   UNK N   1      36.264  12.089  13.281  0.00  0.00     0.091 N 
HETATM    2  C   UNK N   1      35.030  12.851  13.442  0.00  0.00     0.277 C 
HETATM    3  C   UNK N   1      36.008  10.643  13.109  0.00  0.00     0.250 C 
HETATM    4  C   UNK N   1      34.965  13.987  12.427  0.00  0.00     0.013 C 
HETATM    5  C   UNK N   1      34.799  13.404  11.016  0.00  0.00     0.046 C 
HETATM    6  C   UNK N   1      34.763  14.421   9.871  0.00  0.00     0.081 C 
HETATM    7  C   UNK N   1      34.236  13.805   8.534  0.00  0.00     0.165 C 
HETATM    8  C   UNK N   1      34.535  12.283   8.351  0.00  0.00     0.043 C 
HETATM    9  C   UNK N   1      34.062  11.589   7.042  0.00  0.00     0.144 C 
HETATM   10  C   UNK N   1      34.455  10.092   6.924  0.00  0.00     0.111 C 
HETATM   11  C   UNK N   1      34.780   9.335   8.200  0.00  0.00     0.265 C 
HETATM   12  O   UNK N   1      33.906   9.372   9.246  0.00  0.00    -0.312 OA
HETATM   13  C   UNK N   1      33.926   8.577  10.392  0.00  0.00     0.168 C 
HETATM   14  C   UNK N   1      35.047   8.825  11.448  0.00  0.00     0.108 C 
HETATM   15  C   UNK N   1      35.139  10.325  11.841  0.00  0.00     0.187 C 
HETATM   16  C   UNK N   1      37.008  12.312  14.517  0.00  0.00     0.310 C 
HETATM   17  C   UNK N   1      37.348   9.905  13.085  0.00  0.00     0.045 C 
HETATM   18  C   UNK N   1      35.528   9.932   5.856  0.00  0.00     0.023 C 
HETATM   19  C   UNK N   1      36.174  14.902  12.579  0.00  0.00     0.012 C 
HETATM   20  C   UNK N   1      36.164  14.945   9.601  0.00  0.00     0.049 C 
HETATM   21  C   UNK N   1      36.387   8.326  10.928  0.00  0.00     0.051 C 
HETATM   22  O   UNK N   1      35.808   8.685   8.268  0.00  0.00    -0.265 OA
HETATM   23  C   UNK N   1      36.041  12.073   8.484  0.00  0.00     0.015 C 
ENDROOT
BRANCH   7  24
HETATM   24  O   UNK N   1      32.903  14.177   8.265  0.00  0.00    -0.350 OA
BRANCH  24  25
HETATM   25  C   UNK N   1      32.885  14.905   7.039  0.00  0.00     0.291 C 
HETATM   26  C   UNK N   1      31.492  15.333   6.518  0.00  0.00     0.206 C 
HETATM   27  C   UNK N   1      31.557  16.417   5.443  0.00  0.00     0.257 C 
HETATM   28  C   UNK N   1      32.511  17.563   5.817  0.00  0.00     0.070 C 
HETATM   29  C   UNK N   1      33.464  17.213   6.957  0.00  0.00     0.122 C 
HETATM   30  O   UNK N   1      33.919  15.872   6.962  0.00  0.00    -0.354 OA
HETATM   31  C   UNK N   1      33.019  17.728   8.312  0.00  0.00     0.040 C 
BRANCH  26  32
HETATM   32  O   UNK N   1      30.771  14.231   6.053  0.00  0.00    -0.388 OA
HETATM   33  H   UNK N   1      30.652  13.305   6.317  0.00  0.00     0.210 HD
ENDBRANCH  26  32
BRANCH  27  34
HETATM   34  N   UNK N   1      31.766  15.884   4.088  0.00  0.00     0.087 N 
HETATM   35  C   UNK N   1      30.705  16.371   3.219  0.00  0.00     0.310 C 
HETATM   36  C   UNK N   1      33.044  16.297   3.524  0.00  0.00     0.310 C 
ENDBRANCH  27  34
ENDBRANCH  24  25
ENDBRANCH   7  24
BRANCH   6  37
HETATM   37  O   UNK N   1      33.965  15.490  10.276  0.00  0.00    -0.388 OA
HETATM   38  H   UNK N   1      34.133  16.444  10.343  0.00  0.00     0.210 HD
ENDBRANCH   6  37
BRANCH   9  39
HETATM   39  O   UNK N   1      32.688  11.733   6.762  0.00  0.00    -0.355 OA
BRANCH  39  40
HETATM   40  C   UNK N   1      32.582  11.519   5.371  0.00  0.00     0.263 C 
HETATM   41  C   UNK N   1      33.290  12.592   4.542  0.00  0.00     0.101 C 
HETATM   42  C   UNK N   1      33.331  12.115   3.068  0.00  0.00     0.089 C 
HETATM   43  C   UNK N   1      31.889  11.772   2.642  0.00  0.00     0.181 C 
HETATM   44  C   UNK N   1      34.165  10.831   2.929  0.00  0.00     0.049 C 
HETATM   45  C   UNK N   1      31.260  10.824   3.687  0.00  0.00     0.152 C 
HETATM   46  O   UNK N   1      31.238  11.435   4.960  0.00  0.00    -0.354 OA
HETATM   47  C   UNK N   1      29.858  10.414   3.278  0.00  0.00     0.042 C 
BRANCH  42  48
HETATM   48  O   UNK N   1      33.829  13.120   2.201  0.00  0.00    -0.383 OA
HETATM   49  C   UNK N   1      35.177  13.394   2.501  0.00  0.00     0.202 C 
ENDBRANCH  42  48
BRANCH  43  50
HETATM   50  O   UNK N   1      31.124  12.939   2.538  0.00  0.00    -0.390 OA
HETATM   51  H   UNK N   1      30.370  13.529   2.380  0.00  0.00     0.210 HD
ENDBRANCH  43  50
ENDBRANCH  39  40
ENDBRANCH   9  39
BRANCH  13  52
HETATM   52  C   UNK N   1      33.555   7.110  10.121  0.00  0.00     0.031 C 
HETATM   53  C   UNK N   1      32.065   6.821  10.187  0.00  0.00     0.007 C 
ENDBRANCH  13  52
BRANCH  15  54
HETATM   54  O   UNK N   1      33.842  10.801  12.060  0.00  0.00    -0.390 OA
HETATM   55  H   UNK N   1      33.158  11.475  12.194  0.00  0.00     0.210 HD
ENDBRANCH  15  54
BRANCH  14  56
HETATM   56  O   UNK N   1      34.722   8.091  12.592  0.00  0.00    -0.385 OA
HETATM   57  H   UNK N   1      35.190   7.341  12.990  0.00  0.00     0.210 HD
ENDBRANCH  14  56
TORSDOF 12
ENDMDL
MODEL 4
REMARK VINA RESULT:      -6.6      4.458      9.307
REMARK  12 active torsions:
REMARK  status: ('A' for Active; 'I' for Inactive)
REMARK    1  A    between atoms: C_6  and  O_21 
REMARK    2  A    between atoms: C_7  and  O_27 
REMARK    3  A    between atoms: C_9  and  O_26 
REMARK    4  A    between atoms: C_13  and  C_25 
REMARK    5  A    between atoms: C_14  and  O_19 
REMARK    6  A    between atoms: C_15  and  O_18 
REMARK    7  A    between atoms: C_30  and  O_26 
REMARK    8  A    between atoms: C_32  and  O_27 
REMARK    9  A    between atoms: C_31  and  O_42 
REMARK   10  A    between atoms: C_36  and  N_46 
REMARK   11  A    between atoms: C_40  and  O_48 
REMARK   12  A    between atoms: C_41  and  O_47 
ROOT
HETATM    1  N   UNK N   1      35.922  14.107   9.489  0.00  0.00     0.091 N 
HETATM    2  C   UNK N   1      34.785  14.357  10.370  0.00  0.00     0.277 C 
HETATM    3  C   UNK N   1      35.901  12.740   8.926  0.00  0.00     0.250 C 
HETATM    4  C   UNK N   1      34.034  15.610   9.933  0.00  0.00     0.013 C 
HETATM    5  C   UNK N   1      33.342  15.348   8.586  0.00  0.00     0.046 C 
HETATM    6  C   UNK N   1      32.578  16.531   7.985  0.00  0.00     0.081 C 
HETATM    7  C   UNK N   1      31.617  16.102   6.828  0.00  0.00     0.165 C 
HETATM    8  C   UNK N   1      32.085  14.852   6.018  0.00  0.00     0.043 C 
HETATM    9  C   UNK N   1      31.198  14.364   4.836  0.00  0.00     0.144 C 
HETATM   10  C   UNK N   1      31.773  13.153   4.053  0.00  0.00     0.111 C 
HETATM   11  C   UNK N   1      32.798  12.274   4.748  0.00  0.00     0.265 C 
HETATM   12  O   UNK N   1      32.527  11.775   5.988  0.00  0.00    -0.312 OA
HETATM   13  C   UNK N   1      33.237  10.788   6.675  0.00  0.00     0.168 C 
HETATM   14  C   UNK N   1      34.649  11.143   7.233  0.00  0.00     0.108 C 
HETATM   15  C   UNK N   1      34.621  12.454   8.066  0.00  0.00     0.187 C 
HETATM   16  C   UNK N   1      37.098  14.273  10.337  0.00  0.00     0.310 C 
HETATM   17  C   UNK N   1      37.189  12.516   8.131  0.00  0.00     0.045 C 
HETATM   18  C   UNK N   1      32.228  13.610   2.674  0.00  0.00     0.023 C 
HETATM   19  C   UNK N   1      34.969  16.813   9.924  0.00  0.00     0.012 C 
HETATM   20  C   UNK N   1      33.557  17.538   7.404  0.00  0.00     0.049 C 
HETATM   21  C   UNK N   1      35.658  11.253   6.099  0.00  0.00     0.051 C 
HETATM   22  O   UNK N   1      33.842  12.004   4.181  0.00  0.00    -0.265 OA
HETATM   23  C   UNK N   1      33.486  15.130   5.479  0.00  0.00     0.015 C 
ENDROOT
BRANCH   7  24
HETATM   24  O   UNK N   1      30.269  16.062   7.242  0.00  0.00    -0.350 OA
BRANCH  24  25
HETATM   25  C   UNK N   1      29.628  17.247   6.777  0.00  0.00     0.291 C 
HETATM   26  C   UNK N   1      28.208  17.069   6.188  0.00  0.00     0.206 C 
HETATM   27  C   UNK N   1      27.434  18.382   6.073  0.00  0.00     0.257 C 
HETATM   28  C   UNK N   1      27.526  19.236   7.348  0.00  0.00     0.070 C 
HETATM   29  C   UNK N   1      28.649  18.804   8.289  0.00  0.00     0.122 C 
HETATM   30  O   UNK N   1      29.825  18.352   7.643  0.00  0.00    -0.354 OA
HETATM   31  C   UNK N   1      28.187  17.927   9.437  0.00  0.00     0.040 C 
BRANCH  26  32
HETATM   32  O   UNK N   1      28.256  16.425   4.950  0.00  0.00    -0.388 OA
HETATM   33  H   UNK N   1      28.938  16.017   4.395  0.00  0.00     0.210 HD
ENDBRANCH  26  32
BRANCH  27  34
HETATM   34  N   UNK N   1      27.722  19.125   4.836  0.00  0.00     0.087 N 
HETATM   35  C   UNK N   1      26.650  18.888   3.881  0.00  0.00     0.310 C 
HETATM   36  C   UNK N   1      27.822  20.559   5.065  0.00  0.00     0.310 C 
ENDBRANCH  27  34
ENDBRANCH  24  25
ENDBRANCH   7  24
BRANCH   6  37
HETATM   37  O   UNK N   1      31.872  17.149   9.016  0.00  0.00    -0.388 OA
HETATM   38  H   UNK N   1      31.078  16.892   9.512  0.00  0.00     0.210 HD
ENDBRANCH   6  37
BRANCH   9  39
HETATM   39  O   UNK N   1      29.856  14.104   5.175  0.00  0.00    -0.355 OA
BRANCH  39  40
HETATM   40  C   UNK N   1      29.450  13.093   4.278  0.00  0.00     0.263 C 
HETATM   41  C   UNK N   1      28.189  13.457   3.492  0.00  0.00     0.101 C 
HETATM   42  C   UNK N   1      27.998  12.404   2.370  0.00  0.00     0.089 C 
HETATM   43  C   UNK N   1      28.007  11.008   3.027  0.00  0.00     0.181 C 
HETATM   44  C   UNK N   1      29.165  12.446   1.372  0.00  0.00     0.049 C 
HETATM   45  C   UNK N   1      29.253  10.877   3.930  0.00  0.00     0.152 C 
HETATM   46  O   UNK N   1      29.239  11.867   4.938  0.00  0.00    -0.354 OA
HETATM   47  C   UNK N   1      29.334   9.496   4.552  0.00  0.00     0.042 C 
BRANCH  42  48
HETATM   48  O   UNK N   1      26.765  12.573   1.691  0.00  0.00    -0.383 OA
HETATM   49  C   UNK N   1      26.164  13.787   2.074  0.00  0.00     0.202 C 
ENDBRANCH  42  48
BRANCH  43  50
HETATM   50  O   UNK N   1      26.847  10.822   3.787  0.00  0.00    -0.390 OA
HETATM   51  H   UNK N   1      26.242  10.490   4.468  0.00  0.00     0.210 HD
ENDBRANCH  43  50
ENDBRANCH  39  40
ENDBRANCH   9  39
BRANCH  13  52
HETATM   52  C   UNK N   1      33.075   9.386   6.065  0.00  0.00     0.031 C 
HETATM   53  C   UNK N   1      32.132   8.477   6.834  0.00  0.00     0.007 C 
ENDBRANCH  13  52
BRANCH  15  54
HETATM   54  O   UNK N   1      33.513  12.408   8.919  0.00  0.00    -0.390 OA
HETATM   55  H   UNK N   1      33.046  12.253   9.754  0.00  0.00     0.210 HD
ENDBRANCH  15  54
BRANCH  14  56
HETATM   56  O   UNK N   1      35.048  10.099   8.072  0.00  0.00    -0.385 OA
HETATM   57  H   UNK N   1      34.646   9.793   8.899  0.00  0.00     0.210 HD
ENDBRANCH  14  56
TORSDOF 12
ENDMDL
MODEL 5
REMARK VINA RESULT:      -6.5      5.803     11.707
REMARK  12 active torsions:
REMARK  status: ('A' for Active; 'I' for Inactive)
REMARK    1  A    between atoms: C_6  and  O_21 
REMARK    2  A    between atoms: C_7  and  O_27 
REMARK    3  A    between atoms: C_9  and  O_26 
REMARK    4  A    between atoms: C_13  and  C_25 
REMARK    5  A    between atoms: C_14  and  O_19 
REMARK    6  A    between atoms: C_15  and  O_18 
REMARK    7  A    between atoms: C_30  and  O_26 
REMARK    8  A    between atoms: C_32  and  O_27 
REMARK    9  A    between atoms: C_31  and  O_42 
REMARK   10  A    between atoms: C_36  and  N_46 
REMARK   11  A    between atoms: C_40  and  O_48 
REMARK   12  A    between atoms: C_41  and  O_47 
ROOT
HETATM    1  N   UNK N   1      29.513  13.912   2.784  0.00  0.00     0.091 N 
HETATM    2  C   UNK N   1      29.069  12.742   3.537  0.00  0.00     0.277 C 
HETATM    3  C   UNK N   1      29.057  15.177   3.399  0.00  0.00     0.250 C 
HETATM    4  C   UNK N   1      30.255  11.851   3.890  0.00  0.00     0.013 C 
HETATM    5  C   UNK N   1      31.149  12.569   4.912  0.00  0.00     0.046 C 
HETATM    6  C   UNK N   1      32.415  11.819   5.337  0.00  0.00     0.081 C 
HETATM    7  C   UNK N   1      33.072  12.425   6.620  0.00  0.00     0.165 C 
HETATM    8  C   UNK N   1      32.853  13.960   6.805  0.00  0.00     0.043 C 
HETATM    9  C   UNK N   1      33.486  14.652   8.046  0.00  0.00     0.144 C 
HETATM   10  C   UNK N   1      33.266  16.187   8.114  0.00  0.00     0.111 C 
HETATM   11  C   UNK N   1      32.110  16.779   7.326  0.00  0.00     0.265 C 
HETATM   12  O   UNK N   1      30.859  16.253   7.467  0.00  0.00    -0.312 OA
HETATM   13  C   UNK N   1      29.659  16.794   7.005  0.00  0.00     0.168 C 
HETATM   14  C   UNK N   1      29.383  16.787   5.470  0.00  0.00     0.108 C 
HETATM   15  C   UNK N   1      29.600  15.375   4.858  0.00  0.00     0.187 C 
HETATM   16  C   UNK N   1      28.908  13.761   1.464  0.00  0.00     0.310 C 
HETATM   17  C   UNK N   1      29.444  16.338   2.481  0.00  0.00     0.045 C 
HETATM   18  C   UNK N   1      34.584  16.902   7.851  0.00  0.00     0.023 C 
HETATM   19  C   UNK N   1      30.987  11.418   2.625  0.00  0.00     0.012 C 
HETATM   20  C   UNK N   1      33.452  11.886   4.228  0.00  0.00     0.049 C 
HETATM   21  C   UNK N   1      30.258  17.813   4.767  0.00  0.00     0.051 C 
HETATM   22  O   UNK N   1      32.307  17.733   6.594  0.00  0.00    -0.265 OA
HETATM   23  C   UNK N   1      33.363  14.670   5.553  0.00  0.00     0.015 C 
ENDROOT
BRANCH   7  24
HETATM   24  O   UNK N   1      32.809  11.653   7.770  0.00  0.00    -0.350 OA
BRANCH  24  25
HETATM   25  C   UNK N   1      34.041  11.097   8.222  0.00  0.00     0.291 C 
HETATM   26  C   UNK N   1      33.950  10.107   9.408  0.00  0.00     0.206 C 
HETATM   27  C   UNK N   1      35.212   9.265   9.589  0.00  0.00     0.257 C 
HETATM   28  C   UNK N   1      35.723   8.674   8.265  0.00  0.00     0.070 C 
HETATM   29  C   UNK N   1      35.123   9.342   7.029  0.00  0.00     0.122 C 
HETATM   30  O   UNK N   1      34.902  10.735   7.155  0.00  0.00    -0.354 OA
HETATM   31  C   UNK N   1      33.966   8.577   6.416  0.00  0.00     0.040 C 
BRANCH  26  32
HETATM   32  O   UNK N   1      33.638  10.775  10.594  0.00  0.00    -0.388 OA
HETATM   33  H   UNK N   1      32.966  10.699  11.289  0.00  0.00     0.210 HD
ENDBRANCH  26  32
BRANCH  27  34
HETATM   34  N   UNK N   1      36.253   9.934  10.385  0.00  0.00     0.087 N 
HETATM   35  C   UNK N   1      36.385   9.250  11.662  0.00  0.00     0.310 C 
HETATM   36  C   UNK N   1      37.549   9.919   9.722  0.00  0.00     0.310 C 
ENDBRANCH  27  34
ENDBRANCH  24  25
ENDBRANCH   7  24
BRANCH   6  37
HETATM   37  O   UNK N   1      32.072  10.483   5.537  0.00  0.00    -0.388 OA
HETATM   38  H   UNK N   1      31.222  10.015   5.513  0.00  0.00     0.210 HD
ENDBRANCH   6  37
BRANCH   9  39
HETATM   39  O   UNK N   1      33.137  14.077   9.284  0.00  0.00    -0.355 OA
BRANCH  39  40
HETATM   40  C   UNK N   1      34.365  13.900   9.956  0.00  0.00     0.263 C 
HETATM   41  C   UNK N   1      34.498  14.770  11.206  0.00  0.00     0.101 C 
HETATM   42  C   UNK N   1      35.750  14.302  11.990  0.00  0.00     0.089 C 
HETATM   43  C   UNK N   1      36.950  14.323  11.020  0.00  0.00     0.181 C 
HETATM   44  C   UNK N   1      35.584  12.854  12.479  0.00  0.00     0.049 C 
HETATM   45  C   UNK N   1      36.578  13.553   9.733  0.00  0.00     0.152 C 
HETATM   46  O   UNK N   1      35.461  14.148   9.107  0.00  0.00    -0.354 OA
HETATM   47  C   UNK N   1      37.752  13.498   8.773  0.00  0.00     0.042 C 
BRANCH  42  48
HETATM   48  O   UNK N   1      36.041  15.157  13.083  0.00  0.00    -0.383 OA
HETATM   49  C   UNK N   1      36.482  14.403  14.185  0.00  0.00     0.202 C 
ENDBRANCH  42  48
BRANCH  43  50
HETATM   50  O   UNK N   1      37.295  15.642  10.704  0.00  0.00    -0.390 OA
HETATM   51  H   UNK N   1      37.676  16.531  10.774  0.00  0.00     0.210 HD
ENDBRANCH  43  50
ENDBRANCH  39  40
ENDBRANCH   9  39
BRANCH  13  52
HETATM   52  C   UNK N   1      29.225  18.054   7.772  0.00  0.00     0.031 C 
HETATM   53  C   UNK N   1      28.256  17.788   8.911  0.00  0.00     0.007 C 
ENDBRANCH  13  52
BRANCH  15  54
HETATM   54  O   UNK N   1      28.984  14.436   5.693  0.00  0.00    -0.390 OA
HETATM   55  H   UNK N   1      28.357  13.733   5.922  0.00  0.00     0.210 HD
ENDBRANCH  15  54
BRANCH  14  56
HETATM   56  O   UNK N   1      28.047  17.147   5.278  0.00  0.00    -0.385 OA
HETATM   57  H   UNK N   1      27.642  17.617   4.533  0.00  0.00     0.210 HD
ENDBRANCH  14  56
TORSDOF 12
ENDMDL
MODEL 6
REMARK VINA RESULT:      -6.0      6.339     11.743
REMARK  12 active torsions:
REMARK  status: ('A' for Active; 'I' for Inactive)
REMARK    1  A    between atoms: C_6  and  O_21 
REMARK    2  A    between atoms: C_7  and  O_27 
REMARK    3  A    between atoms: C_9  and  O_26 
REMARK    4  A    between atoms: C_13  and  C_25 
REMARK    5  A    between atoms: C_14  and  O_19 
REMARK    6  A    between atoms: C_15  and  O_18 
REMARK    7  A    between atoms: C_30  and  O_26 
REMARK    8  A    between atoms: C_32  and  O_27 
REMARK    9  A    between atoms: C_31  and  O_42 
REMARK   10  A    between atoms: C_36  and  N_46 
REMARK   11  A    between atoms: C_40  and  O_48 
REMARK   12  A    between atoms: C_41  and  O_47 
ROOT
HETATM    1  N   UNK N   1      29.810  14.271   3.029  0.00  0.00     0.091 N 
HETATM    2  C   UNK N   1      29.025  13.459   3.954  0.00  0.00     0.277 C 
HETATM    3  C   UNK N   1      30.201  15.568   3.619  0.00  0.00     0.250 C 
HETATM    4  C   UNK N   1      29.650  12.078   4.118  0.00  0.00     0.013 C 
HETATM    5  C   UNK N   1      30.989  12.206   4.860  0.00  0.00     0.046 C 
HETATM    6  C   UNK N   1      31.768  10.904   5.065  0.00  0.00     0.081 C 
HETATM    7  C   UNK N   1      32.912  11.046   6.122  0.00  0.00     0.165 C 
HETATM    8  C   UNK N   1      33.539  12.473   6.220  0.00  0.00     0.043 C 
HETATM    9  C   UNK N   1      34.696  12.704   7.234  0.00  0.00     0.144 C 
HETATM   10  C   UNK N   1      35.296  14.135   7.219  0.00  0.00     0.111 C 
HETATM   11  C   UNK N   1      34.446  15.259   6.651  0.00  0.00     0.265 C 
HETATM   12  O   UNK N   1      33.170  15.433   7.100  0.00  0.00    -0.312 OA
HETATM   13  C   UNK N   1      32.332  16.524   6.863  0.00  0.00     0.168 C 
HETATM   14  C   UNK N   1      31.750  16.714   5.429  0.00  0.00     0.108 C 
HETATM   15  C   UNK N   1      31.086  15.411   4.905  0.00  0.00     0.187 C 
HETATM   16  C   UNK N   1      28.928  14.496   1.887  0.00  0.00     0.310 C 
HETATM   17  C   UNK N   1      30.896  16.408   2.545  0.00  0.00     0.045 C 
HETATM   18  C   UNK N   1      36.694  14.095   6.620  0.00  0.00     0.023 C 
HETATM   19  C   UNK N   1      29.758  11.382   2.766  0.00  0.00     0.012 C 
HETATM   20  C   UNK N   1      32.416  10.478   3.758  0.00  0.00     0.049 C 
HETATM   21  C   UNK N   1      32.834  17.182   4.471  0.00  0.00     0.051 C 
HETATM   22  O   UNK N   1      34.921  16.009   5.816  0.00  0.00    -0.265 OA
HETATM   23  C   UNK N   1      34.035  12.874   4.833  0.00  0.00     0.015 C 
ENDROOT
BRANCH   7  24
HETATM   24  O   UNK N   1      32.567  10.471   7.362  0.00  0.00    -0.350 OA
BRANCH  24  25
HETATM   25  C   UNK N   1      33.115   9.156   7.408  0.00  0.00     0.291 C 
HETATM   26  C   UNK N   1      34.241   8.920   8.444  0.00  0.00     0.206 C 
HETATM   27  C   UNK N   1      34.510   7.440   8.716  0.00  0.00     0.257 C 
HETATM   28  C   UNK N   1      33.218   6.637   8.939  0.00  0.00     0.070 C 
HETATM   29  C   UNK N   1      31.960   7.366   8.472  0.00  0.00     0.122 C 
HETATM   30  O   UNK N   1      32.125   8.146   7.302  0.00  0.00    -0.354 OA
HETATM   31  C   UNK N   1      31.200   8.060   9.586  0.00  0.00     0.040 C 
BRANCH  26  32
HETATM   32  O   UNK N   1      35.419   9.564   8.058  0.00  0.00    -0.388 OA
HETATM   33  H   UNK N   1      36.016  10.226   8.439  0.00  0.00     0.210 HD
ENDBRANCH  26  32
BRANCH  27  34
HETATM   34  N   UNK N   1      35.435   6.827   7.751  0.00  0.00     0.087 N 
HETATM   35  C   UNK N   1      36.554   6.242   8.474  0.00  0.00     0.310 C 
HETATM   36  C   UNK N   1      34.798   5.777   6.968  0.00  0.00     0.310 C 
ENDBRANCH  27  34
ENDBRANCH  24  25
ENDBRANCH   7  24
BRANCH   6  37
HETATM   37  O   UNK N   1      30.859   9.919   5.445  0.00  0.00    -0.388 OA
HETATM   38  H   UNK N   1      30.712   9.009   5.139  0.00  0.00     0.210 HD
ENDBRANCH   6  37
BRANCH   9  39
HETATM   39  O   UNK N   1      34.398  12.338   8.562  0.00  0.00    -0.355 OA
BRANCH  39  40
HETATM   40  C   UNK N   1      35.331  13.049   9.347  0.00  0.00     0.263 C 
HETATM   41  C   UNK N   1      36.104  12.156  10.319  0.00  0.00     0.101 C 
HETATM   42  C   UNK N   1      37.262  12.989  10.924  0.00  0.00     0.089 C 
HETATM   43  C   UNK N   1      36.656  14.275  11.522  0.00  0.00     0.181 C 
HETATM   44  C   UNK N   1      38.259  13.417   9.835  0.00  0.00     0.049 C 
HETATM   45  C   UNK N   1      35.758  14.955  10.465  0.00  0.00     0.152 C 
HETATM   46  O   UNK N   1      34.716  14.088  10.071  0.00  0.00    -0.354 OA
HETATM   47  C   UNK N   1      35.186  16.258  10.992  0.00  0.00     0.042 C 
BRANCH  42  48
HETATM   48  O   UNK N   1      37.935  12.287  11.956  0.00  0.00    -0.383 OA
HETATM   49  C   UNK N   1      37.565  10.929  11.939  0.00  0.00     0.202 C 
ENDBRANCH  42  48
BRANCH  43  50
HETATM   50  O   UNK N   1      35.904  13.972  12.663  0.00  0.00    -0.390 OA
HETATM   51  H   UNK N   1      35.143  13.841  13.249  0.00  0.00     0.210 HD
ENDBRANCH  43  50
ENDBRANCH  39  40
ENDBRANCH   9  39
BRANCH  13  52
HETATM   52  C   UNK N   1      32.774  17.800   7.597  0.00  0.00     0.031 C 
HETATM   53  C   UNK N   1      31.810  18.266   8.674  0.00  0.00     0.007 C 
ENDBRANCH  13  52
BRANCH  15  54
HETATM   54  O   UNK N   1      30.292  14.881   5.928  0.00  0.00    -0.390 OA
HETATM   55  H   UNK N   1      29.465  14.694   6.399  0.00  0.00     0.210 HD
ENDBRANCH  15  54
BRANCH  14  56
HETATM   56  O   UNK N   1      30.770  17.708   5.498  0.00  0.00    -0.385 OA
HETATM   57  H   UNK N   1      29.986  17.833   4.941  0.00  0.00     0.210 HD
ENDBRANCH  14  56
TORSDOF 12
ENDMDL
MODEL 7
REMARK VINA RESULT:      -6.0      8.220     13.429
REMARK  12 active torsions:
REMARK  status: ('A' for Active; 'I' for Inactive)
REMARK    1  A    between atoms: C_6  and  O_21 
REMARK    2  A    between atoms: C_7  and  O_27 
REMARK    3  A    between atoms: C_9  and  O_26 
REMARK    4  A    between atoms: C_13  and  C_25 
REMARK    5  A    between atoms: C_14  and  O_19 
REMARK    6  A    between atoms: C_15  and  O_18 
REMARK    7  A    between atoms: C_30  and  O_26 
REMARK    8  A    between atoms: C_32  and  O_27 
REMARK    9  A    between atoms: C_31  and  O_42 
REMARK   10  A    between atoms: C_36  and  N_46 
REMARK   11  A    between atoms: C_40  and  O_48 
REMARK   12  A    between atoms: C_41  and  O_47 
ROOT
HETATM    1  N   UNK N   1      33.173  14.106   3.989  0.00  0.00     0.091 N 
HETATM    2  C   UNK N   1      32.566  12.840   4.388  0.00  0.00     0.277 C 
HETATM    3  C   UNK N   1      32.468  15.270   4.567  0.00  0.00     0.250 C 
HETATM    4  C   UNK N   1      33.609  11.917   5.008  0.00  0.00     0.013 C 
HETATM    5  C   UNK N   1      34.065  12.493   6.357  0.00  0.00     0.046 C 
HETATM    6  C   UNK N   1      35.152  11.701   7.090  0.00  0.00     0.081 C 
HETATM    7  C   UNK N   1      35.303  12.128   8.587  0.00  0.00     0.165 C 
HETATM    8  C   UNK N   1      34.950  13.621   8.881  0.00  0.00     0.043 C 
HETATM    9  C   UNK N   1      35.088  14.139  10.341  0.00  0.00     0.144 C 
HETATM   10  C   UNK N   1      34.775  15.648  10.525  0.00  0.00     0.111 C 
HETATM   11  C   UNK N   1      33.922  16.335   9.472  0.00  0.00     0.265 C 
HETATM   12  O   UNK N   1      32.729  15.785   9.107  0.00  0.00    -0.312 OA
HETATM   13  C   UNK N   1      31.727  16.376   8.336  0.00  0.00     0.168 C 
HETATM   14  C   UNK N   1      31.988  16.579   6.812  0.00  0.00     0.108 C 
HETATM   15  C   UNK N   1      32.475  15.268   6.136  0.00  0.00     0.187 C 
HETATM   16  C   UNK N   1      33.059  14.135   2.533  0.00  0.00     0.310 C 
HETATM   17  C   UNK N   1      33.079  16.550   3.992  0.00  0.00     0.045 C 
HETATM   18  C   UNK N   1      36.063  16.402  10.823  0.00  0.00     0.023 C 
HETATM   19  C   UNK N   1      34.748  11.669   4.026  0.00  0.00     0.012 C 
HETATM   20  C   UNK N   1      36.498  11.929   6.421  0.00  0.00     0.049 C 
HETATM   21  C   UNK N   1      32.991  17.700   6.588  0.00  0.00     0.051 C 
HETATM   22  O   UNK N   1      34.303  17.382   8.979  0.00  0.00    -0.265 OA
HETATM   23  C   UNK N   1      35.814  14.501   7.980  0.00  0.00     0.015 C 
ENDROOT
BRANCH   7  24
HETATM   24  O   UNK N   1      34.709  11.202   9.468  0.00  0.00    -0.350 OA
BRANCH  24  25
HETATM   25  C   UNK N   1      35.480  10.003   9.436  0.00  0.00     0.291 C 
HETATM   26  C   UNK N   1      36.789  10.010  10.261  0.00  0.00     0.206 C 
HETATM   27  C   UNK N   1      37.357   8.612  10.504  0.00  0.00     0.257 C 
HETATM   28  C   UNK N   1      36.284   7.611  10.962  0.00  0.00     0.070 C 
HETATM   29  C   UNK N   1      34.856   8.092  10.713  0.00  0.00     0.122 C 
HETATM   30  O   UNK N   1      34.679   8.836   9.521  0.00  0.00    -0.354 OA
HETATM   31  C   UNK N   1      34.188   8.695  11.933  0.00  0.00     0.040 C 
BRANCH  26  32
HETATM   32  O   UNK N   1      37.751  10.828   9.666  0.00  0.00    -0.388 OA
HETATM   33  H   UNK N   1      38.386  10.753   8.936  0.00  0.00     0.210 HD
ENDBRANCH  26  32
BRANCH  27  34
HETATM   34  N   UNK N   1      38.197   8.123   9.400  0.00  0.00     0.087 N 
HETATM   35  C   UNK N   1      39.501   7.749   9.928  0.00  0.00     0.310 C 
HETATM   36  C   UNK N   1      37.620   6.959   8.742  0.00  0.00     0.310 C 
ENDBRANCH  27  34
ENDBRANCH  24  25
ENDBRANCH   7  24
BRANCH   6  37
HETATM   37  O   UNK N   1      34.834  10.348   6.988  0.00  0.00    -0.388 OA
HETATM   38  H   UNK N   1      34.081   9.826   7.309  0.00  0.00     0.210 HD
ENDBRANCH   6  37
BRANCH   9  39
HETATM   39  O   UNK N   1      34.373  13.395  11.300  0.00  0.00    -0.355 OA
BRANCH  39  40
HETATM   40  C   UNK N   1      35.307  13.145  12.328  0.00  0.00     0.263 C 
HETATM   41  C   UNK N   1      35.063  11.821  13.054  0.00  0.00     0.101 C 
HETATM   42  C   UNK N   1      36.285  11.536  13.964  0.00  0.00     0.089 C 
HETATM   43  C   UNK N   1      36.502  12.771  14.863  0.00  0.00     0.181 C 
HETATM   44  C   UNK N   1      37.562  11.350  13.128  0.00  0.00     0.049 C 
HETATM   45  C   UNK N   1      36.541  14.041  13.984  0.00  0.00     0.152 C 
HETATM   46  O   UNK N   1      35.329  14.188  13.274  0.00  0.00    -0.354 OA
HETATM   47  C   UNK N   1      36.812  15.276  14.822  0.00  0.00     0.042 C 
BRANCH  42  48
HETATM   48  O   UNK N   1      36.074  10.407  14.794  0.00  0.00    -0.383 OA
HETATM   49  C   UNK N   1      36.899   9.343  14.385  0.00  0.00     0.202 C 
ENDBRANCH  42  48
BRANCH  43  50
HETATM   50  O   UNK N   1      35.471  12.874  15.803  0.00  0.00    -0.390 OA
HETATM   51  H   UNK N   1      34.641  12.702  16.274  0.00  0.00     0.210 HD
ENDBRANCH  43  50
ENDBRANCH  39  40
ENDBRANCH   9  39
BRANCH  13  52
HETATM   52  C   UNK N   1      30.991  17.513   9.062  0.00  0.00     0.031 C 
HETATM   53  C   UNK N   1      29.557  17.187   9.440  0.00  0.00     0.007 C 
ENDBRANCH  13  52
BRANCH  15  54
HETATM   54  O   UNK N   1      31.666  14.218   6.582  0.00  0.00    -0.390 OA
HETATM   55  H   UNK N   1      31.282  13.327   6.564  0.00  0.00     0.210 HD
ENDBRANCH  15  54
BRANCH  14  56
HETATM   56  O   UNK N   1      30.777  16.953   6.221  0.00  0.00    -0.385 OA
HETATM   57  H   UNK N   1      30.295  16.530   5.494  0.00  0.00     0.210 HD
ENDBRANCH  14  56
TORSDOF 12
ENDMDL
MODEL 8
REMARK VINA RESULT:      -5.9      2.455      7.008
REMARK  12 active torsions:
REMARK  status: ('A' for Active; 'I' for Inactive)
REMARK    1  A    between atoms: C_6  and  O_21 
REMARK    2  A    between atoms: C_7  and  O_27 
REMARK    3  A    between atoms: C_9  and  O_26 
REMARK    4  A    between atoms: C_13  and  C_25 
REMARK    5  A    between atoms: C_14  and  O_19 
REMARK    6  A    between atoms: C_15  and  O_18 
REMARK    7  A    between atoms: C_30  and  O_26 
REMARK    8  A    between atoms: C_32  and  O_27 
REMARK    9  A    between atoms: C_31  and  O_42 
REMARK   10  A    between atoms: C_36  and  N_46 
REMARK   11  A    between atoms: C_40  and  O_48 
REMARK   12  A    between atoms: C_41  and  O_47 
ROOT
HETATM    1  N   UNK N   1      27.082   8.799   2.104  0.00  0.00     0.091 N 
HETATM    2  C   UNK N   1      27.797   9.121   3.335  0.00  0.00     0.277 C 
HETATM    3  C   UNK N   1      25.673   8.431   2.358  0.00  0.00     0.250 C 
HETATM    4  C   UNK N   1      28.450  10.495   3.233  0.00  0.00     0.013 C 
HETATM    5  C   UNK N   1      27.360  11.578   3.203  0.00  0.00     0.046 C 
HETATM    6  C   UNK N   1      27.854  13.020   3.055  0.00  0.00     0.081 C 
HETATM    7  C   UNK N   1      26.748  14.073   3.394  0.00  0.00     0.165 C 
HETATM    8  C   UNK N   1      25.288  13.607   3.098  0.00  0.00     0.043 C 
HETATM    9  C   UNK N   1      24.123  14.597   3.388  0.00  0.00     0.144 C 
HETATM   10  C   UNK N   1      22.714  14.069   3.007  0.00  0.00     0.111 C 
HETATM   11  C   UNK N   1      22.523  12.567   2.884  0.00  0.00     0.265 C 
HETATM   12  O   UNK N   1      22.925  11.751   3.900  0.00  0.00    -0.312 OA
HETATM   13  C   UNK N   1      22.636  10.395   4.059  0.00  0.00     0.168 C 
HETATM   14  C   UNK N   1      23.317   9.373   3.098  0.00  0.00     0.108 C 
HETATM   15  C   UNK N   1      24.855   9.584   3.039  0.00  0.00     0.187 C 
HETATM   16  C   UNK N   1      27.796   7.656   1.543  0.00  0.00     0.310 C 
HETATM   17  C   UNK N   1      25.039   7.978   1.041  0.00  0.00     0.045 C 
HETATM   18  C   UNK N   1      22.197  14.830   1.795  0.00  0.00     0.023 C 
HETATM   19  C   UNK N   1      29.400  10.543   2.043  0.00  0.00     0.012 C 
HETATM   20  C   UNK N   1      28.290  13.273   1.621  0.00  0.00     0.049 C 
HETATM   21  C   UNK N   1      22.711   9.465   1.706  0.00  0.00     0.051 C 
HETATM   22  O   UNK N   1      21.991  12.109   1.888  0.00  0.00    -0.265 OA
HETATM   23  C   UNK N   1      25.206  13.194   1.630  0.00  0.00     0.015 C 
ENDROOT
BRANCH   7  24
HETATM   24  O   UNK N   1      26.933  14.650   4.667  0.00  0.00    -0.350 OA
BRANCH  24  25
HETATM   25  C   UNK N   1      27.142  16.049   4.494  0.00  0.00     0.291 C 
HETATM   26  C   UNK N   1      27.133  16.906   5.782  0.00  0.00     0.206 C 
HETATM   27  C   UNK N   1      27.737  18.297   5.586  0.00  0.00     0.257 C 
HETATM   28  C   UNK N   1      29.068  18.259   4.818  0.00  0.00     0.070 C 
HETATM   29  C   UNK N   1      29.314  16.939   4.090  0.00  0.00     0.122 C 
HETATM   30  O   UNK N   1      28.155  16.338   3.543  0.00  0.00    -0.354 OA
HETATM   31  C   UNK N   1      30.223  15.984   4.838  0.00  0.00     0.040 C 
BRANCH  26  32
HETATM   32  O   UNK N   1      25.843  17.007   6.307  0.00  0.00    -0.388 OA
HETATM   33  H   UNK N   1      25.426  16.902   7.176  0.00  0.00     0.210 HD
ENDBRANCH  26  32
BRANCH  27  34
HETATM   34  N   UNK N   1      26.777  19.283   5.067  0.00  0.00     0.087 N 
HETATM   35  C   UNK N   1      26.696  20.399   5.998  0.00  0.00     0.310 C 
HETATM   36  C   UNK N   1      27.168  19.802   3.764  0.00  0.00     0.310 C 
ENDBRANCH  27  34
ENDBRANCH  24  25
ENDBRANCH   7  24
BRANCH   6  37
HETATM   37  O   UNK N   1      28.963  13.178   3.885  0.00  0.00    -0.388 OA
HETATM   38  H   UNK N   1      29.052  13.445   4.814  0.00  0.00     0.210 HD
ENDBRANCH   6  37
BRANCH   9  39
HETATM   39  O   UNK N   1      24.092  15.100   4.704  0.00  0.00    -0.355 OA
BRANCH  39  40
HETATM   40  C   UNK N   1      22.930  15.900   4.754  0.00  0.00     0.263 C 
HETATM   41  C   UNK N   1      23.198  17.372   4.435  0.00  0.00     0.101 C 
HETATM   42  C   UNK N   1      21.834  18.085   4.262  0.00  0.00     0.089 C 
HETATM   43  C   UNK N   1      20.993  17.809   5.525  0.00  0.00     0.181 C 
HETATM   44  C   UNK N   1      21.060  17.511   3.064  0.00  0.00     0.049 C 
HETATM   45  C   UNK N   1      20.979  16.290   5.806  0.00  0.00     0.152 C 
HETATM   46  O   UNK N   1      22.292  15.812   6.006  0.00  0.00    -0.354 OA
HETATM   47  C   UNK N   1      20.114  15.966   7.010  0.00  0.00     0.042 C 
BRANCH  42  48
HETATM   48  O   UNK N   1      21.985  19.488   4.120  0.00  0.00    -0.383 OA
HETATM   49  C   UNK N   1      20.880  20.028   3.436  0.00  0.00     0.202 C 
ENDBRANCH  42  48
BRANCH  43  50
HETATM   50  O   UNK N   1      21.529  18.491   6.624  0.00  0.00    -0.390 OA
HETATM   51  H   UNK N   1      22.155  18.976   7.184  0.00  0.00     0.210 HD
ENDBRANCH  43  50
ENDBRANCH  39  40
ENDBRANCH   9  39
BRANCH  13  52
HETATM   52  C   UNK N   1      21.164  10.125   4.413  0.00  0.00     0.031 C 
HETATM   53  C   UNK N   1      20.672  10.868   5.643  0.00  0.00     0.007 C 
ENDBRANCH  13  52
BRANCH  15  54
HETATM   54  O   UNK N   1      25.326   9.751   4.345  0.00  0.00    -0.390 OA
HETATM   55  H   UNK N   1      25.736   9.475   5.180  0.00  0.00     0.210 HD
ENDBRANCH  15  54
BRANCH  14  56
HETATM   56  O   UNK N   1      23.070   8.092   3.598  0.00  0.00    -0.385 OA
HETATM   57  H   UNK N   1      23.626   7.541   4.170  0.00  0.00     0.210 HD
ENDBRANCH  14  56
TORSDOF 12
ENDMDL
MODEL 9
REMARK VINA RESULT:      -5.8     12.832     14.762
REMARK  12 active torsions:
REMARK  status: ('A' for Active; 'I' for Inactive)
REMARK    1  A    between atoms: C_6  and  O_21 
REMARK    2  A    between atoms: C_7  and  O_27 
REMARK    3  A    between atoms: C_9  and  O_26 
REMARK    4  A    between atoms: C_13  and  C_25 
REMARK    5  A    between atoms: C_14  and  O_19 
REMARK    6  A    between atoms: C_15  and  O_18 
REMARK    7  A    between atoms: C_30  and  O_26 
REMARK    8  A    between atoms: C_32  and  O_27 
REMARK    9  A    between atoms: C_31  and  O_42 
REMARK   10  A    between atoms: C_36  and  N_46 
REMARK   11  A    between atoms: C_40  and  O_48 
REMARK   12  A    between atoms: C_41  and  O_47 
ROOT
HETATM    1  N   UNK N   1      34.182  17.580  -7.675  0.00  0.00     0.091 N 
HETATM    2  C   UNK N   1      34.083  18.088  -9.040  0.00  0.00     0.277 C 
HETATM    3  C   UNK N   1      35.066  18.414  -6.833  0.00  0.00     0.250 C 
HETATM    4  C   UNK N   1      32.623  18.289  -9.432  0.00  0.00     0.013 C 
HETATM    5  C   UNK N   1      32.030  19.448  -8.616  0.00  0.00     0.046 C 
HETATM    6  C   UNK N   1      30.548  19.749  -8.861  0.00  0.00     0.081 C 
HETATM    7  C   UNK N   1      30.113  21.137  -8.288  0.00  0.00     0.165 C 
HETATM    8  C   UNK N   1      30.911  21.606  -7.030  0.00  0.00     0.043 C 
HETATM    9  C   UNK N   1      30.534  22.969  -6.381  0.00  0.00     0.144 C 
HETATM   10  C   UNK N   1      31.339  23.322  -5.102  0.00  0.00     0.111 C 
HETATM   11  C   UNK N   1      32.678  22.637  -4.889  0.00  0.00     0.265 C 
HETATM   12  O   UNK N   1      33.608  22.649  -5.887  0.00  0.00    -0.312 OA
HETATM   13  C   UNK N   1      34.949  22.273  -5.796  0.00  0.00     0.168 C 
HETATM   14  C   UNK N   1      35.286  20.759  -5.633  0.00  0.00     0.108 C 
HETATM   15  C   UNK N   1      34.564  19.895  -6.703  0.00  0.00     0.187 C 
HETATM   16  C   UNK N   1      34.752  16.243  -7.812  0.00  0.00     0.310 C 
HETATM   17  C   UNK N   1      35.223  17.741  -5.468  0.00  0.00     0.045 C 
HETATM   18  C   UNK N   1      30.429  23.227  -3.886  0.00  0.00     0.023 C 
HETATM   19  C   UNK N   1      31.853  16.981  -9.298  0.00  0.00     0.012 C 
HETATM   20  C   UNK N   1      29.687  18.695  -8.185  0.00  0.00     0.049 C 
HETATM   21  C   UNK N   1      34.930  20.282  -4.233  0.00  0.00     0.051 C 
HETATM   22  O   UNK N   1      32.917  22.103  -3.820  0.00  0.00    -0.265 OA
HETATM   23  C   UNK N   1      30.796  20.522  -5.961  0.00  0.00     0.015 C 
ENDROOT
BRANCH   7  24
HETATM   24  O   UNK N   1      29.983  22.114  -9.297  0.00  0.00    -0.350 OA
BRANCH  24  25
HETATM   25  C   UNK N   1      28.618  22.523  -9.343  0.00  0.00     0.291 C 
HETATM   26  C   UNK N   1      28.285  23.680 -10.316  0.00  0.00     0.206 C 
HETATM   27  C   UNK N   1      26.790  23.809 -10.610  0.00  0.00     0.257 C 
HETATM   28  C   UNK N   1      26.132  22.457 -10.929  0.00  0.00     0.070 C 
HETATM   29  C   UNK N   1      26.981  21.255 -10.519  0.00  0.00     0.122 C 
HETATM   30  O   UNK N   1      27.717  21.429  -9.322  0.00  0.00    -0.354 OA
HETATM   31  C   UNK N   1      27.772  20.642 -11.658  0.00  0.00     0.040 C 
BRANCH  26  32
HETATM   32  O   UNK N   1      28.793  24.892  -9.846  0.00  0.00    -0.388 OA
HETATM   33  H   UNK N   1      28.467  25.634  -9.313  0.00  0.00     0.210 HD
ENDBRANCH  26  32
BRANCH  27  34
HETATM   34  N   UNK N   1      26.064  24.604  -9.608  0.00  0.00     0.087 N 
HETATM   35  C   UNK N   1      25.240  25.590 -10.292  0.00  0.00     0.310 C 
HETATM   36  C   UNK N   1      25.197  23.782  -8.775  0.00  0.00     0.310 C 
ENDBRANCH  27  34
ENDBRANCH  24  25
ENDBRANCH   7  24
BRANCH   6  37
HETATM   37  O   UNK N   1      30.322  19.685 -10.235  0.00  0.00    -0.388 OA
HETATM   38  H   UNK N   1      29.840  20.264 -10.847  0.00  0.00     0.210 HD
ENDBRANCH   6  37
BRANCH   9  39
HETATM   39  O   UNK N   1      30.556  24.067  -7.263  0.00  0.00    -0.355 OA
BRANCH  39  40
HETATM   40  C   UNK N   1      29.698  25.019  -6.671  0.00  0.00     0.263 C 
HETATM   41  C   UNK N   1      28.247  24.544  -6.574  0.00  0.00     0.101 C 
HETATM   42  C   UNK N   1      27.469  25.545  -5.682  0.00  0.00     0.089 C 
HETATM   43  C   UNK N   1      27.682  26.958  -6.264  0.00  0.00     0.181 C 
HETATM   44  C   UNK N   1      28.025  25.553  -4.250  0.00  0.00     0.049 C 
HETATM   45  C   UNK N   1      29.193  27.203  -6.469  0.00  0.00     0.152 C 
HETATM   46  O   UNK N   1      29.732  26.247  -7.358  0.00  0.00    -0.354 OA
HETATM   47  C   UNK N   1      29.453  28.606  -6.986  0.00  0.00     0.042 C 
BRANCH  42  48
HETATM   48  O   UNK N   1      26.079  25.269  -5.667  0.00  0.00    -0.383 OA
HETATM   49  C   UNK N   1      25.839  24.019  -5.067  0.00  0.00     0.202 C 
ENDBRANCH  42  48
BRANCH  43  50
HETATM   50  O   UNK N   1      27.008  27.087  -7.484  0.00  0.00    -0.390 OA
HETATM   51  H   UNK N   1      26.693  27.463  -8.321  0.00  0.00     0.210 HD
ENDBRANCH  43  50
ENDBRANCH  39  40
ENDBRANCH   9  39
BRANCH  13  52
HETATM   52  C   UNK N   1      35.802  23.256  -4.978  0.00  0.00     0.031 C 
HETATM   53  C   UNK N   1      35.725  24.696  -5.454  0.00  0.00     0.007 C 
ENDBRANCH  13  52
BRANCH  15  54
HETATM   54  O   UNK N   1      34.708  20.523  -7.945  0.00  0.00    -0.390 OA
HETATM   55  H   UNK N   1      34.755  20.571  -8.913  0.00  0.00     0.210 HD
ENDBRANCH  15  54
BRANCH  14  56
HETATM   56  O   UNK N   1      36.664  20.611  -5.808  0.00  0.00    -0.385 OA
HETATM   57  H   UNK N   1      37.196  19.800  -5.815  0.00  0.00     0.210 HD
ENDBRANCH  14  56
TORSDOF 12
ENDMDL
