REMARK  11 active torsions:
REMARK  status: ('A' for Active; 'I' for Inactive)
REMARK    1  A    between atoms: C_3  and  C_13 
REMARK    2  A    between atoms: C_4  and  C_10 
REMARK    3  A    between atoms: C_8  and  N_15 
REMARK    4  A    between atoms: C_10  and  O_11 
REMARK       I    between atoms: N_15  and  C_16 
REMARK    5  A    between atoms: C_16  and  C_17 
REMARK    6  A    between atoms: C_17  and  C_19 
REMARK    7  A    between atoms: N_20  and  O_22 
REMARK    8  A    between atoms: O_22  and  C_23 
REMARK    9  A    between atoms: C_23  and  C_24 
REMARK   10  A    between atoms: C_24  and  O_25 
REMARK   11  A    between atoms: C_29  and  N_32 
ROOT
HETATM    1  N   UNK N   1       9.984  -9.070   0.911  0.00  0.00    -0.340 N 
HETATM    2  C   UNK N   1       9.103  -9.736   0.110  0.00  0.00     0.273 C 
HETATM    3  O   UNK N   1       9.451 -10.740  -0.489  0.00  0.00    -0.266 OA
HETATM    4  H   UNK N   1       9.697  -8.189   1.245  0.00  0.00     0.163 HD
ENDROOT
BRANCH   2   5
HETATM    5  C   UNK N   1       7.660  -9.334   0.104  0.00  0.00     0.149 C 
HETATM    6  N   UNK N   1       7.274  -8.138   0.413  0.00  0.00    -0.259 N 
ATOM      7  HN  UNK N   1       6.273  -7.950   0.471  1.00  0.00     0.194 HD
BRANCH   5   8
HETATM    8  C   UNK N   1       6.619 -10.374  -0.121  0.00  0.00     0.075 A 
HETATM    9  C   UNK N   1       6.923 -11.739  -0.338  0.00  0.00     0.085 A 
HETATM   10  S   UNK N   1       5.458 -12.506  -0.401  0.00  0.00    -0.064 SA
HETATM   11  C   UNK N   1       4.508 -11.189  -0.163  0.00  0.00     0.142 A 
HETATM   12  N   UNK N   1       5.272 -10.082  -0.018  0.00  0.00    -0.335 N 
ATOM     13  HN  UNK N   1       4.900  -9.147   0.147  1.00  0.00     0.168 HD
BRANCH  11  14
HETATM   14  N   UNK N   1       3.103 -11.196  -0.084  0.00  0.00    -0.380 N 
HETATM   15  H   UNK N   1       2.607 -10.347  -0.029  0.00  0.00     0.158 HD
HETATM   16  H   UNK N   1       2.614 -12.051  -0.084  0.00  0.00     0.158 HD
ENDBRANCH  11  14
ENDBRANCH   5   8
BRANCH   6  17
HETATM   17  O   UNK N   1       8.116  -7.150   0.658  0.00  0.00    -0.269 OA
BRANCH  17  18
HETATM   18  C   UNK N   1       8.689  -6.449  -0.378  0.00  0.00     0.311 C 
BRANCH  18  19
HETATM   19  C   UNK N   1      10.102  -6.105  -0.040  0.00  0.00     0.166 C 
HETATM   20  O   UNK N   1      10.344  -5.373   0.906  0.00  0.00    -0.648 OA
BRANCH  19  21
HETATM   21  O   UNK N   1      11.110  -6.599  -0.782  0.00  0.00    -0.775 OA
HETATM   22  H   UNK N   1      11.163  -7.379  -1.298  0.00  0.00     0.167 HD
ENDBRANCH  19  21
ENDBRANCH  18  19
ENDBRANCH  17  18
ENDBRANCH   6  17
ENDBRANCH   2   5
BRANCH   1  23
HETATM   23  C   UNK N   1      11.307  -9.528   1.323  0.00  0.00     0.211 A 
HETATM   24  C   UNK N   1      11.402 -11.016   1.312  0.00  0.00     0.251 A 
HETATM   25  N   UNK N   1      12.290 -11.131   0.371  0.00  0.00    -0.293 N 
HETATM   26  O   UNK N   1      10.941 -11.885   2.038  0.00  0.00    -0.271 OA
HETATM   27  C   UNK N   1      12.419  -9.726   0.151  0.00  0.00     0.187 A 
HETATM   28  C   UNK N   1      13.130 -12.209  -0.036  0.00  0.00     0.119 C 
HETATM   29  S   UNK N   1      14.106  -9.291   0.659  0.00  0.00    -0.136 SA
HETATM   30  C   UNK N   1      14.817 -10.437  -0.586  0.00  0.00     0.117 C 
HETATM   31  C   UNK N   1      14.390 -11.895  -0.457  0.00  0.00    -0.016 C 
BRANCH  31  32
HETATM   32  C   UNK N   1      15.384 -12.945  -0.786  0.00  0.00     0.000 C 
HETATM   33  C   UNK N   1      16.657 -12.661  -1.060  0.00  0.00     0.012 C 
ENDBRANCH  31  32
BRANCH  28  34
HETATM   34  C   UNK N   1      12.636 -13.626   0.083  0.00  0.00     0.194 C 
HETATM   35  O   UNK N   1      11.467 -13.841   0.360  0.00  0.00    -0.645 OA
BRANCH  34  36
HETATM   36  O   UNK N   1      13.438 -14.676  -0.178  0.00  0.00    -0.772 OA
HETATM   37  H   UNK N   1      13.085 -15.524  -0.359  0.00  0.00     0.167 HD
ENDBRANCH  34  36
ENDBRANCH  28  34
ENDBRANCH   1  23
TORSDOF 11
