MODEL 1
REMARK VINA RESULT:      -4.3      0.000      0.000
REMARK  11 active torsions:
REMARK  status: ('A' for Active; 'I' for Inactive)
REMARK    1  A    between atoms: C_1  and  C_2 
REMARK    2  A    between atoms: O_7  and  C_1 
REMARK    3  A    between atoms: C_2  and  N_4 
REMARK    4  A    between atoms: C_2  and  C_6 
REMARK    5  A    between atoms: S_5  and  C_6 
REMARK    6  A    between atoms: S_5  and  S_12 
REMARK    7  A    between atoms: C_8  and  C_9 
REMARK    8  A    between atoms: O_14  and  C_8 
REMARK    9  A    between atoms: C_9  and  N_11 
REMARK   10  A    between atoms: C_9  and  C_13 
REMARK   11  A    between atoms: S_12  and  C_13 
ROOT
HETATM    1  S   UNK N   1      34.391  12.797   9.588  0.00  0.00    -0.095 SA
ENDROOT
BRANCH   1   2
HETATM    2  C   UNK N   1      35.316  14.317   9.221  0.00  0.00     0.121 C 
BRANCH   2   3
HETATM    3  C   UNK N   1      34.652  15.485   9.932  0.00  0.00     0.183 C 
BRANCH   3   4
HETATM    4  C   UNK N   1      35.685  16.481  10.386  0.00  0.00     0.163 C 
HETATM    5  O   UNK N   1      35.467  17.681  10.270  0.00  0.00    -0.648 OA
BRANCH   4   6
HETATM    6  O   UNK N   1      36.847  16.071  10.925  0.00  0.00    -0.775 OA
HETATM    7  H   UNK N   1      37.151  15.186  10.878  0.00  0.00     0.167 HD
ENDBRANCH   4   6
ENDBRANCH   3   4
BRANCH   3   8
HETATM    8  N   UNK N   1      33.888  14.991  11.067  0.00  0.00    -0.417 N 
HETATM    9  H   UNK N   1      33.080  14.381  10.939  0.00  0.00     0.150 HD
HETATM   10  H   UNK N   1      34.165  15.261  12.012  0.00  0.00     0.150 HD
ENDBRANCH   3   8
ENDBRANCH   2   3
ENDBRANCH   1   2
BRANCH   1  11
HETATM   11  S   UNK N   1      36.160  11.801  10.198  0.00  0.00    -0.095 SA
BRANCH  11  12
HETATM   12  C   UNK N   1      35.636  11.838  11.938  0.00  0.00     0.121 C 
BRANCH  12  13
HETATM   13  C   UNK N   1      36.621  12.678  12.735  0.00  0.00     0.183 C 
BRANCH  13  14
HETATM   14  C   UNK N   1      35.893  13.727  13.533  0.00  0.00     0.163 C 
HETATM   15  O   UNK N   1      36.215  14.904  13.430  0.00  0.00    -0.648 OA
BRANCH  14  16
HETATM   16  O   UNK N   1      34.885  13.389  14.356  0.00  0.00    -0.775 OA
HETATM   17  H   UNK N   1      35.017  12.993  15.195  0.00  0.00     0.167 HD
ENDBRANCH  14  16
ENDBRANCH  13  14
BRANCH  13  18
HETATM   18  N   UNK N   1      37.574  13.299  11.828  0.00  0.00    -0.417 N 
HETATM   19  H   UNK N   1      37.600  13.056  10.838  0.00  0.00     0.150 HD
HETATM   20  H   UNK N   1      38.230  13.991  12.191  0.00  0.00     0.150 HD
ENDBRANCH  13  18
ENDBRANCH  12  13
ENDBRANCH  11  12
ENDBRANCH   1  11
TORSDOF 11
ENDMDL
MODEL 2
REMARK VINA RESULT:      -4.3      2.820      3.955
REMARK  11 active torsions:
REMARK  status: ('A' for Active; 'I' for Inactive)
REMARK    1  A    between atoms: C_1  and  C_2 
REMARK    2  A    between atoms: O_7  and  C_1 
REMARK    3  A    between atoms: C_2  and  N_4 
REMARK    4  A    between atoms: C_2  and  C_6 
REMARK    5  A    between atoms: S_5  and  C_6 
REMARK    6  A    between atoms: S_5  and  S_12 
REMARK    7  A    between atoms: C_8  and  C_9 
REMARK    8  A    between atoms: O_14  and  C_8 
REMARK    9  A    between atoms: C_9  and  N_11 
REMARK   10  A    between atoms: C_9  and  C_13 
REMARK   11  A    between atoms: S_12  and  C_13 
ROOT
HETATM    1  S   UNK N   1      32.577  14.874   8.584  0.00  0.00    -0.095 SA
ENDROOT
BRANCH   1   2
HETATM    2  C   UNK N   1      32.315  15.977   7.165  0.00  0.00     0.121 C 
BRANCH   2   3
HETATM    3  C   UNK N   1      32.550  17.413   7.602  0.00  0.00     0.183 C 
BRANCH   3   4
HETATM    4  C   UNK N   1      33.909  17.883   7.160  0.00  0.00     0.163 C 
HETATM    5  O   UNK N   1      34.312  17.612   6.035  0.00  0.00    -0.648 OA
BRANCH   4   6
HETATM    6  O   UNK N   1      34.690  18.605   7.983  0.00  0.00    -0.775 OA
HETATM    7  H   UNK N   1      35.114  19.399   7.723  0.00  0.00     0.167 HD
ENDBRANCH   4   6
ENDBRANCH   3   4
BRANCH   3   8
HETATM    8  N   UNK N   1      32.425  17.506   9.050  0.00  0.00    -0.417 N 
HETATM    9  H   UNK N   1      31.712  16.980   9.556  0.00  0.00     0.150 HD
HETATM   10  H   UNK N   1      33.063  18.110   9.568  0.00  0.00     0.150 HD
ENDBRANCH   3   8
ENDBRANCH   2   3
ENDBRANCH   1   2
BRANCH   1  11
HETATM   11  S   UNK N   1      34.112  13.830   7.561  0.00  0.00    -0.095 SA
BRANCH  11  12
HETATM   12  C   UNK N   1      35.399  14.784   8.419  0.00  0.00     0.121 C 
BRANCH  12  13
HETATM   13  C   UNK N   1      34.987  14.981   9.869  0.00  0.00     0.183 C 
BRANCH  13  14
HETATM   14  C   UNK N   1      35.676  16.185  10.453  0.00  0.00     0.163 C 
HETATM   15  O   UNK N   1      35.072  17.246  10.549  0.00  0.00    -0.648 OA
BRANCH  14  16
HETATM   16  O   UNK N   1      36.949  16.110  10.879  0.00  0.00    -0.775 OA
HETATM   17  H   UNK N   1      37.552  15.456  10.585  0.00  0.00     0.167 HD
ENDBRANCH  14  16
ENDBRANCH  13  14
BRANCH  13  18
HETATM   18  N   UNK N   1      35.314  13.787  10.632  0.00  0.00    -0.417 N 
HETATM   19  H   UNK N   1      34.747  13.494  11.428  0.00  0.00     0.150 HD
HETATM   20  H   UNK N   1      36.127  13.231  10.366  0.00  0.00     0.150 HD
ENDBRANCH  13  18
ENDBRANCH  12  13
ENDBRANCH  11  12
ENDBRANCH   1  11
TORSDOF 11
ENDMDL
MODEL 3
REMARK VINA RESULT:      -4.2      1.863      5.242
REMARK  11 active torsions:
REMARK  status: ('A' for Active; 'I' for Inactive)
REMARK    1  A    between atoms: C_1  and  C_2 
REMARK    2  A    between atoms: O_7  and  C_1 
REMARK    3  A    between atoms: C_2  and  N_4 
REMARK    4  A    between atoms: C_2  and  C_6 
REMARK    5  A    between atoms: S_5  and  C_6 
REMARK    6  A    between atoms: S_5  and  S_12 
REMARK    7  A    between atoms: C_8  and  C_9 
REMARK    8  A    between atoms: O_14  and  C_8 
REMARK    9  A    between atoms: C_9  and  N_11 
REMARK   10  A    between atoms: C_9  and  C_13 
REMARK   11  A    between atoms: S_12  and  C_13 
ROOT
HETATM    1  S   UNK N   1      35.482  13.552   9.833  0.00  0.00    -0.095 SA
ENDROOT
BRANCH   1   2
HETATM    2  C   UNK N   1      34.991  13.068  11.514  0.00  0.00     0.121 C 
BRANCH   2   3
HETATM    3  C   UNK N   1      36.212  13.107  12.418  0.00  0.00     0.183 C 
BRANCH   3   4
HETATM    4  C   UNK N   1      35.894  13.830  13.699  0.00  0.00     0.163 C 
HETATM    5  O   UNK N   1      36.528  14.833  14.007  0.00  0.00    -0.648 OA
BRANCH   4   6
HETATM    6  O   UNK N   1      34.917  13.394  14.513  0.00  0.00    -0.775 OA
HETATM    7  H   UNK N   1      34.375  13.967  15.019  0.00  0.00     0.167 HD
ENDBRANCH   4   6
ENDBRANCH   3   4
BRANCH   3   8
HETATM    8  N   UNK N   1      37.310  13.762  11.723  0.00  0.00    -0.417 N 
HETATM    9  H   UNK N   1      37.344  13.803  10.704  0.00  0.00     0.150 HD
HETATM   10  H   UNK N   1      38.062  14.187  12.266  0.00  0.00     0.150 HD
ENDBRANCH   3   8
ENDBRANCH   2   3
ENDBRANCH   1   2
BRANCH   1  11
HETATM   11  S   UNK N   1      33.631  14.533   9.514  0.00  0.00    -0.095 SA
BRANCH  11  12
HETATM   12  C   UNK N   1      34.424  15.791   8.468  0.00  0.00     0.121 C 
BRANCH  12  13
HETATM   13  C   UNK N   1      34.201  17.162   9.085  0.00  0.00     0.183 C 
BRANCH  13  14
HETATM   14  C   UNK N   1      34.654  18.244   8.141  0.00  0.00     0.163 C 
HETATM   15  O   UNK N   1      34.388  18.162   6.949  0.00  0.00    -0.648 OA
BRANCH  14  16
HETATM   16  O   UNK N   1      35.343  19.306   8.592  0.00  0.00    -0.775 OA
HETATM   17  H   UNK N   1      35.080  19.811   9.337  0.00  0.00     0.167 HD
ENDBRANCH  14  16
ENDBRANCH  13  14
BRANCH  13  18
HETATM   18  N   UNK N   1      34.923  17.250  10.345  0.00  0.00    -0.417 N 
HETATM   19  H   UNK N   1      35.936  17.369  10.369  0.00  0.00     0.150 HD
HETATM   20  H   UNK N   1      34.405  17.191  11.222  0.00  0.00     0.150 HD
ENDBRANCH  13  18
ENDBRANCH  12  13
ENDBRANCH  11  12
ENDBRANCH   1  11
TORSDOF 11
ENDMDL
MODEL 4
REMARK VINA RESULT:      -4.2      1.972      2.388
REMARK  11 active torsions:
REMARK  status: ('A' for Active; 'I' for Inactive)
REMARK    1  A    between atoms: C_1  and  C_2 
REMARK    2  A    between atoms: O_7  and  C_1 
REMARK    3  A    between atoms: C_2  and  N_4 
REMARK    4  A    between atoms: C_2  and  C_6 
REMARK    5  A    between atoms: S_5  and  C_6 
REMARK    6  A    between atoms: S_5  and  S_12 
REMARK    7  A    between atoms: C_8  and  C_9 
REMARK    8  A    between atoms: O_14  and  C_8 
REMARK    9  A    between atoms: C_9  and  N_11 
REMARK   10  A    between atoms: C_9  and  C_13 
REMARK   11  A    between atoms: S_12  and  C_13 
ROOT
HETATM    1  S   UNK N   1      33.460  14.580   9.171  0.00  0.00    -0.095 SA
ENDROOT
BRANCH   1   2
HETATM    2  C   UNK N   1      34.650  15.803   8.549  0.00  0.00     0.121 C 
BRANCH   2   3
HETATM    3  C   UNK N   1      34.303  17.169   9.118  0.00  0.00     0.183 C 
BRANCH   3   4
HETATM    4  C   UNK N   1      34.706  18.257   8.160  0.00  0.00     0.163 C 
HETATM    5  O   UNK N   1      35.295  19.248   8.576  0.00  0.00    -0.648 OA
BRANCH   4   6
HETATM    6  O   UNK N   1      34.436  18.154   6.847  0.00  0.00    -0.775 OA
HETATM    7  H   UNK N   1      33.968  18.809   6.366  0.00  0.00     0.167 HD
ENDBRANCH   4   6
ENDBRANCH   3   4
BRANCH   3   8
HETATM    8  N   UNK N   1      34.971  17.345  10.399  0.00  0.00    -0.417 N 
HETATM    9  H   UNK N   1      35.017  16.589  11.082  0.00  0.00     0.150 HD
HETATM   10  H   UNK N   1      35.402  18.244  10.618  0.00  0.00     0.150 HD
ENDBRANCH   3   8
ENDBRANCH   2   3
ENDBRANCH   1   2
BRANCH   1  11
HETATM   11  S   UNK N   1      34.909  13.037   9.074  0.00  0.00    -0.095 SA
BRANCH  11  12
HETATM   12  C   UNK N   1      36.067  13.995  10.096  0.00  0.00     0.121 C 
BRANCH  12  13
HETATM   13  C   UNK N   1      36.477  13.159  11.298  0.00  0.00     0.183 C 
BRANCH  13  14
HETATM   14  C   UNK N   1      35.782  13.649  12.541  0.00  0.00     0.163 C 
HETATM   15  O   UNK N   1      36.443  13.973  13.520  0.00  0.00    -0.648 OA
BRANCH  14  16
HETATM   16  O   UNK N   1      34.442  13.742  12.589  0.00  0.00    -0.775 OA
HETATM   17  H   UNK N   1      33.904  13.813  11.825  0.00  0.00     0.167 HD
ENDBRANCH  14  16
ENDBRANCH  13  14
BRANCH  13  18
HETATM   18  N   UNK N   1      37.921  13.223  11.463  0.00  0.00    -0.417 N 
HETATM   19  H   UNK N   1      38.344  13.738  12.234  0.00  0.00     0.150 HD
HETATM   20  H   UNK N   1      38.522  12.741  10.793  0.00  0.00     0.150 HD
ENDBRANCH  13  18
ENDBRANCH  12  13
ENDBRANCH  11  12
ENDBRANCH   1  11
TORSDOF 11
ENDMDL
MODEL 5
REMARK VINA RESULT:      -4.1     17.993     18.892
REMARK  11 active torsions:
REMARK  status: ('A' for Active; 'I' for Inactive)
REMARK    1  A    between atoms: C_1  and  C_2 
REMARK    2  A    between atoms: O_7  and  C_1 
REMARK    3  A    between atoms: C_2  and  N_4 
REMARK    4  A    between atoms: C_2  and  C_6 
REMARK    5  A    between atoms: S_5  and  C_6 
REMARK    6  A    between atoms: S_5  and  S_12 
REMARK    7  A    between atoms: C_8  and  C_9 
REMARK    8  A    between atoms: O_14  and  C_8 
REMARK    9  A    between atoms: C_9  and  N_11 
REMARK   10  A    between atoms: C_9  and  C_13 
REMARK   11  A    between atoms: S_12  and  C_13 
ROOT
HETATM    1  S   UNK N   1      21.162  17.604   4.057  0.00  0.00    -0.095 SA
ENDROOT
BRANCH   1   2
HETATM    2  C   UNK N   1      21.598  18.730   2.700  0.00  0.00     0.121 C 
BRANCH   2   3
HETATM    3  C   UNK N   1      20.435  19.675   2.445  0.00  0.00     0.183 C 
BRANCH   3   4
HETATM    4  C   UNK N   1      20.669  20.473   1.191  0.00  0.00     0.163 C 
HETATM    5  O   UNK N   1      20.874  21.679   1.266  0.00  0.00    -0.648 OA
BRANCH   4   6
HETATM    6  O   UNK N   1      20.664  19.879  -0.015  0.00  0.00    -0.775 OA
HETATM    7  H   UNK N   1      21.267  19.205  -0.258  0.00  0.00     0.167 HD
ENDBRANCH   4   6
ENDBRANCH   3   4
BRANCH   3   8
HETATM    8  N   UNK N   1      20.269  20.560   3.589  0.00  0.00    -0.417 N 
HETATM    9  H   UNK N   1      20.478  21.556   3.524  0.00  0.00     0.150 HD
HETATM   10  H   UNK N   1      19.938  20.175   4.474  0.00  0.00     0.150 HD
ENDBRANCH   3   8
ENDBRANCH   2   3
ENDBRANCH   1   2
BRANCH   1  11
HETATM   11  S   UNK N   1      21.637  15.908   2.879  0.00  0.00    -0.095 SA
BRANCH  11  12
HETATM   12  C   UNK N   1      19.884  15.624   2.496  0.00  0.00     0.121 C 
BRANCH  12  13
HETATM   13  C   UNK N   1      19.751  15.241   1.031  0.00  0.00     0.183 C 
BRANCH  13  14
HETATM   14  C   UNK N   1      19.428  16.452   0.198  0.00  0.00     0.163 C 
HETATM   15  O   UNK N   1      20.335  17.145  -0.248  0.00  0.00    -0.648 OA
BRANCH  14  16
HETATM   16  O   UNK N   1      18.153  16.783  -0.072  0.00  0.00    -0.775 OA
HETATM   17  H   UNK N   1      17.897  17.268  -0.831  0.00  0.00     0.167 HD
ENDBRANCH  14  16
ENDBRANCH  13  14
BRANCH  13  18
HETATM   18  N   UNK N   1      18.714  14.231   0.886  0.00  0.00    -0.417 N 
HETATM   19  H   UNK N   1      17.739  14.436   1.107  0.00  0.00     0.150 HD
HETATM   20  H   UNK N   1      18.966  13.300   0.555  0.00  0.00     0.150 HD
ENDBRANCH  13  18
ENDBRANCH  12  13
ENDBRANCH  11  12
ENDBRANCH   1  11
TORSDOF 11
ENDMDL
MODEL 6
REMARK VINA RESULT:      -4.1      2.351      5.747
REMARK  11 active torsions:
REMARK  status: ('A' for Active; 'I' for Inactive)
REMARK    1  A    between atoms: C_1  and  C_2 
REMARK    2  A    between atoms: O_7  and  C_1 
REMARK    3  A    between atoms: C_2  and  N_4 
REMARK    4  A    between atoms: C_2  and  C_6 
REMARK    5  A    between atoms: S_5  and  C_6 
REMARK    6  A    between atoms: S_5  and  S_12 
REMARK    7  A    between atoms: C_8  and  C_9 
REMARK    8  A    between atoms: O_14  and  C_8 
REMARK    9  A    between atoms: C_9  and  N_11 
REMARK   10  A    between atoms: C_9  and  C_13 
REMARK   11  A    between atoms: S_12  and  C_13 
ROOT
HETATM    1  S   UNK N   1      34.830  14.468  11.531  0.00  0.00    -0.095 SA
ENDROOT
BRANCH   1   2
HETATM    2  C   UNK N   1      36.051  13.150  11.799  0.00  0.00     0.121 C 
BRANCH   2   3
HETATM    3  C   UNK N   1      36.258  12.961  13.293  0.00  0.00     0.183 C 
BRANCH   3   4
HETATM    4  C   UNK N   1      34.967  12.563  13.956  0.00  0.00     0.163 C 
HETATM    5  O   UNK N   1      34.600  13.143  14.972  0.00  0.00    -0.648 OA
BRANCH   4   6
HETATM    6  O   UNK N   1      34.204  11.581  13.445  0.00  0.00    -0.775 OA
HETATM    7  H   UNK N   1      33.793  11.635  12.605  0.00  0.00     0.167 HD
ENDBRANCH   4   6
ENDBRANCH   3   4
BRANCH   3   8
HETATM    8  N   UNK N   1      36.769  14.195  13.872  0.00  0.00    -0.417 N 
HETATM    9  H   UNK N   1      37.095  14.232  14.838  0.00  0.00     0.150 HD
HETATM   10  H   UNK N   1      36.801  15.039  13.300  0.00  0.00     0.150 HD
ENDBRANCH   3   8
ENDBRANCH   2   3
ENDBRANCH   1   2
BRANCH   1  11
HETATM   11  S   UNK N   1      35.973  15.282   9.942  0.00  0.00    -0.095 SA
BRANCH  11  12
HETATM   12  C   UNK N   1      35.065  16.854  10.031  0.00  0.00     0.121 C 
BRANCH  12  13
HETATM   13  C   UNK N   1      34.183  16.987   8.800  0.00  0.00     0.183 C 
BRANCH  13  14
HETATM   14  C   UNK N   1      34.607  18.173   7.975  0.00  0.00     0.163 C 
HETATM   15  O   UNK N   1      34.362  18.200   6.775  0.00  0.00    -0.648 OA
BRANCH  14  16
HETATM   16  O   UNK N   1      35.249  19.211   8.540  0.00  0.00    -0.775 OA
HETATM   17  H   UNK N   1      36.086  19.134   8.954  0.00  0.00     0.167 HD
ENDBRANCH  14  16
ENDBRANCH  13  14
BRANCH  13  18
HETATM   18  N   UNK N   1      32.795  17.123   9.211  0.00  0.00    -0.417 N 
HETATM   19  H   UNK N   1      32.337  18.035   9.239  0.00  0.00     0.150 HD
HETATM   20  H   UNK N   1      32.268  16.291   9.476  0.00  0.00     0.150 HD
ENDBRANCH  13  18
ENDBRANCH  12  13
ENDBRANCH  11  12
ENDBRANCH   1  11
TORSDOF 11
ENDMDL
MODEL 7
REMARK VINA RESULT:      -3.9      5.762      7.939
REMARK  11 active torsions:
REMARK  status: ('A' for Active; 'I' for Inactive)
REMARK    1  A    between atoms: C_1  and  C_2 
REMARK    2  A    between atoms: O_7  and  C_1 
REMARK    3  A    between atoms: C_2  and  N_4 
REMARK    4  A    between atoms: C_2  and  C_6 
REMARK    5  A    between atoms: S_5  and  C_6 
REMARK    6  A    between atoms: S_5  and  S_12 
REMARK    7  A    between atoms: C_8  and  C_9 
REMARK    8  A    between atoms: O_14  and  C_8 
REMARK    9  A    between atoms: C_9  and  N_11 
REMARK   10  A    between atoms: C_9  and  C_13 
REMARK   11  A    between atoms: S_12  and  C_13 
ROOT
HETATM    1  S   UNK N   1      30.598  17.333   7.831  0.00  0.00    -0.095 SA
ENDROOT
BRANCH   1   2
HETATM    2  C   UNK N   1      32.321  16.774   7.693  0.00  0.00     0.121 C 
BRANCH   2   3
HETATM    3  C   UNK N   1      33.191  17.616   8.612  0.00  0.00     0.183 C 
BRANCH   3   4
HETATM    4  C   UNK N   1      34.293  18.280   7.832  0.00  0.00     0.163 C 
HETATM    5  O   UNK N   1      35.015  19.105   8.378  0.00  0.00    -0.648 OA
BRANCH   4   6
HETATM    6  O   UNK N   1      34.502  17.975   6.539  0.00  0.00    -0.775 OA
HETATM    7  H   UNK N   1      35.327  17.677   6.209  0.00  0.00     0.167 HD
ENDBRANCH   4   6
ENDBRANCH   3   4
BRANCH   3   8
HETATM    8  N   UNK N   1      33.746  16.773   9.661  0.00  0.00    -0.417 N 
HETATM    9  H   UNK N   1      34.189  17.176  10.487  0.00  0.00     0.150 HD
HETATM   10  H   UNK N   1      33.692  15.759   9.567  0.00  0.00     0.150 HD
ENDBRANCH   3   8
ENDBRANCH   2   3
ENDBRANCH   1   2
BRANCH   1  11
HETATM   11  S   UNK N   1      30.052  16.266   6.084  0.00  0.00    -0.095 SA
BRANCH  11  12
HETATM   12  C   UNK N   1      31.365  17.076   5.122  0.00  0.00     0.121 C 
BRANCH  12  13
HETATM   13  C   UNK N   1      31.585  16.301   3.833  0.00  0.00     0.183 C 
BRANCH  13  14
HETATM   14  C   UNK N   1      33.056  16.079   3.597  0.00  0.00     0.163 C 
HETATM   15  O   UNK N   1      33.499  16.095   2.456  0.00  0.00    -0.648 OA
BRANCH  14  16
HETATM   16  O   UNK N   1      33.894  15.868   4.627  0.00  0.00    -0.775 OA
HETATM   17  H   UNK N   1      34.546  16.486   4.893  0.00  0.00     0.167 HD
ENDBRANCH  14  16
ENDBRANCH  13  14
BRANCH  13  18
HETATM   18  N   UNK N   1      30.997  17.032   2.721  0.00  0.00    -0.417 N 
HETATM   19  H   UNK N   1      31.026  16.665   1.770  0.00  0.00     0.150 HD
HETATM   20  H   UNK N   1      30.547  17.931   2.897  0.00  0.00     0.150 HD
ENDBRANCH  13  18
ENDBRANCH  12  13
ENDBRANCH  11  12
ENDBRANCH   1  11
TORSDOF 11
ENDMDL
MODEL 8
REMARK VINA RESULT:      -3.9      2.859      3.604
REMARK  11 active torsions:
REMARK  status: ('A' for Active; 'I' for Inactive)
REMARK    1  A    between atoms: C_1  and  C_2 
REMARK    2  A    between atoms: O_7  and  C_1 
REMARK    3  A    between atoms: C_2  and  N_4 
REMARK    4  A    between atoms: C_2  and  C_6 
REMARK    5  A    between atoms: S_5  and  C_6 
REMARK    6  A    between atoms: S_5  and  S_12 
REMARK    7  A    between atoms: C_8  and  C_9 
REMARK    8  A    between atoms: O_14  and  C_8 
REMARK    9  A    between atoms: C_9  and  N_11 
REMARK   10  A    between atoms: C_9  and  C_13 
REMARK   11  A    between atoms: S_12  and  C_13 
ROOT
HETATM    1  S   UNK N   1      33.063  15.578   6.372  0.00  0.00    -0.095 SA
ENDROOT
BRANCH   1   2
HETATM    2  C   UNK N   1      33.744  17.258   6.494  0.00  0.00     0.121 C 
BRANCH   2   3
HETATM    3  C   UNK N   1      33.290  17.883   7.803  0.00  0.00     0.183 C 
BRANCH   3   4
HETATM    4  C   UNK N   1      34.476  18.201   8.674  0.00  0.00     0.163 C 
HETATM    5  O   UNK N   1      35.280  19.055   8.321  0.00  0.00    -0.648 OA
BRANCH   4   6
HETATM    6  O   UNK N   1      34.663  17.562   9.842  0.00  0.00    -0.775 OA
HETATM    7  H   UNK N   1      35.166  17.918  10.548  0.00  0.00     0.167 HD
ENDBRANCH   4   6
ENDBRANCH   3   4
BRANCH   3   8
HETATM    8  N   UNK N   1      32.384  16.973   8.488  0.00  0.00    -0.417 N 
HETATM    9  H   UNK N   1      32.283  16.002   8.190  0.00  0.00     0.150 HD
HETATM   10  H   UNK N   1      31.840  17.312   9.281  0.00  0.00     0.150 HD
ENDBRANCH   3   8
ENDBRANCH   2   3
ENDBRANCH   1   2
BRANCH   1  11
HETATM   11  S   UNK N   1      34.873  14.732   7.078  0.00  0.00    -0.095 SA
BRANCH  11  12
HETATM   12  C   UNK N   1      34.032  14.018   8.521  0.00  0.00     0.121 C 
BRANCH  12  13
HETATM   13  C   UNK N   1      34.968  14.070   9.718  0.00  0.00     0.183 C 
BRANCH  13  14
HETATM   14  C   UNK N   1      34.208  14.434  10.965  0.00  0.00     0.163 C 
HETATM   15  O   UNK N   1      34.613  14.055  12.057  0.00  0.00    -0.648 OA
BRANCH  14  16
HETATM   16  O   UNK N   1      33.091  15.179  10.898  0.00  0.00    -0.775 OA
HETATM   17  H   UNK N   1      32.248  14.823  10.694  0.00  0.00     0.167 HD
ENDBRANCH  14  16
ENDBRANCH  13  14
BRANCH  13  18
HETATM   18  N   UNK N   1      36.025  15.037   9.465  0.00  0.00    -0.417 N 
HETATM   19  H   UNK N   1      36.459  15.120   8.545  0.00  0.00     0.150 HD
HETATM   20  H   UNK N   1      36.338  15.644  10.222  0.00  0.00     0.150 HD
ENDBRANCH  13  18
ENDBRANCH  12  13
ENDBRANCH  11  12
ENDBRANCH   1  11
TORSDOF 11
ENDMDL
MODEL 9
REMARK VINA RESULT:      -3.8      4.901      7.259
REMARK  11 active torsions:
REMARK  status: ('A' for Active; 'I' for Inactive)
REMARK    1  A    between atoms: C_1  and  C_2 
REMARK    2  A    between atoms: O_7  and  C_1 
REMARK    3  A    between atoms: C_2  and  N_4 
REMARK    4  A    between atoms: C_2  and  C_6 
REMARK    5  A    between atoms: S_5  and  C_6 
REMARK    6  A    between atoms: S_5  and  S_12 
REMARK    7  A    between atoms: C_8  and  C_9 
REMARK    8  A    between atoms: O_14  and  C_8 
REMARK    9  A    between atoms: C_9  and  N_11 
REMARK   10  A    between atoms: C_9  and  C_13 
REMARK   11  A    between atoms: S_12  and  C_13 
ROOT
HETATM    1  S   UNK N   1      33.009  14.841   7.958  0.00  0.00    -0.095 SA
ENDROOT
BRANCH   1   2
HETATM    2  C   UNK N   1      34.537  15.796   8.189  0.00  0.00     0.121 C 
BRANCH   2   3
HETATM    3  C   UNK N   1      34.208  17.091   8.912  0.00  0.00     0.183 C 
BRANCH   3   4
HETATM    4  C   UNK N   1      34.623  18.277   8.084  0.00  0.00     0.163 C 
HETATM    5  O   UNK N   1      34.302  18.337   6.902  0.00  0.00    -0.648 OA
BRANCH   4   6
HETATM    6  O   UNK N   1      35.337  19.279   8.624  0.00  0.00    -0.775 OA
HETATM    7  H   UNK N   1      35.537  19.333   9.539  0.00  0.00     0.167 HD
ENDBRANCH   4   6
ENDBRANCH   3   4
BRANCH   3   8
HETATM    8  N   UNK N   1      34.882  17.111  10.202  0.00  0.00    -0.417 N 
HETATM    9  H   UNK N   1      34.909  16.285  10.800  0.00  0.00     0.150 HD
HETATM   10  H   UNK N   1      35.336  17.969  10.515  0.00  0.00     0.150 HD
ENDBRANCH   3   8
ENDBRANCH   2   3
ENDBRANCH   1   2
BRANCH   1  11
HETATM   11  S   UNK N   1      33.740  13.999   6.156  0.00  0.00    -0.095 SA
BRANCH  11  12
HETATM   12  C   UNK N   1      33.842  15.638   5.376  0.00  0.00     0.121 C 
BRANCH  12  13
HETATM   13  C   UNK N   1      32.500  15.972   4.746  0.00  0.00     0.183 C 
BRANCH  13  14
HETATM   14  C   UNK N   1      32.665  16.263   3.278  0.00  0.00     0.163 C 
HETATM   15  O   UNK N   1      33.290  15.484   2.569  0.00  0.00    -0.648 OA
BRANCH  14  16
HETATM   16  O   UNK N   1      32.129  17.368   2.731  0.00  0.00    -0.775 OA
HETATM   17  H   UNK N   1      32.633  18.009   2.269  0.00  0.00     0.167 HD
ENDBRANCH  14  16
ENDBRANCH  13  14
BRANCH  13  18
HETATM   18  N   UNK N   1      31.915  17.115   5.429  0.00  0.00    -0.417 N 
HETATM   19  H   UNK N   1      30.904  17.233   5.495  0.00  0.00     0.150 HD
HETATM   20  H   UNK N   1      32.528  17.813   5.851  0.00  0.00     0.150 HD
ENDBRANCH  13  18
ENDBRANCH  12  13
ENDBRANCH  11  12
ENDBRANCH   1  11
TORSDOF 11
ENDMDL
