MODEL 1
REMARK VINA RESULT:      -8.1      0.000      0.000
REMARK  16 active torsions:
REMARK  status: ('A' for Active; 'I' for Inactive)
REMARK    1  A    between atoms: C_3  and  O_15 
REMARK    2  A    between atoms: C_11  and  O_18 
REMARK    3  A    between atoms: C_12  and  O_17 
REMARK    4  A    between atoms: C_21  and  O_31 
REMARK    5  A    between atoms: C_23  and  C_25 
REMARK    6  A    between atoms: C_23  and  O_30 
REMARK    7  A    between atoms: C_25  and  C_26 
REMARK    8  A    between atoms: C_26  and  O_28 
REMARK    9  A    between atoms: O_28  and  C_29 
REMARK   10  A    between atoms: C_29  and  C_33 
REMARK   11  A    between atoms: C_37  and  O_31 
REMARK   12  A    between atoms: C_33  and  C_34 
REMARK   13  A    between atoms: C_34  and  C_35 
REMARK   14  A    between atoms: C_39  and  N_45 
REMARK   15  A    between atoms: C_40  and  O_44 
REMARK       I    between atoms: N_45  and  C_46 
REMARK   16  A    between atoms: C_46  and  C_47 
ROOT
HETATM    1  C   UNK N   1      33.209  17.536   4.631  0.00  0.00     0.004 A 
HETATM    2  C   UNK N   1      33.270  16.270   4.058  0.00  0.00     0.038 A 
HETATM    3  C   UNK N   1      33.560  15.140   4.825  0.00  0.00     0.083 A 
HETATM    4  C   UNK N   1      33.435  17.694   5.991  0.00  0.00     0.017 A 
HETATM    5  C   UNK N   1      33.719  16.590   6.801  0.00  0.00     0.032 A 
HETATM    6  C   UNK N   1      33.776  15.289   6.237  0.00  0.00     0.062 A 
HETATM    7  C   UNK N   1      34.049  14.150   7.154  0.00  0.00     0.200 C 
HETATM    8  C   UNK N   1      33.981  16.805   8.244  0.00  0.00     0.197 C 
HETATM    9  C   UNK N   1      34.514  15.693   9.075  0.00  0.00     0.066 A 
HETATM   10  C   UNK N   1      34.578  14.396   8.521  0.00  0.00     0.066 A 
HETATM   11  C   UNK N   1      35.182  13.356   9.248  0.00  0.00     0.090 A 
HETATM   12  C   UNK N   1      34.997  15.916  10.382  0.00  0.00     0.088 A 
HETATM   13  O   UNK N   1      33.847  17.925   8.718  0.00  0.00    -0.286 OA
HETATM   14  O   UNK N   1      33.815  13.002   6.805  0.00  0.00    -0.286 OA
HETATM   15  C   UNK N   1      35.588  14.872  11.104  0.00  0.00    -0.009 A 
HETATM   16  C   UNK N   1      35.708  13.590  10.527  0.00  0.00     0.014 A 
HETATM   17  C   UNK N   1      36.477  12.496  11.247  0.00  0.00     0.164 C 
HETATM   18  C   UNK N   1      36.903  12.825  12.683  0.00  0.00     0.083 C 
HETATM   19  C   UNK N   1      36.049  13.904  13.352  0.00  0.00     0.127 C 
HETATM   20  C   UNK N   1      36.145  15.146  12.477  0.00  0.00     0.088 C 
ENDROOT
BRANCH  17  21
HETATM   21  O   UNK N   1      35.963  11.199  11.026  0.00  0.00    -0.351 OA
BRANCH  21  22
HETATM   22  C   UNK N   1      36.840  10.250  10.450  0.00  0.00     0.263 C 
HETATM   23  C   UNK N   1      37.247   9.297  11.576  0.00  0.00     0.088 C 
HETATM   24  C   UNK N   1      35.934   8.720  12.116  0.00  0.00     0.120 C 
HETATM   25  C   UNK N   1      35.162   7.978  11.030  0.00  0.00     0.169 C 
HETATM   26  C   UNK N   1      34.977   8.975   9.879  0.00  0.00     0.151 C 
HETATM   27  O   UNK N   1      36.219   9.483   9.424  0.00  0.00    -0.354 OA
HETATM   28  C   UNK N   1      34.207   8.363   8.725  0.00  0.00     0.042 C 
BRANCH  24  29
HETATM   29  N   UNK N   1      36.069   7.975  13.342  0.00  0.00    -0.346 N 
HETATM   30  C   UNK N   1      35.575   8.435  14.524  0.00  0.00     0.325 C 
HETATM   31  O   UNK N   1      35.646   7.721  15.511  0.00  0.00    -0.263 OA
HETATM   32  H   UNK N   1      36.534   7.107  13.324  0.00  0.00     0.163 HD
BRANCH  30  33
HETATM   33  C   UNK N   1      34.939   9.804  14.645  0.00  0.00     0.472 C 
HETATM   34  F   UNK N   1      33.987   9.981  13.657  0.00  0.00    -0.162 F 
HETATM   35  F   UNK N   1      34.327   9.950  15.878  0.00  0.00    -0.162 F 
HETATM   36  F   UNK N   1      35.910  10.782  14.530  0.00  0.00    -0.162 F 
ENDBRANCH  30  33
ENDBRANCH  24  29
BRANCH  25  37
HETATM   37  O   UNK N   1      35.878   6.857  10.601  0.00  0.00    -0.391 OA
HETATM   38  H   UNK N   1      36.797   6.562  10.694  0.00  0.00     0.210 HD
ENDBRANCH  25  37
ENDBRANCH  21  22
ENDBRANCH  17  21
BRANCH  11  39
HETATM   39  O   UNK N   1      35.299  12.132   8.695  0.00  0.00    -0.359 OA
HETATM   40  H   UNK N   1      34.674  11.832   8.064  0.00  0.00     0.217 HD
ENDBRANCH  11  39
BRANCH  19  41
HETATM   41  C   UNK N   1      36.538  14.188  14.751  0.00  0.00     0.185 C 
HETATM   42  O   UNK N   1      37.170  15.207  14.980  0.00  0.00    -0.292 OA
BRANCH  41  43
HETATM   43  C   UNK N   1      36.156  13.295  15.895  0.00  0.00     0.260 C 
BRANCH  43  44
HETATM   44  O   UNK N   1      35.826  14.094  16.973  0.00  0.00    -0.314 OA
BRANCH  44  45
HETATM   45  C   UNK N   1      35.345  13.602  18.141  0.00  0.00     0.259 C 
HETATM   46  O   UNK N   1      34.925  14.372  18.991  0.00  0.00    -0.265 OA
BRANCH  45  47
HETATM   47  C   UNK N   1      35.264  12.126  18.378  0.00  0.00     0.111 C 
BRANCH  47  48
HETATM   48  C   UNK N   1      35.271  11.847  19.872  0.00  0.00     0.009 C 
BRANCH  48  49
HETATM   49  C   UNK N   1      35.655  10.400  20.141  0.00  0.00    -0.004 C 
HETATM   50  C   UNK N   1      36.682   9.946  19.124  0.00  0.00     0.005 C 
ENDBRANCH  48  49
ENDBRANCH  47  48
ENDBRANCH  45  47
ENDBRANCH  44  45
ENDBRANCH  43  44
ENDBRANCH  41  43
ENDBRANCH  19  41
BRANCH  19  51
HETATM   51  O   UNK N   1      34.715  13.487  13.432  0.00  0.00    -0.382 OA
HETATM   52  H   UNK N   1      33.857  13.194  13.774  0.00  0.00     0.211 HD
ENDBRANCH  19  51
BRANCH  12  53
HETATM   53  O   UNK N   1      34.933  17.143  10.937  0.00  0.00    -0.359 OA
HETATM   54  H   UNK N   1      35.626  17.759  10.805  0.00  0.00     0.217 HD
ENDBRANCH  12  53
BRANCH   3  55
HETATM   55  O   UNK N   1      33.642  13.961   4.151  0.00  0.00    -0.355 OA
HETATM   56  C   UNK N   1      33.240  13.766   2.851  0.00  0.00     0.210 C 
ENDBRANCH   3  55
TORSDOF 16
ENDMDL
MODEL 2
REMARK VINA RESULT:      -8.1      1.832      2.629
REMARK  16 active torsions:
REMARK  status: ('A' for Active; 'I' for Inactive)
REMARK    1  A    between atoms: C_3  and  O_15 
REMARK    2  A    between atoms: C_11  and  O_18 
REMARK    3  A    between atoms: C_12  and  O_17 
REMARK    4  A    between atoms: C_21  and  O_31 
REMARK    5  A    between atoms: C_23  and  C_25 
REMARK    6  A    between atoms: C_23  and  O_30 
REMARK    7  A    between atoms: C_25  and  C_26 
REMARK    8  A    between atoms: C_26  and  O_28 
REMARK    9  A    between atoms: O_28  and  C_29 
REMARK   10  A    between atoms: C_29  and  C_33 
REMARK   11  A    between atoms: C_37  and  O_31 
REMARK   12  A    between atoms: C_33  and  C_34 
REMARK   13  A    between atoms: C_34  and  C_35 
REMARK   14  A    between atoms: C_39  and  N_45 
REMARK   15  A    between atoms: C_40  and  O_44 
REMARK       I    between atoms: N_45  and  C_46 
REMARK   16  A    between atoms: C_46  and  C_47 
ROOT
HETATM    1  C   UNK N   1      33.337  17.427   4.952  0.00  0.00     0.004 A 
HETATM    2  C   UNK N   1      33.420  16.168   4.367  0.00  0.00     0.038 A 
HETATM    3  C   UNK N   1      33.699  15.031   5.128  0.00  0.00     0.083 A 
HETATM    4  C   UNK N   1      33.530  17.571   6.319  0.00  0.00     0.017 A 
HETATM    5  C   UNK N   1      33.801  16.460   7.122  0.00  0.00     0.032 A 
HETATM    6  C   UNK N   1      33.880  15.166   6.545  0.00  0.00     0.062 A 
HETATM    7  C   UNK N   1      34.138  14.018   7.457  0.00  0.00     0.200 C 
HETATM    8  C   UNK N   1      34.026  16.660   8.573  0.00  0.00     0.197 C 
HETATM    9  C   UNK N   1      34.546  15.543   9.405  0.00  0.00     0.066 A 
HETATM   10  C   UNK N   1      34.632  14.253   8.839  0.00  0.00     0.066 A 
HETATM   11  C   UNK N   1      35.226  13.208   9.569  0.00  0.00     0.090 A 
HETATM   12  C   UNK N   1      34.996  15.754  10.726  0.00  0.00     0.088 A 
HETATM   13  O   UNK N   1      33.874  17.775   9.057  0.00  0.00    -0.286 OA
HETATM   14  O   UNK N   1      33.921  12.873   7.089  0.00  0.00    -0.286 OA
HETATM   15  C   UNK N   1      35.576  14.706  11.451  0.00  0.00    -0.009 A 
HETATM   16  C   UNK N   1      35.719  13.431  10.862  0.00  0.00     0.014 A 
HETATM   17  C   UNK N   1      36.477  12.334  11.589  0.00  0.00     0.164 C 
HETATM   18  C   UNK N   1      36.866  12.650  13.038  0.00  0.00     0.083 C 
HETATM   19  C   UNK N   1      35.989  13.716  13.699  0.00  0.00     0.127 C 
HETATM   20  C   UNK N   1      36.098  14.968  12.840  0.00  0.00     0.088 C 
ENDROOT
BRANCH  17  21
HETATM   21  O   UNK N   1      35.977  11.036  11.342  0.00  0.00    -0.351 OA
BRANCH  21  22
HETATM   22  C   UNK N   1      36.410  10.005  12.209  0.00  0.00     0.263 C 
HETATM   23  C   UNK N   1      35.211   9.076  12.410  0.00  0.00     0.088 C 
HETATM   24  C   UNK N   1      34.812   8.615  11.004  0.00  0.00     0.120 C 
HETATM   25  C   UNK N   1      35.957   7.881  10.313  0.00  0.00     0.169 C 
HETATM   26  C   UNK N   1      37.156   8.838  10.337  0.00  0.00     0.151 C 
HETATM   27  O   UNK N   1      37.477   9.239  11.657  0.00  0.00    -0.354 OA
HETATM   28  C   UNK N   1      38.372   8.230   9.665  0.00  0.00     0.042 C 
BRANCH  24  29
HETATM   29  N   UNK N   1      33.554   7.917  10.940  0.00  0.00    -0.346 N 
HETATM   30  C   UNK N   1      32.563   8.293  10.087  0.00  0.00     0.325 C 
HETATM   31  O   UNK N   1      31.553   7.611  10.018  0.00  0.00    -0.263 OA
HETATM   32  H   UNK N   1      33.407   7.143  11.532  0.00  0.00     0.163 HD
BRANCH  30  33
HETATM   33  C   UNK N   1      32.681   9.530   9.221  0.00  0.00     0.472 C 
HETATM   34  F   UNK N   1      33.784   9.433   8.392  0.00  0.00    -0.162 F 
HETATM   35  F   UNK N   1      31.552   9.685   8.436  0.00  0.00    -0.162 F 
HETATM   36  F   UNK N   1      32.803  10.651  10.022  0.00  0.00    -0.162 F 
ENDBRANCH  30  33
ENDBRANCH  24  29
BRANCH  25  37
HETATM   37  O   UNK N   1      36.257   6.696  10.990  0.00  0.00    -0.391 OA
HETATM   38  H   UNK N   1      35.738   5.929  11.280  0.00  0.00     0.210 HD
ENDBRANCH  25  37
ENDBRANCH  21  22
ENDBRANCH  17  21
BRANCH  11  39
HETATM   39  O   UNK N   1      35.364  11.991   9.005  0.00  0.00    -0.359 OA
HETATM   40  H   UNK N   1      36.193  11.554   9.012  0.00  0.00     0.217 HD
ENDBRANCH  11  39
BRANCH  19  41
HETATM   41  C   UNK N   1      36.442  13.987  15.112  0.00  0.00     0.185 C 
HETATM   42  O   UNK N   1      37.254  14.872  15.332  0.00  0.00    -0.292 OA
BRANCH  41  43
HETATM   43  C   UNK N   1      35.819  13.266  16.271  0.00  0.00     0.260 C 
BRANCH  43  44
HETATM   44  O   UNK N   1      36.172  11.933  16.190  0.00  0.00    -0.314 OA
BRANCH  44  45
HETATM   45  C   UNK N   1      35.268  10.924  16.202  0.00  0.00     0.259 C 
HETATM   46  O   UNK N   1      34.295  10.977  15.466  0.00  0.00    -0.265 OA
BRANCH  45  47
HETATM   47  C   UNK N   1      35.478   9.714  17.060  0.00  0.00     0.111 C 
BRANCH  47  48
HETATM   48  C   UNK N   1      34.819   9.926  18.412  0.00  0.00     0.009 C 
BRANCH  48  49
HETATM   49  C   UNK N   1      35.804  10.543  19.393  0.00  0.00    -0.004 C 
HETATM   50  C   UNK N   1      35.382  11.961  19.720  0.00  0.00     0.005 C 
ENDBRANCH  48  49
ENDBRANCH  47  48
ENDBRANCH  45  47
ENDBRANCH  44  45
ENDBRANCH  43  44
ENDBRANCH  41  43
ENDBRANCH  19  41
BRANCH  19  51
HETATM   51  O   UNK N   1      34.657  13.290  13.741  0.00  0.00    -0.382 OA
HETATM   52  H   UNK N   1      33.745  13.132  14.031  0.00  0.00     0.211 HD
ENDBRANCH  19  51
BRANCH  12  53
HETATM   53  O   UNK N   1      34.910  16.974  11.293  0.00  0.00    -0.359 OA
HETATM   54  H   UNK N   1      35.063  17.081  12.211  0.00  0.00     0.217 HD
ENDBRANCH  12  53
BRANCH   3  55
HETATM   55  O   UNK N   1      33.806  13.861   4.443  0.00  0.00    -0.355 OA
HETATM   56  C   UNK N   1      32.748  13.151   3.924  0.00  0.00     0.210 C 
ENDBRANCH   3  55
TORSDOF 16
ENDMDL
MODEL 3
REMARK VINA RESULT:      -7.9     10.662     15.366
REMARK  16 active torsions:
REMARK  status: ('A' for Active; 'I' for Inactive)
REMARK    1  A    between atoms: C_3  and  O_15 
REMARK    2  A    between atoms: C_11  and  O_18 
REMARK    3  A    between atoms: C_12  and  O_17 
REMARK    4  A    between atoms: C_21  and  O_31 
REMARK    5  A    between atoms: C_23  and  C_25 
REMARK    6  A    between atoms: C_23  and  O_30 
REMARK    7  A    between atoms: C_25  and  C_26 
REMARK    8  A    between atoms: C_26  and  O_28 
REMARK    9  A    between atoms: O_28  and  C_29 
REMARK   10  A    between atoms: C_29  and  C_33 
REMARK   11  A    between atoms: C_37  and  O_31 
REMARK   12  A    between atoms: C_33  and  C_34 
REMARK   13  A    between atoms: C_34  and  C_35 
REMARK   14  A    between atoms: C_39  and  N_45 
REMARK   15  A    between atoms: C_40  and  O_44 
REMARK       I    between atoms: N_45  and  C_46 
REMARK   16  A    between atoms: C_46  and  C_47 
ROOT
HETATM    1  C   UNK N   1      31.081  17.217   5.580  0.00  0.00     0.004 A 
HETATM    2  C   UNK N   1      30.590  17.400   6.868  0.00  0.00     0.038 A 
HETATM    3  C   UNK N   1      29.294  17.012   7.213  0.00  0.00     0.083 A 
HETATM    4  C   UNK N   1      30.279  16.634   4.609  0.00  0.00     0.017 A 
HETATM    5  C   UNK N   1      28.978  16.220   4.910  0.00  0.00     0.032 A 
HETATM    6  C   UNK N   1      28.463  16.390   6.221  0.00  0.00     0.062 A 
HETATM    7  C   UNK N   1      27.084  15.899   6.490  0.00  0.00     0.200 C 
HETATM    8  C   UNK N   1      28.146  15.627   3.837  0.00  0.00     0.197 C 
HETATM    9  C   UNK N   1      26.695  15.398   4.064  0.00  0.00     0.066 A 
HETATM   10  C   UNK N   1      26.172  15.569   5.364  0.00  0.00     0.066 A 
HETATM   11  C   UNK N   1      24.786  15.469   5.578  0.00  0.00     0.090 A 
HETATM   12  C   UNK N   1      25.826  15.062   3.003  0.00  0.00     0.088 A 
HETATM   13  O   UNK N   1      28.642  15.419   2.737  0.00  0.00    -0.286 OA
HETATM   14  O   UNK N   1      26.696  15.737   7.637  0.00  0.00    -0.286 OA
HETATM   15  C   UNK N   1      24.449  14.954   3.226  0.00  0.00    -0.009 A 
HETATM   16  C   UNK N   1      23.918  15.185   4.514  0.00  0.00     0.014 A 
HETATM   17  C   UNK N   1      22.414  15.212   4.727  0.00  0.00     0.164 C 
HETATM   18  C   UNK N   1      21.569  14.772   3.526  0.00  0.00     0.083 C 
HETATM   19  C   UNK N   1      22.314  13.868   2.541  0.00  0.00     0.127 C 
HETATM   20  C   UNK N   1      23.535  14.646   2.068  0.00  0.00     0.088 C 
ENDROOT
BRANCH  17  21
HETATM   21  O   UNK N   1      22.010  14.727   5.991  0.00  0.00    -0.351 OA
BRANCH  21  22
HETATM   22  C   UNK N   1      20.638  14.419   6.152  0.00  0.00     0.263 C 
HETATM   23  C   UNK N   1      20.576  13.152   7.007  0.00  0.00     0.088 C 
HETATM   24  C   UNK N   1      21.318  13.497   8.303  0.00  0.00     0.120 C 
HETATM   25  C   UNK N   1      20.664  14.671   9.024  0.00  0.00     0.169 C 
HETATM   26  C   UNK N   1      20.613  15.822   8.011  0.00  0.00     0.151 C 
HETATM   27  O   UNK N   1      19.924  15.447   6.830  0.00  0.00    -0.354 OA
HETATM   28  C   UNK N   1      19.988  17.068   8.608  0.00  0.00     0.042 C 
BRANCH  24  29
HETATM   29  N   UNK N   1      21.585  12.368   9.156  0.00  0.00    -0.346 N 
HETATM   30  C   UNK N   1      22.844  12.049   9.560  0.00  0.00     0.325 C 
HETATM   31  O   UNK N   1      22.997  11.133  10.351  0.00  0.00    -0.263 OA
HETATM   32  H   UNK N   1      20.831  11.810   9.458  0.00  0.00     0.163 HD
BRANCH  30  33
HETATM   33  C   UNK N   1      24.059  12.802   9.056  0.00  0.00     0.472 C 
HETATM   34  F   UNK N   1      23.951  14.147   9.361  0.00  0.00    -0.162 F 
HETATM   35  F   UNK N   1      25.213  12.309   9.637  0.00  0.00    -0.162 F 
HETATM   36  F   UNK N   1      24.169  12.647   7.686  0.00  0.00    -0.162 F 
ENDBRANCH  30  33
ENDBRANCH  24  29
BRANCH  25  37
HETATM   37  O   UNK N   1      19.377  14.329   9.448  0.00  0.00    -0.391 OA
HETATM   38  H   UNK N   1      18.595  13.956   9.011  0.00  0.00     0.210 HD
ENDBRANCH  25  37
ENDBRANCH  21  22
ENDBRANCH  17  21
BRANCH  11  39
HETATM   39  O   UNK N   1      24.280  15.693   6.807  0.00  0.00    -0.359 OA
HETATM   40  H   UNK N   1      23.472  15.297   7.070  0.00  0.00     0.217 HD
ENDBRANCH  11  39
BRANCH  19  41
HETATM   41  C   UNK N   1      21.427  13.493   1.378  0.00  0.00     0.185 C 
HETATM   42  O   UNK N   1      21.625  12.451   0.773  0.00  0.00    -0.292 OA
BRANCH  41  43
HETATM   43  C   UNK N   1      20.227  14.322   1.028  0.00  0.00     0.260 C 
BRANCH  43  44
HETATM   44  O   UNK N   1      20.669  15.525   0.514  0.00  0.00    -0.314 OA
BRANCH  44  45
HETATM   45  C   UNK N   1      19.888  16.629   0.432  0.00  0.00     0.259 C 
HETATM   46  O   UNK N   1      18.828  16.575  -0.172  0.00  0.00    -0.265 OA
BRANCH  45  47
HETATM   47  C   UNK N   1      20.276  17.898   1.128  0.00  0.00     0.111 C 
BRANCH  47  48
HETATM   48  C   UNK N   1      19.802  17.855   2.571  0.00  0.00     0.009 C 
BRANCH  48  49
HETATM   49  C   UNK N   1      20.515  18.916   3.396  0.00  0.00    -0.004 C 
HETATM   50  C   UNK N   1      22.001  18.627   3.428  0.00  0.00     0.005 C 
ENDBRANCH  48  49
ENDBRANCH  47  48
ENDBRANCH  45  47
ENDBRANCH  44  45
ENDBRANCH  43  44
ENDBRANCH  41  43
ENDBRANCH  19  41
BRANCH  19  51
HETATM   51  O   UNK N   1      22.723  12.691   3.175  0.00  0.00    -0.382 OA
HETATM   52  H   UNK N   1      22.769  11.770   3.477  0.00  0.00     0.211 HD
ENDBRANCH  19  51
BRANCH  12  53
HETATM   53  O   UNK N   1      26.305  14.880   1.756  0.00  0.00    -0.359 OA
HETATM   54  H   UNK N   1      27.189  15.114   1.550  0.00  0.00     0.217 HD
ENDBRANCH  12  53
BRANCH   3  55
HETATM   55  O   UNK N   1      28.903  17.285   8.487  0.00  0.00    -0.355 OA
HETATM   56  C   UNK N   1      28.511  18.521   8.945  0.00  0.00     0.210 C 
ENDBRANCH   3  55
TORSDOF 16
ENDMDL
MODEL 4
REMARK VINA RESULT:      -7.9      3.064      4.457
REMARK  16 active torsions:
REMARK  status: ('A' for Active; 'I' for Inactive)
REMARK    1  A    between atoms: C_3  and  O_15 
REMARK    2  A    between atoms: C_11  and  O_18 
REMARK    3  A    between atoms: C_12  and  O_17 
REMARK    4  A    between atoms: C_21  and  O_31 
REMARK    5  A    between atoms: C_23  and  C_25 
REMARK    6  A    between atoms: C_23  and  O_30 
REMARK    7  A    between atoms: C_25  and  C_26 
REMARK    8  A    between atoms: C_26  and  O_28 
REMARK    9  A    between atoms: O_28  and  C_29 
REMARK   10  A    between atoms: C_29  and  C_33 
REMARK   11  A    between atoms: C_37  and  O_31 
REMARK   12  A    between atoms: C_33  and  C_34 
REMARK   13  A    between atoms: C_34  and  C_35 
REMARK   14  A    between atoms: C_39  and  N_45 
REMARK   15  A    between atoms: C_40  and  O_44 
REMARK       I    between atoms: N_45  and  C_46 
REMARK   16  A    between atoms: C_46  and  C_47 
ROOT
HETATM    1  C   UNK N   1      27.103  18.125   4.448  0.00  0.00     0.004 A 
HETATM    2  C   UNK N   1      27.134  16.937   3.724  0.00  0.00     0.038 A 
HETATM    3  C   UNK N   1      28.010  15.904   4.063  0.00  0.00     0.083 A 
HETATM    4  C   UNK N   1      27.951  18.298   5.533  0.00  0.00     0.017 A 
HETATM    5  C   UNK N   1      28.837  17.287   5.916  0.00  0.00     0.032 A 
HETATM    6  C   UNK N   1      28.877  16.065   5.196  0.00  0.00     0.062 A 
HETATM    7  C   UNK N   1      29.817  15.014   5.671  0.00  0.00     0.200 C 
HETATM    8  C   UNK N   1      29.744  17.523   7.064  0.00  0.00     0.197 C 
HETATM    9  C   UNK N   1      30.850  16.570   7.344  0.00  0.00     0.066 A 
HETATM   10  C   UNK N   1      30.901  15.354   6.630  0.00  0.00     0.066 A 
HETATM   11  C   UNK N   1      31.999  14.491   6.797  0.00  0.00     0.090 A 
HETATM   12  C   UNK N   1      31.871  16.876   8.269  0.00  0.00     0.088 A 
HETATM   13  O   UNK N   1      29.633  18.554   7.715  0.00  0.00    -0.286 OA
HETATM   14  O   UNK N   1      29.691  13.856   5.301  0.00  0.00    -0.286 OA
HETATM   15  C   UNK N   1      32.956  16.008   8.437  0.00  0.00    -0.009 A 
HETATM   16  C   UNK N   1      33.038  14.820   7.678  0.00  0.00     0.014 A 
HETATM   17  C   UNK N   1      34.281  13.951   7.751  0.00  0.00     0.164 C 
HETATM   18  C   UNK N   1      35.297  14.341   8.832  0.00  0.00     0.083 C 
HETATM   19  C   UNK N   1      34.694  15.134   9.994  0.00  0.00     0.127 C 
HETATM   20  C   UNK N   1      34.060  16.381   9.392  0.00  0.00     0.088 C 
ENDROOT
BRANCH  17  21
HETATM   21  O   UNK N   1      34.019  12.570   7.604  0.00  0.00    -0.351 OA
BRANCH  21  22
HETATM   22  C   UNK N   1      34.837  11.855   6.698  0.00  0.00     0.263 C 
HETATM   23  C   UNK N   1      35.749  10.965   7.547  0.00  0.00     0.088 C 
HETATM   24  C   UNK N   1      34.805  10.100   8.389  0.00  0.00     0.120 C 
HETATM   25  C   UNK N   1      33.889   9.255   7.509  0.00  0.00     0.169 C 
HETATM   26  C   UNK N   1      33.168  10.236   6.576  0.00  0.00     0.151 C 
HETATM   27  O   UNK N   1      34.085  11.016   5.828  0.00  0.00    -0.354 OA
HETATM   28  C   UNK N   1      32.208   9.521   5.644  0.00  0.00     0.042 C 
BRANCH  24  29
HETATM   29  N   UNK N   1      35.455   9.353   9.434  0.00  0.00    -0.346 N 
HETATM   30  C   UNK N   1      35.017   9.382  10.722  0.00  0.00     0.325 C 
HETATM   31  O   UNK N   1      35.556   8.662  11.547  0.00  0.00    -0.263 OA
HETATM   32  H   UNK N   1      36.241   8.803   9.210  0.00  0.00     0.163 HD
BRANCH  30  33
HETATM   33  C   UNK N   1      33.879  10.282  11.158  0.00  0.00     0.472 C 
HETATM   34  F   UNK N   1      32.694   9.877  10.570  0.00  0.00    -0.162 F 
HETATM   35  F   UNK N   1      33.725  10.242  12.533  0.00  0.00    -0.162 F 
HETATM   36  F   UNK N   1      34.151  11.588  10.795  0.00  0.00    -0.162 F 
ENDBRANCH  30  33
ENDBRANCH  24  29
BRANCH  25  37
HETATM   37  O   UNK N   1      34.635   8.331   6.772  0.00  0.00    -0.391 OA
HETATM   38  H   UNK N   1      34.775   7.373   6.828  0.00  0.00     0.210 HD
ENDBRANCH  25  37
ENDBRANCH  21  22
ENDBRANCH  17  21
BRANCH  11  39
HETATM   39  O   UNK N   1      32.078  13.359   6.069  0.00  0.00    -0.359 OA
HETATM   40  H   UNK N   1      31.564  13.254   5.292  0.00  0.00     0.217 HD
ENDBRANCH  11  39
BRANCH  19  41
HETATM   41  C   UNK N   1      35.753  15.498  11.005  0.00  0.00     0.185 C 
HETATM   42  O   UNK N   1      36.585  16.351  10.735  0.00  0.00    -0.292 OA
BRANCH  41  43
HETATM   43  C   UNK N   1      35.728  14.916  12.387  0.00  0.00     0.260 C 
BRANCH  43  44
HETATM   44  O   UNK N   1      36.276  13.650  12.331  0.00  0.00    -0.314 OA
BRANCH  44  45
HETATM   45  C   UNK N   1      36.039  12.696  13.265  0.00  0.00     0.259 C 
HETATM   46  O   UNK N   1      36.701  11.670  13.261  0.00  0.00    -0.265 OA
BRANCH  45  47
HETATM   47  C   UNK N   1      35.019  12.911  14.341  0.00  0.00     0.111 C 
BRANCH  47  48
HETATM   48  C   UNK N   1      35.716  13.279  15.640  0.00  0.00     0.009 C 
BRANCH  48  49
HETATM   49  C   UNK N   1      35.052  12.580  16.816  0.00  0.00    -0.004 C 
HETATM   50  C   UNK N   1      35.178  13.438  18.059  0.00  0.00     0.005 C 
ENDBRANCH  48  49
ENDBRANCH  47  48
ENDBRANCH  45  47
ENDBRANCH  44  45
ENDBRANCH  43  44
ENDBRANCH  41  43
ENDBRANCH  19  41
BRANCH  19  51
HETATM   51  O   UNK N   1      33.713  14.375  10.642  0.00  0.00    -0.382 OA
HETATM   52  H   UNK N   1      32.916  14.117  11.130  0.00  0.00     0.211 HD
ENDBRANCH  19  51
BRANCH  12  53
HETATM   53  O   UNK N   1      31.836  18.026   8.973  0.00  0.00    -0.359 OA
HETATM   54  H   UNK N   1      32.580  18.296   9.475  0.00  0.00     0.217 HD
ENDBRANCH  12  53
BRANCH   3  55
HETATM   55  O   UNK N   1      27.989  14.809   3.256  0.00  0.00    -0.355 OA
HETATM   56  C   UNK N   1      28.516  14.754   1.987  0.00  0.00     0.210 C 
ENDBRANCH   3  55
TORSDOF 16
ENDMDL
MODEL 5
REMARK VINA RESULT:      -7.7      4.981      8.010
REMARK  16 active torsions:
REMARK  status: ('A' for Active; 'I' for Inactive)
REMARK    1  A    between atoms: C_3  and  O_15 
REMARK    2  A    between atoms: C_11  and  O_18 
REMARK    3  A    between atoms: C_12  and  O_17 
REMARK    4  A    between atoms: C_21  and  O_31 
REMARK    5  A    between atoms: C_23  and  C_25 
REMARK    6  A    between atoms: C_23  and  O_30 
REMARK    7  A    between atoms: C_25  and  C_26 
REMARK    8  A    between atoms: C_26  and  O_28 
REMARK    9  A    between atoms: O_28  and  C_29 
REMARK   10  A    between atoms: C_29  and  C_33 
REMARK   11  A    between atoms: C_37  and  O_31 
REMARK   12  A    between atoms: C_33  and  C_34 
REMARK   13  A    between atoms: C_34  and  C_35 
REMARK   14  A    between atoms: C_39  and  N_45 
REMARK   15  A    between atoms: C_40  and  O_44 
REMARK       I    between atoms: N_45  and  C_46 
REMARK   16  A    between atoms: C_46  and  C_47 
ROOT
HETATM    1  C   UNK N   1      26.300  21.135   6.816  0.00  0.00     0.004 A 
HETATM    2  C   UNK N   1      26.449  20.955   5.445  0.00  0.00     0.038 A 
HETATM    3  C   UNK N   1      27.306  19.980   4.930  0.00  0.00     0.083 A 
HETATM    4  C   UNK N   1      27.007  20.334   7.701  0.00  0.00     0.017 A 
HETATM    5  C   UNK N   1      27.868  19.337   7.232  0.00  0.00     0.032 A 
HETATM    6  C   UNK N   1      28.026  19.132   5.837  0.00  0.00     0.062 A 
HETATM    7  C   UNK N   1      28.931  18.035   5.399  0.00  0.00     0.200 C 
HETATM    8  C   UNK N   1      28.625  18.522   8.211  0.00  0.00     0.197 C 
HETATM    9  C   UNK N   1      29.715  17.625   7.745  0.00  0.00     0.066 A 
HETATM   10  C   UNK N   1      29.883  17.418   6.359  0.00  0.00     0.066 A 
HETATM   11  C   UNK N   1      30.977  16.666   5.893  0.00  0.00     0.090 A 
HETATM   12  C   UNK N   1      30.610  17.018   8.652  0.00  0.00     0.088 A 
HETATM   13  O   UNK N   1      28.410  18.666   9.408  0.00  0.00    -0.286 OA
HETATM   14  O   UNK N   1      28.882  17.611   4.254  0.00  0.00    -0.286 OA
HETATM   15  C   UNK N   1      31.690  16.262   8.181  0.00  0.00    -0.009 A 
HETATM   16  C   UNK N   1      31.894  16.106   6.793  0.00  0.00     0.014 A 
HETATM   17  C   UNK N   1      33.142  15.412   6.277  0.00  0.00     0.164 C 
HETATM   18  C   UNK N   1      34.011  14.736   7.345  0.00  0.00     0.083 C 
HETATM   19  C   UNK N   1      33.252  14.373   8.623  0.00  0.00     0.127 C 
HETATM   20  C   UNK N   1      32.662  15.668   9.167  0.00  0.00     0.088 C 
ENDROOT
BRANCH  17  21
HETATM   21  O   UNK N   1      32.937  14.686   5.082  0.00  0.00    -0.351 OA
BRANCH  21  22
HETATM   22  C   UNK N   1      33.742  13.539   4.882  0.00  0.00     0.263 C 
HETATM   23  C   UNK N   1      32.781  12.364   4.686  0.00  0.00     0.088 C 
HETATM   24  C   UNK N   1      31.900  12.753   3.493  0.00  0.00     0.120 C 
HETATM   25  C   UNK N   1      32.733  12.988   2.238  0.00  0.00     0.169 C 
HETATM   26  C   UNK N   1      33.780  14.047   2.610  0.00  0.00     0.151 C 
HETATM   27  O   UNK N   1      34.560  13.642   3.721  0.00  0.00    -0.354 OA
HETATM   28  C   UNK N   1      34.678  14.385   1.436  0.00  0.00     0.042 C 
BRANCH  24  29
HETATM   29  N   UNK N   1      30.766  11.890   3.283  0.00  0.00    -0.346 N 
HETATM   30  C   UNK N   1      29.493  12.297   3.538  0.00  0.00     0.325 C 
HETATM   31  O   UNK N   1      28.568  11.551   3.260  0.00  0.00    -0.263 OA
HETATM   32  H   UNK N   1      30.917  10.978   2.944  0.00  0.00     0.163 HD
BRANCH  30  33
HETATM   33  C   UNK N   1      29.194  13.648   4.154  0.00  0.00     0.472 C 
HETATM   34  F   UNK N   1      29.845  13.777   5.368  0.00  0.00    -0.162 F 
HETATM   35  F   UNK N   1      29.614  14.668   3.319  0.00  0.00    -0.162 F 
HETATM   36  F   UNK N   1      27.831  13.783   4.345  0.00  0.00    -0.162 F 
ENDBRANCH  30  33
ENDBRANCH  24  29
BRANCH  25  37
HETATM   37  O   UNK N   1      33.353  11.803   1.833  0.00  0.00    -0.391 OA
HETATM   38  H   UNK N   1      33.041  10.974   1.438  0.00  0.00     0.210 HD
ENDBRANCH  25  37
ENDBRANCH  21  22
ENDBRANCH  17  21
BRANCH  11  39
HETATM   39  O   UNK N   1      31.172  16.521   4.567  0.00  0.00    -0.359 OA
HETATM   40  H   UNK N   1      31.188  17.269   4.002  0.00  0.00     0.217 HD
ENDBRANCH  11  39
BRANCH  19  41
HETATM   41  C   UNK N   1      34.173  13.732   9.633  0.00  0.00     0.185 C 
HETATM   42  O   UNK N   1      34.421  12.539   9.558  0.00  0.00    -0.292 OA
BRANCH  41  43
HETATM   43  C   UNK N   1      34.889  14.563  10.656  0.00  0.00     0.260 C 
BRANCH  43  44
HETATM   44  O   UNK N   1      34.495  14.137  11.909  0.00  0.00    -0.314 OA
BRANCH  44  45
HETATM   45  C   UNK N   1      35.367  13.888  12.916  0.00  0.00     0.259 C 
HETATM   46  O   UNK N   1      36.319  14.633  13.087  0.00  0.00    -0.265 OA
BRANCH  45  47
HETATM   47  C   UNK N   1      35.144  12.748  13.862  0.00  0.00     0.111 C 
BRANCH  47  48
HETATM   48  C   UNK N   1      35.964  12.963  15.124  0.00  0.00     0.009 C 
BRANCH  48  49
HETATM   49  C   UNK N   1      35.051  13.102  16.333  0.00  0.00    -0.004 C 
HETATM   50  C   UNK N   1      35.245  11.918  17.259  0.00  0.00     0.005 C 
ENDBRANCH  48  49
ENDBRANCH  47  48
ENDBRANCH  45  47
ENDBRANCH  44  45
ENDBRANCH  43  44
ENDBRANCH  41  43
ENDBRANCH  19  41
BRANCH  19  51
HETATM   51  O   UNK N   1      32.222  13.471   8.337  0.00  0.00    -0.382 OA
HETATM   52  H   UNK N   1      31.514  12.990   7.883  0.00  0.00     0.211 HD
ENDBRANCH  19  51
BRANCH  12  53
HETATM   53  O   UNK N   1      30.460  17.190   9.981  0.00  0.00    -0.359 OA
HETATM   54  H   UNK N   1      31.171  17.010  10.564  0.00  0.00     0.217 HD
ENDBRANCH  12  53
BRANCH   3  55
HETATM   55  O   UNK N   1      27.411  19.927   3.575  0.00  0.00    -0.355 OA
HETATM   56  C   UNK N   1      26.506  20.468   2.691  0.00  0.00     0.210 C 
ENDBRANCH   3  55
TORSDOF 16
ENDMDL
MODEL 6
REMARK VINA RESULT:      -7.5     10.011     14.932
REMARK  16 active torsions:
REMARK  status: ('A' for Active; 'I' for Inactive)
REMARK    1  A    between atoms: C_3  and  O_15 
REMARK    2  A    between atoms: C_11  and  O_18 
REMARK    3  A    between atoms: C_12  and  O_17 
REMARK    4  A    between atoms: C_21  and  O_31 
REMARK    5  A    between atoms: C_23  and  C_25 
REMARK    6  A    between atoms: C_23  and  O_30 
REMARK    7  A    between atoms: C_25  and  C_26 
REMARK    8  A    between atoms: C_26  and  O_28 
REMARK    9  A    between atoms: O_28  and  C_29 
REMARK   10  A    between atoms: C_29  and  C_33 
REMARK   11  A    between atoms: C_37  and  O_31 
REMARK   12  A    between atoms: C_33  and  C_34 
REMARK   13  A    between atoms: C_34  and  C_35 
REMARK   14  A    between atoms: C_39  and  N_45 
REMARK   15  A    between atoms: C_40  and  O_44 
REMARK       I    between atoms: N_45  and  C_46 
REMARK   16  A    between atoms: C_46  and  C_47 
ROOT
HETATM    1  C   UNK N   1      31.434  16.914   5.606  0.00  0.00     0.004 A 
HETATM    2  C   UNK N   1      30.908  17.222   6.856  0.00  0.00     0.038 A 
HETATM    3  C   UNK N   1      29.560  17.005   7.149  0.00  0.00     0.083 A 
HETATM    4  C   UNK N   1      30.616  16.376   4.622  0.00  0.00     0.017 A 
HETATM    5  C   UNK N   1      29.263  16.132   4.874  0.00  0.00     0.032 A 
HETATM    6  C   UNK N   1      28.710  16.431   6.145  0.00  0.00     0.062 A 
HETATM    7  C   UNK N   1      27.271  16.118   6.363  0.00  0.00     0.200 C 
HETATM    8  C   UNK N   1      28.418  15.582   3.787  0.00  0.00     0.197 C 
HETATM    9  C   UNK N   1      26.941  15.535   3.947  0.00  0.00     0.066 A 
HETATM   10  C   UNK N   1      26.381  15.835   5.208  0.00  0.00     0.066 A 
HETATM   11  C   UNK N   1      24.984  15.907   5.352  0.00  0.00     0.090 A 
HETATM   12  C   UNK N   1      26.089  15.245   2.859  0.00  0.00     0.088 A 
HETATM   13  O   UNK N   1      28.937  15.260   2.726  0.00  0.00    -0.286 OA
HETATM   14  O   UNK N   1      26.813  16.063   7.495  0.00  0.00    -0.286 OA
HETATM   15  C   UNK N   1      24.700  15.309   3.013  0.00  0.00    -0.009 A 
HETATM   16  C   UNK N   1      24.140  15.669   4.258  0.00  0.00     0.014 A 
HETATM   17  C   UNK N   1      22.642  15.881   4.390  0.00  0.00     0.164 C 
HETATM   18  C   UNK N   1      21.808  15.477   3.168  0.00  0.00     0.083 C 
HETATM   19  C   UNK N   1      22.487  14.442   2.268  0.00  0.00     0.127 C 
HETATM   20  C   UNK N   1      23.812  15.047   1.824  0.00  0.00     0.088 C 
ENDROOT
BRANCH  17  21
HETATM   21  O   UNK N   1      22.124  15.514   5.652  0.00  0.00    -0.351 OA
BRANCH  21  22
HETATM   22  C   UNK N   1      20.732  15.272   5.729  0.00  0.00     0.263 C 
HETATM   23  C   UNK N   1      20.563  13.952   6.484  0.00  0.00     0.088 C 
HETATM   24  C   UNK N   1      21.259  14.162   7.833  0.00  0.00     0.120 C 
HETATM   25  C   UNK N   1      20.633  15.315   8.610  0.00  0.00     0.169 C 
HETATM   26  C   UNK N   1      20.689  16.537   7.684  0.00  0.00     0.151 C 
HETATM   27  O   UNK N   1      20.040  16.286   6.450  0.00  0.00    -0.354 OA
HETATM   28  C   UNK N   1      20.102  17.769   8.344  0.00  0.00     0.042 C 
BRANCH  24  29
HETATM   29  N   UNK N   1      21.425  12.961   8.611  0.00  0.00    -0.346 N 
HETATM   30  C   UNK N   1      22.626  12.329   8.715  0.00  0.00     0.325 C 
HETATM   31  O   UNK N   1      22.724  11.365   9.457  0.00  0.00    -0.263 OA
HETATM   32  H   UNK N   1      20.646  12.586   9.083  0.00  0.00     0.163 HD
BRANCH  30  33
HETATM   33  C   UNK N   1      23.842  12.790   7.938  0.00  0.00     0.472 C 
HETATM   34  F   UNK N   1      23.552  12.857   6.587  0.00  0.00    -0.162 F 
HETATM   35  F   UNK N   1      24.245  14.044   8.364  0.00  0.00    -0.162 F 
HETATM   36  F   UNK N   1      24.888  11.910   8.142  0.00  0.00    -0.162 F 
ENDBRANCH  30  33
ENDBRANCH  24  29
BRANCH  25  37
HETATM   37  O   UNK N   1      19.311  15.014   8.950  0.00  0.00    -0.391 OA
HETATM   38  H   UNK N   1      18.854  14.216   9.258  0.00  0.00     0.210 HD
ENDBRANCH  25  37
ENDBRANCH  21  22
ENDBRANCH  17  21
BRANCH  11  39
HETATM   39  O   UNK N   1      24.450  16.254   6.540  0.00  0.00    -0.359 OA
HETATM   40  H   UNK N   1      24.726  15.830   7.329  0.00  0.00     0.217 HD
ENDBRANCH  11  39
BRANCH  19  41
HETATM   41  C   UNK N   1      21.618  14.110   1.079  0.00  0.00     0.185 C 
HETATM   42  O   UNK N   1      20.983  14.993   0.523  0.00  0.00    -0.292 OA
BRANCH  41  43
HETATM   43  C   UNK N   1      21.616  12.730   0.491  0.00  0.00     0.260 C 
BRANCH  43  44
HETATM   44  O   UNK N   1      22.895  12.445   0.055  0.00  0.00    -0.314 OA
BRANCH  44  45
HETATM   45  C   UNK N   1      23.443  11.207   0.123  0.00  0.00     0.259 C 
HETATM   46  O   UNK N   1      23.218  10.399  -0.765  0.00  0.00    -0.265 OA
BRANCH  45  47
HETATM   47  C   UNK N   1      24.372  10.838   1.238  0.00  0.00     0.111 C 
BRANCH  47  48
HETATM   48  C   UNK N   1      25.667  11.623   1.106  0.00  0.00     0.009 C 
BRANCH  48  49
HETATM   49  C   UNK N   1      26.488  11.513   2.381  0.00  0.00    -0.004 C 
HETATM   50  C   UNK N   1      25.567  11.504   3.584  0.00  0.00     0.005 C 
ENDBRANCH  48  49
ENDBRANCH  47  48
ENDBRANCH  45  47
ENDBRANCH  44  45
ENDBRANCH  43  44
ENDBRANCH  41  43
ENDBRANCH  19  41
BRANCH  19  51
HETATM   51  O   UNK N   1      22.724  13.261   2.979  0.00  0.00    -0.382 OA
HETATM   52  H   UNK N   1      22.989  12.357   3.209  0.00  0.00     0.211 HD
ENDBRANCH  19  51
BRANCH  12  53
HETATM   53  O   UNK N   1      26.602  14.942   1.650  0.00  0.00    -0.359 OA
HETATM   54  H   UNK N   1      26.176  15.235   0.868  0.00  0.00     0.217 HD
ENDBRANCH  12  53
BRANCH   3  55
HETATM   55  O   UNK N   1      29.145  17.389   8.386  0.00  0.00    -0.355 OA
HETATM   56  C   UNK N   1      29.899  18.108   9.285  0.00  0.00     0.210 C 
ENDBRANCH   3  55
TORSDOF 16
ENDMDL
MODEL 7
REMARK VINA RESULT:      -7.5      8.775     12.853
REMARK  16 active torsions:
REMARK  status: ('A' for Active; 'I' for Inactive)
REMARK    1  A    between atoms: C_3  and  O_15 
REMARK    2  A    between atoms: C_11  and  O_18 
REMARK    3  A    between atoms: C_12  and  O_17 
REMARK    4  A    between atoms: C_21  and  O_31 
REMARK    5  A    between atoms: C_23  and  C_25 
REMARK    6  A    between atoms: C_23  and  O_30 
REMARK    7  A    between atoms: C_25  and  C_26 
REMARK    8  A    between atoms: C_26  and  O_28 
REMARK    9  A    between atoms: O_28  and  C_29 
REMARK   10  A    between atoms: C_29  and  C_33 
REMARK   11  A    between atoms: C_37  and  O_31 
REMARK   12  A    between atoms: C_33  and  C_34 
REMARK   13  A    between atoms: C_34  and  C_35 
REMARK   14  A    between atoms: C_39  and  N_45 
REMARK   15  A    between atoms: C_40  and  O_44 
REMARK       I    between atoms: N_45  and  C_46 
REMARK   16  A    between atoms: C_46  and  C_47 
ROOT
HETATM    1  C   UNK N   1      19.273  14.212   0.957  0.00  0.00     0.004 A 
HETATM    2  C   UNK N   1      20.122  13.217   0.484  0.00  0.00     0.038 A 
HETATM    3  C   UNK N   1      21.472  13.185   0.840  0.00  0.00     0.083 A 
HETATM    4  C   UNK N   1      19.764  15.197   1.802  0.00  0.00     0.017 A 
HETATM    5  C   UNK N   1      21.106  15.200   2.193  0.00  0.00     0.032 A 
HETATM    6  C   UNK N   1      21.984  14.188   1.729  0.00  0.00     0.062 A 
HETATM    7  C   UNK N   1      23.394  14.226   2.206  0.00  0.00     0.200 C 
HETATM    8  C   UNK N   1      21.595  16.286   3.076  0.00  0.00     0.197 C 
HETATM    9  C   UNK N   1      23.053  16.450   3.313  0.00  0.00     0.066 A 
HETATM   10  C   UNK N   1      23.936  15.450   2.852  0.00  0.00     0.066 A 
HETATM   11  C   UNK N   1      25.325  15.638   2.965  0.00  0.00     0.090 A 
HETATM   12  C   UNK N   1      23.574  17.599   3.946  0.00  0.00     0.088 A 
HETATM   13  O   UNK N   1      20.798  17.101   3.525  0.00  0.00    -0.286 OA
HETATM   14  O   UNK N   1      24.111  13.242   2.098  0.00  0.00    -0.286 OA
HETATM   15  C   UNK N   1      24.957  17.774   4.064  0.00  0.00    -0.009 A 
HETATM   16  C   UNK N   1      25.842  16.804   3.547  0.00  0.00     0.014 A 
HETATM   17  C   UNK N   1      27.339  17.059   3.543  0.00  0.00     0.164 C 
HETATM   18  C   UNK N   1      27.798  18.305   4.310  0.00  0.00     0.083 C 
HETATM   19  C   UNK N   1      26.818  18.765   5.391  0.00  0.00     0.127 C 
HETATM   20  C   UNK N   1      25.491  19.034   4.695  0.00  0.00     0.088 C 
ENDROOT
BRANCH  17  21
HETATM   21  O   UNK N   1      28.116  15.892   3.719  0.00  0.00    -0.351 OA
BRANCH  21  22
HETATM   22  C   UNK N   1      28.360  15.477   5.050  0.00  0.00     0.263 C 
HETATM   23  C   UNK N   1      28.194  13.956   5.066  0.00  0.00     0.088 C 
HETATM   24  C   UNK N   1      29.192  13.426   4.031  0.00  0.00     0.120 C 
HETATM   25  C   UNK N   1      30.623  13.820   4.382  0.00  0.00     0.169 C 
HETATM   26  C   UNK N   1      30.624  15.348   4.523  0.00  0.00     0.151 C 
HETATM   27  O   UNK N   1      29.680  15.784   5.485  0.00  0.00    -0.354 OA
HETATM   28  C   UNK N   1      32.003  15.879   4.865  0.00  0.00     0.042 C 
BRANCH  24  29
HETATM   29  N   UNK N   1      29.037  12.030   3.713  0.00  0.00    -0.346 N 
HETATM   30  C   UNK N   1      29.243  11.548   2.457  0.00  0.00     0.325 C 
HETATM   31  O   UNK N   1      29.179  10.344   2.268  0.00  0.00    -0.263 OA
HETATM   32  H   UNK N   1      28.775  11.405   4.427  0.00  0.00     0.163 HD
BRANCH  30  33
HETATM   33  C   UNK N   1      29.550  12.465   1.290  0.00  0.00     0.472 C 
HETATM   34  F   UNK N   1      29.240  11.841   0.095  0.00  0.00    -0.162 F 
HETATM   35  F   UNK N   1      28.814  13.633   1.382  0.00  0.00    -0.162 F 
HETATM   36  F   UNK N   1      30.891  12.800   1.301  0.00  0.00    -0.162 F 
ENDBRANCH  30  33
ENDBRANCH  24  29
BRANCH  25  37
HETATM   37  O   UNK N   1      31.017  13.214   5.578  0.00  0.00    -0.391 OA
HETATM   38  H   UNK N   1      30.567  12.998   6.410  0.00  0.00     0.210 HD
ENDBRANCH  25  37
ENDBRANCH  21  22
ENDBRANCH  17  21
BRANCH  11  39
HETATM   39  O   UNK N   1      26.169  14.712   2.468  0.00  0.00    -0.359 OA
HETATM   40  H   UNK N   1      27.086  14.751   2.658  0.00  0.00     0.217 HD
ENDBRANCH  11  39
BRANCH  19  41
HETATM   41  C   UNK N   1      27.326  20.004   6.087  0.00  0.00     0.185 C 
HETATM   42  O   UNK N   1      27.406  21.057   5.474  0.00  0.00    -0.292 OA
BRANCH  41  43
HETATM   43  C   UNK N   1      27.620  19.993   7.558  0.00  0.00     0.260 C 
BRANCH  43  44
HETATM   44  O   UNK N   1      28.564  19.015   7.802  0.00  0.00    -0.314 OA
BRANCH  44  45
HETATM   45  C   UNK N   1      28.627  18.317   8.962  0.00  0.00     0.259 C 
HETATM   46  O   UNK N   1      27.613  17.813   9.417  0.00  0.00    -0.265 OA
BRANCH  45  47
HETATM   47  C   UNK N   1      29.935  18.101   9.659  0.00  0.00     0.111 C 
BRANCH  47  48
HETATM   48  C   UNK N   1      31.068  18.631   8.796  0.00  0.00     0.009 C 
BRANCH  48  49
HETATM   49  C   UNK N   1      31.988  17.496   8.371  0.00  0.00    -0.004 C 
HETATM   50  C   UNK N   1      33.378  18.038   8.105  0.00  0.00     0.005 C 
ENDBRANCH  48  49
ENDBRANCH  47  48
ENDBRANCH  45  47
ENDBRANCH  44  45
ENDBRANCH  43  44
ENDBRANCH  41  43
ENDBRANCH  19  41
BRANCH  19  51
HETATM   51  O   UNK N   1      26.650  17.762   6.352  0.00  0.00    -0.382 OA
HETATM   52  H   UNK N   1      26.275  17.205   7.052  0.00  0.00     0.211 HD
ENDBRANCH  19  51
BRANCH  12  53
HETATM   53  O   UNK N   1      22.749  18.560   4.408  0.00  0.00    -0.359 OA
HETATM   54  H   UNK N   1      21.922  18.333   4.786  0.00  0.00     0.217 HD
ENDBRANCH  12  53
BRANCH   3  55
HETATM   55  O   UNK N   1      22.218  12.196   0.278  0.00  0.00    -0.355 OA
HETATM   56  C   UNK N   1      22.070  10.853   0.535  0.00  0.00     0.210 C 
ENDBRANCH   3  55
TORSDOF 16
ENDMDL
MODEL 8
REMARK VINA RESULT:      -7.3      5.100      9.436
REMARK  16 active torsions:
REMARK  status: ('A' for Active; 'I' for Inactive)
REMARK    1  A    between atoms: C_3  and  O_15 
REMARK    2  A    between atoms: C_11  and  O_18 
REMARK    3  A    between atoms: C_12  and  O_17 
REMARK    4  A    between atoms: C_21  and  O_31 
REMARK    5  A    between atoms: C_23  and  C_25 
REMARK    6  A    between atoms: C_23  and  O_30 
REMARK    7  A    between atoms: C_25  and  C_26 
REMARK    8  A    between atoms: C_26  and  O_28 
REMARK    9  A    between atoms: O_28  and  C_29 
REMARK   10  A    between atoms: C_29  and  C_33 
REMARK   11  A    between atoms: C_37  and  O_31 
REMARK   12  A    between atoms: C_33  and  C_34 
REMARK   13  A    between atoms: C_34  and  C_35 
REMARK   14  A    between atoms: C_39  and  N_45 
REMARK   15  A    between atoms: C_40  and  O_44 
REMARK       I    between atoms: N_45  and  C_46 
REMARK   16  A    between atoms: C_46  and  C_47 
ROOT
HETATM    1  C   UNK N   1      39.647  10.952   1.253  0.00  0.00     0.004 A 
HETATM    2  C   UNK N   1      40.291  11.119   2.474  0.00  0.00     0.038 A 
HETATM    3  C   UNK N   1      39.652  11.734   3.553  0.00  0.00     0.083 A 
HETATM    4  C   UNK N   1      38.343  11.398   1.090  0.00  0.00     0.017 A 
HETATM    5  C   UNK N   1      37.661  12.011   2.144  0.00  0.00     0.032 A 
HETATM    6  C   UNK N   1      38.297  12.181   3.401  0.00  0.00     0.062 A 
HETATM    7  C   UNK N   1      37.508  12.810   4.495  0.00  0.00     0.200 C 
HETATM    8  C   UNK N   1      36.278  12.497   1.920  0.00  0.00     0.197 C 
HETATM    9  C   UNK N   1      35.619  13.356   2.939  0.00  0.00     0.066 A 
HETATM   10  C   UNK N   1      36.247  13.535   4.190  0.00  0.00     0.066 A 
HETATM   11  C   UNK N   1      35.699  14.432   5.125  0.00  0.00     0.090 A 
HETATM   12  C   UNK N   1      34.410  14.030   2.665  0.00  0.00     0.088 A 
HETATM   13  O   UNK N   1      35.726  12.266   0.852  0.00  0.00    -0.286 OA
HETATM   14  O   UNK N   1      37.873  12.713   5.657  0.00  0.00    -0.286 OA
HETATM   15  C   UNK N   1      33.865  14.913   3.604  0.00  0.00    -0.009 A 
HETATM   16  C   UNK N   1      34.525  15.140   4.831  0.00  0.00     0.014 A 
HETATM   17  C   UNK N   1      34.016  16.204   5.788  0.00  0.00     0.164 C 
HETATM   18  C   UNK N   1      32.664  16.828   5.422  0.00  0.00     0.083 C 
HETATM   19  C   UNK N   1      31.793  15.943   4.528  0.00  0.00     0.127 C 
HETATM   20  C   UNK N   1      32.601  15.662   3.268  0.00  0.00     0.088 C 
ENDROOT
BRANCH  17  21
HETATM   21  O   UNK N   1      34.213  15.885   7.150  0.00  0.00    -0.351 OA
BRANCH  21  22
HETATM   22  C   UNK N   1      33.273  16.404   8.073  0.00  0.00     0.263 C 
HETATM   23  C   UNK N   1      32.367  15.237   8.471  0.00  0.00     0.088 C 
HETATM   24  C   UNK N   1      33.306  14.166   9.036  0.00  0.00     0.120 C 
HETATM   25  C   UNK N   1      34.083  14.685  10.242  0.00  0.00     0.169 C 
HETATM   26  C   UNK N   1      34.801  15.957   9.774  0.00  0.00     0.151 C 
HETATM   27  O   UNK N   1      33.889  16.909   9.253  0.00  0.00    -0.354 OA
HETATM   28  C   UNK N   1      35.626  16.577  10.884  0.00  0.00     0.042 C 
BRANCH  24  29
HETATM   29  N   UNK N   1      32.686  12.884   9.255  0.00  0.00    -0.346 N 
HETATM   30  C   UNK N   1      33.084  11.766   8.588  0.00  0.00     0.325 C 
HETATM   31  O   UNK N   1      32.578  10.694   8.878  0.00  0.00    -0.263 OA
HETATM   32  H   UNK N   1      31.952  12.814   9.907  0.00  0.00     0.163 HD
BRANCH  30  33
HETATM   33  C   UNK N   1      34.137  11.818   7.500  0.00  0.00     0.472 C 
HETATM   34  F   UNK N   1      33.663  12.517   6.404  0.00  0.00    -0.162 F 
HETATM   35  F   UNK N   1      35.282  12.445   7.960  0.00  0.00    -0.162 F 
HETATM   36  F   UNK N   1      34.476  10.534   7.117  0.00  0.00    -0.162 F 
ENDBRANCH  30  33
ENDBRANCH  24  29
BRANCH  25  37
HETATM   37  O   UNK N   1      33.213  14.969  11.298  0.00  0.00    -0.391 OA
HETATM   38  H   UNK N   1      32.266  14.827  11.455  0.00  0.00     0.210 HD
ENDBRANCH  25  37
ENDBRANCH  21  22
ENDBRANCH  17  21
BRANCH  11  39
HETATM   39  O   UNK N   1      36.332  14.649   6.295  0.00  0.00    -0.359 OA
HETATM   40  H   UNK N   1      36.422  13.960   6.924  0.00  0.00     0.217 HD
ENDBRANCH  11  39
BRANCH  19  41
HETATM   41  C   UNK N   1      30.491  16.630   4.194  0.00  0.00     0.185 C 
HETATM   42  O   UNK N   1      29.804  16.217   3.273  0.00  0.00    -0.292 OA
BRANCH  41  43
HETATM   43  C   UNK N   1      29.965  17.739   5.056  0.00  0.00     0.260 C 
BRANCH  43  44
HETATM   44  O   UNK N   1      28.609  17.544   5.229  0.00  0.00    -0.314 OA
BRANCH  44  45
HETATM   45  C   UNK N   1      27.800  18.451   5.829  0.00  0.00     0.259 C 
HETATM   46  O   UNK N   1      26.776  18.809   5.269  0.00  0.00    -0.265 OA
BRANCH  45  47
HETATM   47  C   UNK N   1      28.111  18.971   7.199  0.00  0.00     0.111 C 
BRANCH  47  48
HETATM   48  C   UNK N   1      28.132  17.819   8.190  0.00  0.00     0.009 C 
BRANCH  48  49
HETATM   49  C   UNK N   1      28.936  18.195   9.426  0.00  0.00    -0.004 C 
HETATM   50  C   UNK N   1      30.347  18.571   9.023  0.00  0.00     0.005 C 
ENDBRANCH  48  49
ENDBRANCH  47  48
ENDBRANCH  45  47
ENDBRANCH  44  45
ENDBRANCH  43  44
ENDBRANCH  41  43
ENDBRANCH  19  41
BRANCH  19  51
HETATM   51  O   UNK N   1      31.499  14.738   5.175  0.00  0.00    -0.382 OA
HETATM   52  H   UNK N   1      31.288  14.082   5.857  0.00  0.00     0.211 HD
ENDBRANCH  19  51
BRANCH  12  53
HETATM   53  O   UNK N   1      33.785  13.863   1.482  0.00  0.00    -0.359 OA
HETATM   54  H   UNK N   1      33.366  13.050   1.279  0.00  0.00     0.217 HD
ENDBRANCH  12  53
BRANCH   3  55
HETATM   55  O   UNK N   1      40.395  11.888   4.683  0.00  0.00    -0.355 OA
HETATM   56  C   UNK N   1      41.427  12.785   4.833  0.00  0.00     0.210 C 
ENDBRANCH   3  55
TORSDOF 16
ENDMDL
MODEL 9
REMARK VINA RESULT:      -7.3      9.862     14.975
REMARK  16 active torsions:
REMARK  status: ('A' for Active; 'I' for Inactive)
REMARK    1  A    between atoms: C_3  and  O_15 
REMARK    2  A    between atoms: C_11  and  O_18 
REMARK    3  A    between atoms: C_12  and  O_17 
REMARK    4  A    between atoms: C_21  and  O_31 
REMARK    5  A    between atoms: C_23  and  C_25 
REMARK    6  A    between atoms: C_23  and  O_30 
REMARK    7  A    between atoms: C_25  and  C_26 
REMARK    8  A    between atoms: C_26  and  O_28 
REMARK    9  A    between atoms: O_28  and  C_29 
REMARK   10  A    between atoms: C_29  and  C_33 
REMARK   11  A    between atoms: C_37  and  O_31 
REMARK   12  A    between atoms: C_33  and  C_34 
REMARK   13  A    between atoms: C_34  and  C_35 
REMARK   14  A    between atoms: C_39  and  N_45 
REMARK   15  A    between atoms: C_40  and  O_44 
REMARK       I    between atoms: N_45  and  C_46 
REMARK   16  A    between atoms: C_46  and  C_47 
ROOT
HETATM    1  C   UNK N   1      32.316  16.998   6.845  0.00  0.00     0.004 A 
HETATM    2  C   UNK N   1      31.493  17.720   7.702  0.00  0.00     0.038 A 
HETATM    3  C   UNK N   1      30.105  17.566   7.676  0.00  0.00     0.083 A 
HETATM    4  C   UNK N   1      31.762  16.102   5.942  0.00  0.00     0.017 A 
HETATM    5  C   UNK N   1      30.379  15.907   5.886  0.00  0.00     0.032 A 
HETATM    6  C   UNK N   1      29.523  16.627   6.759  0.00  0.00     0.062 A 
HETATM    7  C   UNK N   1      28.062  16.352   6.676  0.00  0.00     0.200 C 
HETATM    8  C   UNK N   1      29.826  14.960   4.889  0.00  0.00     0.197 C 
HETATM    9  C   UNK N   1      28.360  14.910   4.646  0.00  0.00     0.066 A 
HETATM   10  C   UNK N   1      27.500  15.626   5.508  0.00  0.00     0.066 A 
HETATM   11  C   UNK N   1      26.123  15.685   5.229  0.00  0.00     0.090 A 
HETATM   12  C   UNK N   1      27.816  14.204   3.551  0.00  0.00     0.088 A 
HETATM   13  O   UNK N   1      30.591  14.295   4.203  0.00  0.00    -0.286 OA
HETATM   14  O   UNK N   1      27.314  16.696   7.579  0.00  0.00    -0.286 OA
HETATM   15  C   UNK N   1      26.443  14.259   3.287  0.00  0.00    -0.009 A 
HETATM   16  C   UNK N   1      25.592  15.025   4.112  0.00  0.00     0.014 A 
HETATM   17  C   UNK N   1      24.129  15.204   3.745  0.00  0.00     0.164 C 
HETATM   18  C   UNK N   1      23.632  14.344   2.576  0.00  0.00     0.083 C 
HETATM   19  C   UNK N   1      24.464  13.082   2.336  0.00  0.00     0.127 C 
HETATM   20  C   UNK N   1      25.894  13.540   2.082  0.00  0.00     0.088 C 
ENDROOT
BRANCH  17  21
HETATM   21  O   UNK N   1      23.269  15.303   4.861  0.00  0.00    -0.351 OA
BRANCH  21  22
HETATM   22  C   UNK N   1      21.878  15.249   4.607  0.00  0.00     0.263 C 
HETATM   23  C   UNK N   1      21.323  14.121   5.479  0.00  0.00     0.088 C 
HETATM   24  C   UNK N   1      21.704  14.490   6.917  0.00  0.00     0.120 C 
HETATM   25  C   UNK N   1      21.109  15.834   7.324  0.00  0.00     0.169 C 
HETATM   26  C   UNK N   1      21.582  16.848   6.274  0.00  0.00     0.151 C 
HETATM   27  O   UNK N   1      21.210  16.455   4.964  0.00  0.00    -0.354 OA
HETATM   28  C   UNK N   1      21.063  18.242   6.568  0.00  0.00     0.042 C 
BRANCH  24  29
HETATM   29  N   UNK N   1      21.484  13.443   7.880  0.00  0.00    -0.346 N 
HETATM   30  C   UNK N   1      22.509  12.717   8.405  0.00  0.00     0.325 C 
HETATM   31  O   UNK N   1      22.268  11.901   9.280  0.00  0.00    -0.263 OA
HETATM   32  H   UNK N   1      20.563  13.245   8.168  0.00  0.00     0.163 HD
BRANCH  30  33
HETATM   33  C   UNK N   1      23.938  12.898   7.935  0.00  0.00     0.472 C 
HETATM   34  F   UNK N   1      24.067  12.485   6.621  0.00  0.00    -0.162 F 
HETATM   35  F   UNK N   1      24.314  14.226   8.019  0.00  0.00    -0.162 F 
HETATM   36  F   UNK N   1      24.789  12.159   8.736  0.00  0.00    -0.162 F 
ENDBRANCH  30  33
ENDBRANCH  24  29
BRANCH  25  37
HETATM   37  O   UNK N   1      19.713  15.763   7.348  0.00  0.00    -0.391 OA
HETATM   38  H   UNK N   1      19.067  15.057   7.189  0.00  0.00     0.210 HD
ENDBRANCH  25  37
ENDBRANCH  21  22
ENDBRANCH  17  21
BRANCH  11  39
HETATM   39  O   UNK N   1      25.312  16.419   6.016  0.00  0.00    -0.359 OA
HETATM   40  H   UNK N   1      25.320  16.307   6.947  0.00  0.00     0.217 HD
ENDBRANCH  11  39
BRANCH  19  41
HETATM   41  C   UNK N   1      23.929  12.299   1.162  0.00  0.00     0.185 C 
HETATM   42  O   UNK N   1      24.009  12.762   0.035  0.00  0.00    -0.292 OA
BRANCH  41  43
HETATM   43  C   UNK N   1      23.408  10.904   1.342  0.00  0.00     0.260 C 
BRANCH  43  44
HETATM   44  O   UNK N   1      22.192  10.978   1.993  0.00  0.00    -0.314 OA
BRANCH  44  45
HETATM   45  C   UNK N   1      21.048  11.376   1.384  0.00  0.00     0.259 C 
HETATM   46  O   UNK N   1      20.587  10.707   0.473  0.00  0.00    -0.265 OA
BRANCH  45  47
HETATM   47  C   UNK N   1      20.308  12.589   1.856  0.00  0.00     0.111 C 
BRANCH  47  48
HETATM   48  C   UNK N   1      20.420  13.692   0.817  0.00  0.00     0.009 C 
BRANCH  48  49
HETATM   49  C   UNK N   1      19.068  14.354   0.596  0.00  0.00    -0.004 C 
HETATM   50  C   UNK N   1      18.024  13.298   0.296  0.00  0.00     0.005 C 
ENDBRANCH  48  49
ENDBRANCH  47  48
ENDBRANCH  45  47
ENDBRANCH  44  45
ENDBRANCH  43  44
ENDBRANCH  41  43
ENDBRANCH  19  41
BRANCH  19  51
HETATM   51  O   UNK N   1      24.429  12.256   3.465  0.00  0.00    -0.382 OA
HETATM   52  H   UNK N   1      24.132  11.635   4.148  0.00  0.00     0.211 HD
ENDBRANCH  19  51
BRANCH  12  53
HETATM   53  O   UNK N   1      28.616  13.502   2.724  0.00  0.00    -0.359 OA
HETATM   54  H   UNK N   1      29.538  13.669   2.702  0.00  0.00     0.217 HD
ENDBRANCH  12  53
BRANCH   3  55
HETATM   55  O   UNK N   1      29.396  18.359   8.524  0.00  0.00    -0.355 OA
HETATM   56  C   UNK N   1      29.668  18.524   9.862  0.00  0.00     0.210 C 
ENDBRANCH   3  55
TORSDOF 16
ENDMDL
