REMARK WARNING: 32 MAX_TORS EXCEEDED!!!
REMARK  42 active torsions:
REMARK  status: ('A' for Active; 'I' for Inactive)
REMARK    1  A    between atoms: C_5  and  C_3 
REMARK    2  A    between atoms: C_96  and  C_5 
REMARK    3  A    between atoms: C_10  and  C_7 
REMARK    4  A    between atoms: O_14  and  C_7 
REMARK    5  A    between atoms: C_12  and  C_10 
REMARK    6  A    between atoms: C_13  and  C_12 
REMARK    7  A    between atoms: C_21  and  C_18 
REMARK    8  A    between atoms: O_22  and  C_21 
REMARK    9  A    between atoms: C_32  and  O_27 
REMARK   10  A    between atoms: C_34  and  C_31 
REMARK   11  A    between atoms: C_34  and  C_32 
REMARK   12  A    between atoms: C_45  and  O_40 
REMARK   13  A    between atoms: C_47  and  C_44 
REMARK   14  A    between atoms: C_47  and  C_45 
REMARK   15  A    between atoms: C_50  and  C_48 
REMARK   16  A    between atoms: C_51  and  C_48 
REMARK   17  A    between atoms: C_53  and  C_50 
REMARK   18  A    between atoms: N_54  and  C_53 
REMARK   19  A    between atoms: C_60  and  N_64 
REMARK       I    between atoms: C_72  and  N_64 
REMARK   20  A    between atoms: C_71  and  O_66 
REMARK   21  A    between atoms: C_70  and  N_67 
REMARK       I    between atoms: C_75  and  N_67 
REMARK   22  A    between atoms: C_72  and  C_70 
REMARK   23  A    between atoms: C_73  and  C_70 
REMARK   24  A    between atoms: C_73  and  C_71 
REMARK   25  A    between atoms: C_76  and  C_74 
REMARK   26  A    between atoms: C_77  and  C_74 
REMARK   27  A    between atoms: C_77  and  C_75 
REMARK       I    between atoms: N_80  and  C_76 
REMARK   28  A    between atoms: C_77  and  N_81 
REMARK       I    between atoms: C_82  and  N_81 
REMARK   29  A    between atoms: C_84  and  C_82 
REMARK   30  A    between atoms: C_85  and  C_84 
REMARK   31  A    between atoms: C_84  and  N_86 
REMARK   32  A    between atoms: C_98  and  C_85 
REMARK       I    between atoms: C_87  and  N_86 
REMARK   33  A    between atoms: C_88  and  C_87 
REMARK   34  A    between atoms: C_108  and  C_88 
REMARK   35  A    between atoms: C_96  and  C_89 
REMARK   36  A    between atoms: N_95  and  C_90 
REMARK   37  A    between atoms: C_109  and  C_108 
REMARK   38  A    between atoms: C_110  and  C_109 
REMARK   39  A    between atoms: C_111  and  C_110 
REMARK   40  A    between atoms: C_112  and  C_111 
REMARK   41  A    between atoms: C_113  and  C_112 
REMARK   42  A    between atoms: C_114  and  C_113 
ROOT
HETATM    1  C   UNK N   1      -1.357  -3.041  -0.687  0.00  0.00     0.282 C 
HETATM    2  O   UNK N   1      -1.542  -3.895  -1.540  0.00  0.00    -0.263 OA
HETATM    3  C   UNK N   1      -2.425  -1.996  -0.461  0.00  0.00     0.191 C 
HETATM    4  N   UNK N   1      -3.416  -2.095  -1.513  0.00  0.00    -0.345 N 
HETATM    5  O   UNK N   1      -0.187  -3.068   0.016  0.00  0.00    -0.312 OA
HETATM    6  C   UNK N   1      -4.759  -1.992  -1.358  0.00  0.00     0.241 C 
HETATM    7  O   UNK N   1      -5.463  -2.131  -2.345  0.00  0.00    -0.271 OA
HETATM    8  C   UNK N   1      -5.403  -1.642  -0.025  0.00  0.00     0.180 C 
HETATM    9  N   UNK N   1      -5.663  -2.744   0.877  0.00  0.00    -0.346 N 
HETATM   10  C   UNK N   1      -6.446  -3.822   0.622  0.00  0.00     0.243 C 
HETATM   11  C   UNK N   1      -6.911  -4.159  -0.781  0.00  0.00     0.200 C 
HETATM   12  O   UNK N   1      -6.832  -4.488   1.567  0.00  0.00    -0.271 OA
HETATM   13  N   UNK N   1      -6.421  -5.394  -1.392  0.00  0.00    -0.344 N 
HETATM   14  C   UNK N   1      -6.006  -6.557  -0.812  0.00  0.00     0.236 C 
HETATM   15  O   UNK N   1      -5.688  -7.490  -1.531  0.00  0.00    -0.272 OA
HETATM   16  N   UNK N   1      -4.708  -6.669   1.348  0.00  0.00    -0.351 N 
HETATM   17  C   UNK N   1      -5.998  -6.773   0.674  0.00  0.00     0.225 C 
HETATM   18  N   UNK N   1      -1.229  -7.490   1.050  0.00  0.00    -0.346 N 
HETATM   19  O   UNK N   1      -3.333  -6.675  -0.429  0.00  0.00    -0.271 OA
HETATM   20  C   UNK N   1      -2.260  -6.684   1.681  0.00  0.00     0.186 C 
HETATM   21  C   UNK N   1      -3.472  -6.612   0.784  0.00  0.00     0.241 C 
HETATM   22  C   UNK N   1      -0.442  -7.013   0.051  0.00  0.00     0.240 C 
HETATM   23  O   UNK N   1      -0.468  -5.835  -0.242  0.00  0.00    -0.271 OA
HETATM   24  C   UNK N   1       0.443  -7.915  -0.730  0.00  0.00     0.172 C 
HETATM   25  N   UNK N   1       1.391  -8.555   0.137  0.00  0.00    -0.346 N 
HETATM   26  C   UNK N   1      -0.371  -8.946  -1.488  0.00  0.00     0.042 C 
HETATM   27  N   UNK N   1       4.706  -7.180  -0.588  0.00  0.00    -0.346 N 
HETATM   28  O   UNK N   1       3.365  -8.774   1.106  0.00  0.00    -0.271 OA
HETATM   29  C   UNK N   1       3.303  -6.939  -0.382  0.00  0.00     0.186 C 
HETATM   30  C   UNK N   1       2.680  -8.156   0.306  0.00  0.00     0.241 C 
HETATM   31  C   UNK N   1       5.690  -6.319  -0.234  0.00  0.00     0.241 C 
HETATM   32  C   UNK N   1       5.405  -4.909   0.266  0.00  0.00     0.176 C 
HETATM   33  N   UNK N   1       4.918  -4.071  -0.828  0.00  0.00    -0.346 N 
HETATM   34  O   UNK N   1       6.846  -6.704  -0.318  0.00  0.00    -0.271 OA
HETATM   35  C   UNK N   1       4.752  -2.725  -0.704  0.00  0.00     0.236 C 
HETATM   36  O   UNK N   1       5.057  -2.164   0.337  0.00  0.00    -0.272 OA
HETATM   37  N   UNK N   1       3.005  -1.851  -2.309  0.00  0.00    -0.350 N 
HETATM   38  C   UNK N   1       4.394  -1.875  -1.884  0.00  0.00     0.225 C 
HETATM   39  C   UNK N   1       1.869  -1.855  -0.026  0.00  0.00     0.205 C 
HETATM   40  C   UNK N   1       1.879  -1.713  -1.550  0.00  0.00     0.243 C 
HETATM   41  O   UNK N   1       0.818  -1.541  -2.129  0.00  0.00    -0.271 OA
HETATM   42  C   UNK N   1       0.447  -1.974   0.577  0.00  0.00     0.159 C 
HETATM   43  C   UNK N   1       0.497  -2.143   2.087  0.00  0.00     0.042 C 
HETATM   44  H   UNK N   1      -3.083  -2.251  -2.426  0.00  0.00     0.163 HD
HETATM   45  H   UNK N   1      -5.231  -2.707   1.761  0.00  0.00     0.163 HD
HETATM   46  H   UNK N   1      -6.384  -5.385  -2.376  0.00  0.00     0.163 HD
HETATM   47  H   UNK N   1      -4.735  -6.637   2.332  0.00  0.00     0.163 HD
HETATM   48  H   UNK N   1      -1.096  -8.416   1.358  0.00  0.00     0.163 HD
HETATM   49  H   UNK N   1       1.085  -9.340   0.646  0.00  0.00     0.163 HD
HETATM   50  H   UNK N   1       4.968  -8.028  -1.015  0.00  0.00     0.163 HD
HETATM   51  H   UNK N   1       4.701  -4.496  -1.689  0.00  0.00     0.163 HD
HETATM   52  H   UNK N   1       2.855  -1.948  -3.278  0.00  0.00     0.163 HD
ENDROOT
BRANCH  39  53
HETATM   53  N   UNK N   1       2.677  -0.918   0.734  0.00  0.00    -0.344 N 
HETATM   54  C   UNK N   1       3.319   0.186   0.293  0.00  0.00     0.241 C 
HETATM   55  O   UNK N   1       3.210   0.573  -0.861  0.00  0.00    -0.271 OA
HETATM   56  H   UNK N   1       2.769  -1.113   1.695  0.00  0.00     0.163 HD
BRANCH  54  57
HETATM   57  C   UNK N   1       4.101   0.987   1.285  0.00  0.00     0.186 C 
BRANCH  57  58
HETATM   58  N   UNK N   1       3.503   2.288   1.381  0.00  0.00    -0.345 N 
HETATM   59  C   UNK N   1       2.235   2.463   1.846  0.00  0.00     0.241 C 
HETATM   60  O   UNK N   1       1.617   1.528   2.336  0.00  0.00    -0.271 OA
HETATM   61  H   UNK N   1       4.024   3.075   1.103  0.00  0.00     0.163 HD
BRANCH  59  62
HETATM   62  C   UNK N   1       1.580   3.811   1.738  0.00  0.00     0.185 C 
BRANCH  62  63
HETATM   63  C   UNK N   1       0.192   3.799   1.075  0.00  0.00     0.137 C 
BRANCH  63  64
HETATM   64  C   UNK N   1       0.139   3.257  -0.318  0.00  0.00     0.217 C 
HETATM   65  O   UNK N   1       0.402   2.086  -0.538  0.00  0.00    -0.274 OA
HETATM   66  N   UNK N   1      -0.219   4.067  -1.332  0.00  0.00    -0.370 N 
HETATM   67  H   UNK N   1       0.163   4.589  -2.074  0.00  0.00     0.159 HD
HETATM   68  H   UNK N   1      -1.198   4.172  -1.332  0.00  0.00     0.159 HD
ENDBRANCH  63  64
ENDBRANCH  62  63
BRANCH  62  69
HETATM   69  N   UNK N   1       2.495   4.796   1.191  0.00  0.00    -0.346 N 
HETATM   70  C   UNK N   1       3.080   4.753  -0.040  0.00  0.00     0.241 C 
HETATM   71  O   UNK N   1       2.783   3.890  -0.850  0.00  0.00    -0.271 OA
HETATM   72  H   UNK N   1       2.714   5.567   1.762  0.00  0.00     0.163 HD
BRANCH  70  73
HETATM   73  C   UNK N   1       4.280   5.606  -0.311  0.00  0.00     0.180 C 
BRANCH  73  74
HETATM   74  C   UNK N   1       5.280   5.447   0.829  0.00  0.00     0.075 C 
BRANCH  74  75
HETATM   75  C   UNK N   1       6.672   5.722   0.392  0.00  0.00    -0.028 A 
HETATM   76  C   UNK N   1       7.176   6.928  -0.087  0.00  0.00     0.096 A 
HETATM   77  N   UNK N   1       8.493   6.787  -0.369  0.00  0.00    -0.365 N 
HETATM   78  C   UNK N   1       8.808   5.507  -0.067  0.00  0.00     0.042 A 
HETATM   79  H   UNK N   1       9.099   7.478  -0.723  0.00  0.00     0.165 HD
HETATM   80  C   UNK N   1       7.715   4.841   0.400  0.00  0.00    -0.002 A 
HETATM   81  C   UNK N   1      10.050   4.901  -0.189  0.00  0.00     0.030 A 
HETATM   82  C   UNK N   1       7.786   3.501   0.787  0.00  0.00     0.014 A 
HETATM   83  C   UNK N   1       9.027   2.851   0.673  0.00  0.00     0.001 A 
HETATM   84  C   UNK N   1      10.156   3.547   0.187  0.00  0.00     0.002 A 
ENDBRANCH  74  75
ENDBRANCH  73  74
BRANCH  73  85
HETATM   85  N   UNK N   1       4.015   6.999  -0.631  0.00  0.00    -0.347 N 
HETATM   86  C   UNK N   1       3.419   7.920   0.171  0.00  0.00     0.218 C 
HETATM   87  O   UNK N   1       3.341   9.076  -0.213  0.00  0.00    -0.274 OA
HETATM   88  H   UNK N   1       4.298   7.308  -1.522  0.00  0.00     0.163 HD
BRANCH  86  89
HETATM   89  C   UNK N   1       2.836   7.560   1.504  0.00  0.00     0.103 C 
BRANCH  89  90
HETATM   90  C   UNK N   1       1.333   7.834   1.533  0.00  0.00     0.009 C 
BRANCH  90  91
HETATM   91  C   UNK N   1       0.598   7.073   0.432  0.00  0.00     0.000 C 
BRANCH  91  92
HETATM   92  C   UNK N   1      -0.883   7.397   0.455  0.00  0.00     0.000 C 
BRANCH  92  93
HETATM   93  C   UNK N   1      -1.573   6.604   1.548  0.00  0.00     0.000 C 
BRANCH  93  94
HETATM   94  C   UNK N   1      -2.858   7.299   1.954  0.00  0.00     0.000 C 
BRANCH  94  95
HETATM   95  C   UNK N   1      -4.076   6.546   1.452  0.00  0.00    -0.000 C 
BRANCH  95  96
HETATM   96  C   UNK N   1      -4.468   7.023   0.067  0.00  0.00    -0.005 C 
HETATM   97  C   UNK N   1      -5.797   6.407  -0.322  0.00  0.00     0.005 C 
ENDBRANCH  95  96
ENDBRANCH  94  95
ENDBRANCH  93  94
ENDBRANCH  92  93
ENDBRANCH  91  92
ENDBRANCH  90  91
ENDBRANCH  89  90
ENDBRANCH  86  89
ENDBRANCH  73  85
ENDBRANCH  70  73
ENDBRANCH  62  69
ENDBRANCH  59  62
ENDBRANCH  57  58
BRANCH  57  98
HETATM   98  C   UNK N   1       5.618   1.068   1.030  0.00  0.00     0.144 C 
BRANCH  98  99
HETATM   99  C   UNK N   1       6.080   1.051  -0.401  0.00  0.00     0.141 C 
HETATM  100  O   UNK N   1       5.707   1.909  -1.185  0.00  0.00    -0.650 OA
BRANCH  99 101
HETATM  101  O   UNK N   1       6.953   0.109  -0.804  0.00  0.00    -0.776 OA
HETATM  102  H   UNK N   1       6.689  -0.745  -1.085  0.00  0.00     0.167 HD
ENDBRANCH  99 101
ENDBRANCH  98  99
ENDBRANCH  57  98
ENDBRANCH  54  57
ENDBRANCH  39  53
BRANCH   3 103
HETATM  103  C   UNK N   1      -1.788  -0.636  -0.521  0.00  0.00     0.119 C 
BRANCH 103 104
HETATM  104  C   UNK N   1      -2.530   0.323   0.337  0.00  0.00     0.164 C 
HETATM  105  O   UNK N   1      -2.717   0.055   1.515  0.00  0.00    -0.292 OA
BRANCH 104 106
HETATM  106  C   UNK N   1      -2.974   1.605  -0.240  0.00  0.00     0.036 A 
HETATM  107  C   UNK N   1      -2.713   1.855  -1.598  0.00  0.00     0.017 A 
HETATM  108  C   UNK N   1      -3.090   3.058  -2.187  0.00  0.00     0.001 A 
HETATM  109  C   UNK N   1      -3.732   4.028  -1.423  0.00  0.00     0.002 A 
HETATM  110  C   UNK N   1      -4.004   3.790  -0.075  0.00  0.00     0.030 A 
HETATM  111  C   UNK N   1      -3.631   2.591   0.526  0.00  0.00     0.039 A 
BRANCH 111 112
HETATM  112  N   UNK N   1      -3.924   2.391   1.893  0.00  0.00    -0.398 N 
HETATM  113  H   UNK N   1      -4.146   2.498   2.846  0.00  0.00     0.156 HD
HETATM  114  H   UNK N   1      -3.849   1.409   1.893  0.00  0.00     0.156 HD
ENDBRANCH 111 112
ENDBRANCH 104 106
ENDBRANCH 103 104
ENDBRANCH   3 103
BRANCH  32 115
HETATM  115  C   UNK N   1       6.666  -4.301   0.916  0.00  0.00     0.036 C 
BRANCH 115 116
HETATM  116  C   UNK N   1       7.744  -3.961  -0.110  0.00  0.00     0.021 C 
BRANCH 116 117
HETATM  117  C   UNK N   1       9.071  -3.729   0.580  0.00  0.00     0.111 C 
BRANCH 117 118
HETATM  118  N   UNK N   1       9.594  -4.991   1.074  0.00  0.00    -0.430 N 
HETATM  119  H   UNK N   1       9.009  -5.752   1.421  0.00  0.00     0.149 HD
HETATM  120  H   UNK N   1      10.605  -5.125   1.074  0.00  0.00     0.149 HD
ENDBRANCH 117 118
ENDBRANCH 116 117
ENDBRANCH 115 116
ENDBRANCH  32 115
BRANCH   8 121
HETATM  121  C   UNK N   1      -6.605  -0.675  -0.032  0.00  0.00     0.023 C 
HETATM  122  C   UNK N   1      -6.190   0.777  -0.067  0.00  0.00     0.013 C 
BRANCH 121 123
HETATM  123  C   UNK N   1      -7.662  -0.966  -1.093  0.00  0.00     0.116 C 
BRANCH 123 124
HETATM  124  C   UNK N   1      -9.040  -0.712  -0.579  0.00  0.00     0.139 C 
HETATM  125  O   UNK N   1      -9.725   0.166  -1.075  0.00  0.00    -0.650 OA
BRANCH 124 126
HETATM  126  O   UNK N   1      -9.543  -1.481   0.405  0.00  0.00    -0.776 OA
HETATM  127  H   UNK N   1     -10.182  -1.445   1.090  0.00  0.00     0.167 HD
ENDBRANCH 124 126
ENDBRANCH 123 124
ENDBRANCH 121 123
ENDBRANCH   8 121
BRANCH  29 128
HETATM  128  C   UNK N   1       2.683  -6.503  -1.705  0.00  0.00     0.144 C 
BRANCH 128 129
HETATM  129  C   UNK N   1       2.050  -5.154  -1.574  0.00  0.00     0.141 C 
HETATM  130  O   UNK N   1       2.053  -4.575  -0.500  0.00  0.00    -0.650 OA
BRANCH 129 131
HETATM  131  O   UNK N   1       1.452  -4.588  -2.637  0.00  0.00    -0.776 OA
HETATM  132  H   UNK N   1       1.586  -4.030  -3.378  0.00  0.00     0.167 HD
ENDBRANCH 129 131
ENDBRANCH 128 129
ENDBRANCH  29 128
BRANCH  11 133
HETATM  133  C   UNK N   1      -8.410  -4.020  -0.993  0.00  0.00     0.199 C 
BRANCH 133 134
HETATM  134  O   UNK N   1      -9.102  -5.027  -0.322  0.00  0.00    -0.398 OA
HETATM  135  H   UNK N   1      -9.949  -4.960   0.145  0.00  0.00     0.209 HD
ENDBRANCH 133 134
ENDBRANCH  11 133
BRANCH  20 136
HETATM  136  C   UNK N   1      -1.703  -5.355   2.235  0.00  0.00     0.144 C 
BRANCH 136 137
HETATM  137  C   UNK N   1      -2.723  -4.387   2.754  0.00  0.00     0.141 C 
HETATM  138  O   UNK N   1      -3.566  -4.745   3.559  0.00  0.00    -0.650 OA
BRANCH 137 139
HETATM  139  O   UNK N   1      -2.665  -3.096   2.377  0.00  0.00    -0.776 OA
HETATM  140  H   UNK N   1      -1.866  -2.682   2.114  0.00  0.00     0.167 HD
ENDBRANCH 137 139
ENDBRANCH 136 137
ENDBRANCH  20 136
TORSDOF 42
