MODEL 1
REMARK VINA RESULT:      -8.3      0.000      0.000
REMARK  2 active torsions:
REMARK  status: ('A' for Active; 'I' for Inactive)
REMARK    1  A    between atoms: C_11  and  C_24 
REMARK    2  A    between atoms: C_24  and  O_26 
ROOT
HETATM    1  C   UNK N   1      29.594  23.852  -7.686  0.00  0.00     0.159 A 
HETATM    2  C   UNK N   1      29.435  24.032  -6.227  0.00  0.00     0.103 A 
HETATM    3  O   UNK N   1      29.327  25.119  -7.121  0.00  0.00    -0.368 OA
HETATM    4  C   UNK N   1      32.368  22.277  -4.432  0.00  0.00     0.084 C 
HETATM    5  C   UNK N   1      31.710  22.440  -3.101  0.00  0.00     0.149 C 
HETATM    6  C   UNK N   1      30.773  23.556  -2.895  0.00  0.00     0.053 C 
HETATM    7  C   UNK N   1      31.327  22.566  -5.504  0.00  0.00     0.025 C 
HETATM    8  C   UNK N   1      30.743  23.993  -5.379  0.00  0.00     0.014 C 
HETATM    9  C   UNK N   1      30.371  24.314  -3.930  0.00  0.00    -0.064 C 
HETATM   10  C   UNK N   1      29.348  25.376  -3.685  0.00  0.00     0.050 C 
HETATM   11  C   UNK N   1      28.030  25.060  -4.427  0.00  0.00     0.097 C 
HETATM   12  C   UNK N   1      28.109  23.867  -5.451  0.00  0.00     0.043 C 
HETATM   13  C   UNK N   1      28.389  23.156  -8.306  0.00  0.00     0.047 C 
HETATM   14  C   UNK N   1      26.977  23.541  -7.853  0.00  0.00    -0.006 C 
HETATM   15  C   UNK N   1      26.807  23.605  -6.308  0.00  0.00     0.005 C 
HETATM   16  C   UNK N   1      25.780  24.717  -6.146  0.00  0.00     0.009 C 
HETATM   17  C   UNK N   1      26.245  25.756  -7.139  0.00  0.00     0.040 C 
HETATM   18  C   UNK N   1      26.437  24.918  -8.379  0.00  0.00     0.079 A 
HETATM   19  O   UNK N   1      25.198  24.785  -8.971  0.00  0.00    -0.309 OA
HETATM   20  C   UNK N   1      25.166  25.263 -10.211  0.00  0.00     0.259 A 
HETATM   21  C   UNK N   1      26.431  25.854 -10.667  0.00  0.00     0.114 A 
HETATM   22  C   UNK N   1      27.313  25.635  -9.433  0.00  0.00     0.049 A 
HETATM   23  O   UNK N   1      24.161  25.206 -10.904  0.00  0.00    -0.265 OA
HETATM   24  O   UNK N   1      31.927  21.644  -2.203  0.00  0.00    -0.293 OA
HETATM   25  C   UNK N   1      31.780  25.003  -5.865  0.00  0.00     0.023 C 
HETATM   26  C   UNK N   1      26.107  22.406  -8.402  0.00  0.00     0.019 C 
ENDROOT
BRANCH  11  27
HETATM   27  C   UNK N   1      26.914  24.952  -3.431  0.00  0.00     0.263 C 
HETATM   28  O   UNK N   1      26.599  23.861  -2.975  0.00  0.00    -0.265 OA
BRANCH  27  29
HETATM   29  O   UNK N   1      26.269  26.080  -3.044  0.00  0.00    -0.326 OA
HETATM   30  C   UNK N   1      26.378  27.268  -3.726  0.00  0.00     0.213 C 
ENDBRANCH  27  29
ENDBRANCH  11  27
TORSDOF 2
ENDMDL
MODEL 2
REMARK VINA RESULT:      -8.1     11.579     14.802
REMARK  2 active torsions:
REMARK  status: ('A' for Active; 'I' for Inactive)
REMARK    1  A    between atoms: C_11  and  C_24 
REMARK    2  A    between atoms: C_24  and  O_26 
ROOT
HETATM    1  C   UNK N   1      29.685  16.820   4.622  0.00  0.00     0.159 A 
HETATM    2  C   UNK N   1      30.204  16.775   6.006  0.00  0.00     0.103 A 
HETATM    3  O   UNK N   1      30.193  17.973   5.260  0.00  0.00    -0.368 OA
HETATM    4  C   UNK N   1      32.641  13.799   6.323  0.00  0.00     0.084 C 
HETATM    5  C   UNK N   1      32.689  13.938   7.810  0.00  0.00     0.149 C 
HETATM    6  C   UNK N   1      32.440  15.256   8.416  0.00  0.00     0.053 C 
HETATM    7  C   UNK N   1      31.470  14.628   5.816  0.00  0.00     0.025 C 
HETATM    8  C   UNK N   1      31.605  16.121   6.198  0.00  0.00     0.014 C 
HETATM    9  C   UNK N   1      32.000  16.283   7.668  0.00  0.00    -0.064 C 
HETATM   10  C   UNK N   1      31.674  17.574   8.346  0.00  0.00     0.050 C 
HETATM   11  C   UNK N   1      30.164  17.887   8.250  0.00  0.00     0.097 C 
HETATM   12  C   UNK N   1      29.348  16.952   7.281  0.00  0.00     0.043 C 
HETATM   13  C   UNK N   1      28.165  16.722   4.582  0.00  0.00     0.047 C 
HETATM   14  C   UNK N   1      27.330  17.492   5.609  0.00  0.00    -0.006 C 
HETATM   15  C   UNK N   1      27.827  17.329   7.075  0.00  0.00     0.005 C 
HETATM   16  C   UNK N   1      27.485  18.683   7.680  0.00  0.00     0.009 C 
HETATM   17  C   UNK N   1      27.890  19.653   6.596  0.00  0.00     0.040 C 
HETATM   18  C   UNK N   1      27.224  19.043   5.386  0.00  0.00     0.079 A 
HETATM   19  O   UNK N   1      25.911  19.468   5.393  0.00  0.00    -0.309 OA
HETATM   20  C   UNK N   1      25.584  20.144   4.296  0.00  0.00     0.259 A 
HETATM   21  C   UNK N   1      26.686  20.321   3.341  0.00  0.00     0.114 A 
HETATM   22  C   UNK N   1      27.816  19.582   4.064  0.00  0.00     0.049 A 
HETATM   23  O   UNK N   1      24.455  20.574   4.110  0.00  0.00    -0.265 OA
HETATM   24  O   UNK N   1      32.907  12.967   8.515  0.00  0.00    -0.293 OA
HETATM   25  C   UNK N   1      32.673  16.769   5.320  0.00  0.00     0.023 C 
HETATM   26  C   UNK N   1      25.941  16.860   5.483  0.00  0.00     0.019 C 
ENDROOT
BRANCH  11  27
HETATM   27  C   UNK N   1      29.592  18.001   9.631  0.00  0.00     0.263 C 
HETATM   28  O   UNK N   1      29.692  19.049  10.255  0.00  0.00    -0.265 OA
BRANCH  27  29
HETATM   29  O   UNK N   1      28.960  16.929  10.169  0.00  0.00    -0.326 OA
HETATM   30  C   UNK N   1      29.573  16.069  11.048  0.00  0.00     0.213 C 
ENDBRANCH  27  29
ENDBRANCH  11  27
TORSDOF 2
ENDMDL
MODEL 3
REMARK VINA RESULT:      -8.1      2.089      2.703
REMARK  2 active torsions:
REMARK  status: ('A' for Active; 'I' for Inactive)
REMARK    1  A    between atoms: C_11  and  C_24 
REMARK    2  A    between atoms: C_24  and  O_26 
ROOT
HETATM    1  C   UNK N   1      29.304  21.078  -7.379  0.00  0.00     0.159 A 
HETATM    2  C   UNK N   1      29.177  22.281  -6.527  0.00  0.00     0.103 A 
HETATM    3  O   UNK N   1      29.541  22.374  -7.888  0.00  0.00    -0.368 OA
HETATM    4  C   UNK N   1      31.107  21.686  -3.238  0.00  0.00     0.084 C 
HETATM    5  C   UNK N   1      30.519  22.911  -2.618  0.00  0.00     0.149 C 
HETATM    6  C   UNK N   1      30.094  24.021  -3.486  0.00  0.00     0.053 C 
HETATM    7  C   UNK N   1      30.305  21.368  -4.492  0.00  0.00     0.025 C 
HETATM    8  C   UNK N   1      30.330  22.533  -5.510  0.00  0.00     0.014 C 
HETATM    9  C   UNK N   1      30.063  23.874  -4.822  0.00  0.00    -0.064 C 
HETATM   10  C   UNK N   1      29.537  24.999  -5.654  0.00  0.00     0.050 C 
HETATM   11  C   UNK N   1      28.229  24.594  -6.372  0.00  0.00     0.097 C 
HETATM   12  C   UNK N   1      27.866  23.064  -6.288  0.00  0.00     0.043 C 
HETATM   13  C   UNK N   1      27.946  20.485  -7.729  0.00  0.00     0.047 C 
HETATM   14  C   UNK N   1      26.786  21.416  -8.098  0.00  0.00    -0.006 C 
HETATM   15  C   UNK N   1      26.599  22.608  -7.115  0.00  0.00     0.005 C 
HETATM   16  C   UNK N   1      26.092  23.707  -8.039  0.00  0.00     0.009 C 
HETATM   17  C   UNK N   1      26.965  23.554  -9.261  0.00  0.00     0.040 C 
HETATM   18  C   UNK N   1      26.856  22.071  -9.523  0.00  0.00     0.079 A 
HETATM   19  O   UNK N   1      25.687  21.873 -10.230  0.00  0.00    -0.309 OA
HETATM   20  C   UNK N   1      25.893  21.304 -11.413  0.00  0.00     0.259 A 
HETATM   21  C   UNK N   1      27.304  21.043 -11.725  0.00  0.00     0.114 A 
HETATM   22  C   UNK N   1      27.981  21.562 -10.453  0.00  0.00     0.049 A 
HETATM   23  O   UNK N   1      24.973  21.024 -12.169  0.00  0.00    -0.265 OA
HETATM   24  O   UNK N   1      30.370  22.982  -1.409  0.00  0.00    -0.293 OA
HETATM   25  C   UNK N   1      31.700  22.580  -6.184  0.00  0.00     0.023 C 
HETATM   26  C   UNK N   1      25.559  20.504  -8.012  0.00  0.00     0.019 C 
ENDROOT
BRANCH  11  27
HETATM   27  C   UNK N   1      27.125  25.518  -5.951  0.00  0.00     0.263 C 
HETATM   28  O   UNK N   1      26.910  26.546  -6.579  0.00  0.00    -0.265 OA
BRANCH  27  29
HETATM   29  O   UNK N   1      26.373  25.191  -4.872  0.00  0.00    -0.326 OA
HETATM   30  C   UNK N   1      26.572  25.747  -3.631  0.00  0.00     0.213 C 
ENDBRANCH  27  29
ENDBRANCH  11  27
TORSDOF 2
ENDMDL
MODEL 4
REMARK VINA RESULT:      -8.0     12.278     14.881
REMARK  2 active torsions:
REMARK  status: ('A' for Active; 'I' for Inactive)
REMARK    1  A    between atoms: C_11  and  C_24 
REMARK    2  A    between atoms: C_24  and  O_26 
ROOT
HETATM    1  C   UNK N   1      29.073  16.617   3.360  0.00  0.00     0.159 A 
HETATM    2  C   UNK N   1      29.080  17.161   4.736  0.00  0.00     0.103 A 
HETATM    3  O   UNK N   1      28.808  15.799   4.481  0.00  0.00    -0.368 OA
HETATM    4  C   UNK N   1      26.957  20.384   4.808  0.00  0.00     0.084 C 
HETATM    5  C   UNK N   1      27.438  20.724   6.182  0.00  0.00     0.149 C 
HETATM    6  C   UNK N   1      27.867  19.641   7.080  0.00  0.00     0.053 C 
HETATM    7  C   UNK N   1      27.859  19.289   4.257  0.00  0.00     0.025 C 
HETATM    8  C   UNK N   1      27.848  18.023   5.145  0.00  0.00     0.014 C 
HETATM    9  C   UNK N   1      27.998  18.382   6.625  0.00  0.00    -0.064 C 
HETATM   10  C   UNK N   1      28.524  17.336   7.553  0.00  0.00     0.050 C 
HETATM   11  C   UNK N   1      29.898  16.810   7.077  0.00  0.00     0.097 C 
HETATM   12  C   UNK N   1      30.330  17.279   5.637  0.00  0.00     0.043 C 
HETATM   13  C   UNK N   1      30.480  16.495   2.792  0.00  0.00     0.047 C 
HETATM   14  C   UNK N   1      31.615  15.979   3.683  0.00  0.00    -0.006 C 
HETATM   15  C   UNK N   1      31.673  16.657   5.082  0.00  0.00     0.005 C 
HETATM   16  C   UNK N   1      32.188  15.527   5.963  0.00  0.00     0.009 C 
HETATM   17  C   UNK N   1      31.410  14.330   5.469  0.00  0.00     0.040 C 
HETATM   18  C   UNK N   1      31.612  14.437   3.977  0.00  0.00     0.079 A 
HETATM   19  O   UNK N   1      32.836  13.865   3.694  0.00  0.00    -0.309 OA
HETATM   20  C   UNK N   1      32.742  12.843   2.850  0.00  0.00     0.259 A 
HETATM   21  C   UNK N   1      31.371  12.524   2.431  0.00  0.00     0.114 A 
HETATM   22  C   UNK N   1      30.581  13.595   3.190  0.00  0.00     0.049 A 
HETATM   23  O   UNK N   1      33.725  12.229   2.461  0.00  0.00    -0.265 OA
HETATM   24  O   UNK N   1      27.499  21.887   6.545  0.00  0.00    -0.293 OA
HETATM   25  C   UNK N   1      26.528  17.281   4.942  0.00  0.00     0.023 C 
HETATM   26  C   UNK N   1      32.877  16.350   2.899  0.00  0.00     0.019 C 
ENDROOT
BRANCH  11  27
HETATM   27  C   UNK N   1      30.921  17.058   8.144  0.00  0.00     0.263 C 
HETATM   28  O   UNK N   1      31.112  16.226   9.020  0.00  0.00    -0.265 OA
BRANCH  27  29
HETATM   29  O   UNK N   1      31.631  18.213   8.115  0.00  0.00    -0.326 OA
HETATM   30  C   UNK N   1      33.002  18.244   8.207  0.00  0.00     0.213 C 
ENDBRANCH  27  29
ENDBRANCH  11  27
TORSDOF 2
ENDMDL
MODEL 5
REMARK VINA RESULT:      -7.6      1.437      6.444
REMARK  2 active torsions:
REMARK  status: ('A' for Active; 'I' for Inactive)
REMARK    1  A    between atoms: C_11  and  C_24 
REMARK    2  A    between atoms: C_24  and  O_26 
ROOT
HETATM    1  C   UNK N   1      29.749  22.293  -7.368  0.00  0.00     0.159 A 
HETATM    2  C   UNK N   1      28.565  23.047  -6.901  0.00  0.00     0.103 A 
HETATM    3  O   UNK N   1      28.836  21.740  -6.443  0.00  0.00    -0.368 OA
HETATM    4  C   UNK N   1      26.742  24.522  -9.968  0.00  0.00     0.084 C 
HETATM    5  C   UNK N   1      25.868  25.366  -9.099  0.00  0.00     0.149 C 
HETATM    6  C   UNK N   1      25.579  24.924  -7.725  0.00  0.00     0.053 C 
HETATM    7  C   UNK N   1      27.887  24.001  -9.110  0.00  0.00     0.025 C 
HETATM    8  C   UNK N   1      27.382  23.168  -7.908  0.00  0.00     0.014 C 
HETATM    9  C   UNK N   1      26.227  23.873  -7.192  0.00  0.00    -0.064 C 
HETATM   10  C   UNK N   1      25.965  23.520  -5.763  0.00  0.00     0.050 C 
HETATM   11  C   UNK N   1      27.228  23.732  -4.897  0.00  0.00     0.097 C 
HETATM   12  C   UNK N   1      28.549  24.023  -5.703  0.00  0.00     0.043 C 
HETATM   13  C   UNK N   1      31.038  22.830  -6.760  0.00  0.00     0.047 C 
HETATM   14  C   UNK N   1      31.069  23.228  -5.281  0.00  0.00    -0.006 C 
HETATM   15  C   UNK N   1      29.873  24.123  -4.844  0.00  0.00     0.005 C 
HETATM   16  C   UNK N   1      29.656  23.684  -3.403  0.00  0.00     0.009 C 
HETATM   17  C   UNK N   1      29.799  22.183  -3.479  0.00  0.00     0.040 C 
HETATM   18  C   UNK N   1      31.089  22.044  -4.250  0.00  0.00     0.079 A 
HETATM   19  O   UNK N   1      32.118  22.180  -3.340  0.00  0.00    -0.309 OA
HETATM   20  C   UNK N   1      32.907  21.113  -3.294  0.00  0.00     0.259 A 
HETATM   21  C   UNK N   1      32.501  20.017  -4.184  0.00  0.00     0.114 A 
HETATM   22  C   UNK N   1      31.260  20.627  -4.844  0.00  0.00     0.049 A 
HETATM   23  O   UNK N   1      33.890  21.061  -2.568  0.00  0.00    -0.265 OA
HETATM   24  O   UNK N   1      25.420  26.422  -9.513  0.00  0.00    -0.293 OA
HETATM   25  C   UNK N   1      26.902  21.807  -8.408  0.00  0.00     0.023 C 
HETATM   26  C   UNK N   1      32.364  24.036  -5.158  0.00  0.00     0.019 C 
ENDROOT
BRANCH  11  27
HETATM   27  C   UNK N   1      26.927  24.728  -3.817  0.00  0.00     0.263 C 
HETATM   28  O   UNK N   1      26.622  24.346  -2.695  0.00  0.00    -0.265 OA
BRANCH  27  29
HETATM   29  O   UNK N   1      27.005  26.050  -4.105  0.00  0.00    -0.326 OA
HETATM   30  C   UNK N   1      26.273  27.001  -3.436  0.00  0.00     0.213 C 
ENDBRANCH  27  29
ENDBRANCH  11  27
TORSDOF 2
ENDMDL
MODEL 6
REMARK VINA RESULT:      -7.5      2.219      6.067
REMARK  2 active torsions:
REMARK  status: ('A' for Active; 'I' for Inactive)
REMARK    1  A    between atoms: C_11  and  C_24 
REMARK    2  A    between atoms: C_24  and  O_26 
ROOT
HETATM    1  C   UNK N   1      30.538  26.197  -4.177  0.00  0.00     0.159 A 
HETATM    2  C   UNK N   1      29.202  26.603  -4.664  0.00  0.00     0.103 A 
HETATM    3  O   UNK N   1      30.154  26.014  -5.524  0.00  0.00    -0.368 OA
HETATM    4  C   UNK N   1      28.484  30.202  -3.468  0.00  0.00     0.084 C 
HETATM    5  C   UNK N   1      27.053  30.105  -3.888  0.00  0.00     0.149 C 
HETATM    6  C   UNK N   1      26.687  29.190  -4.981  0.00  0.00     0.053 C 
HETATM    7  C   UNK N   1      29.067  28.795  -3.472  0.00  0.00     0.025 C 
HETATM    8  C   UNK N   1      28.974  28.131  -4.865  0.00  0.00     0.014 C 
HETATM    9  C   UNK N   1      27.585  28.321  -5.479  0.00  0.00    -0.064 C 
HETATM   10  C   UNK N   1      27.138  27.350  -6.524  0.00  0.00     0.050 C 
HETATM   11  C   UNK N   1      27.203  25.898  -5.998  0.00  0.00     0.097 C 
HETATM   12  C   UNK N   1      27.934  25.720  -4.615  0.00  0.00     0.043 C 
HETATM   13  C   UNK N   1      30.471  24.945  -3.312  0.00  0.00     0.047 C 
HETATM   14  C   UNK N   1      29.557  23.787  -3.726  0.00  0.00    -0.006 C 
HETATM   15  C   UNK N   1      28.118  24.231  -4.118  0.00  0.00     0.005 C 
HETATM   16  C   UNK N   1      27.753  23.218  -5.194  0.00  0.00     0.009 C 
HETATM   17  C   UNK N   1      29.019  23.119  -6.011  0.00  0.00     0.040 C 
HETATM   18  C   UNK N   1      30.055  22.914  -4.932  0.00  0.00     0.079 A 
HETATM   19  O   UNK N   1      30.051  21.569  -4.620  0.00  0.00    -0.309 OA
HETATM   20  C   UNK N   1      31.232  20.993  -4.816  0.00  0.00     0.259 A 
HETATM   21  C   UNK N   1      32.266  21.891  -5.346  0.00  0.00     0.114 A 
HETATM   22  C   UNK N   1      31.487  23.206  -5.439  0.00  0.00     0.049 A 
HETATM   23  O   UNK N   1      31.428  19.812  -4.567  0.00  0.00    -0.265 OA
HETATM   24  O   UNK N   1      26.196  30.756  -3.316  0.00  0.00    -0.293 OA
HETATM   25  C   UNK N   1      30.018  28.756  -5.789  0.00  0.00     0.023 C 
HETATM   26  C   UNK N   1      29.484  22.924  -2.463  0.00  0.00     0.019 C 
ENDROOT
BRANCH  11  27
HETATM   27  C   UNK N   1      25.835  25.286  -6.062  0.00  0.00     0.263 C 
HETATM   28  O   UNK N   1      24.969  25.632  -5.270  0.00  0.00    -0.265 OA
BRANCH  27  29
HETATM   29  O   UNK N   1      25.579  24.354  -7.012  0.00  0.00    -0.326 OA
HETATM   30  C   UNK N   1      25.743  24.597  -8.354  0.00  0.00     0.213 C 
ENDBRANCH  27  29
ENDBRANCH  11  27
TORSDOF 2
ENDMDL
MODEL 7
REMARK VINA RESULT:      -7.4      2.626      5.655
REMARK  2 active torsions:
REMARK  status: ('A' for Active; 'I' for Inactive)
REMARK    1  A    between atoms: C_11  and  C_24 
REMARK    2  A    between atoms: C_24  and  O_26 
ROOT
HETATM    1  C   UNK N   1      27.739  23.116  -7.537  0.00  0.00     0.159 A 
HETATM    2  C   UNK N   1      27.990  23.841  -6.273  0.00  0.00     0.103 A 
HETATM    3  O   UNK N   1      27.678  22.464  -6.286  0.00  0.00    -0.368 OA
HETATM    4  C   UNK N   1      25.911  27.093  -6.269  0.00  0.00     0.084 C 
HETATM    5  C   UNK N   1      26.629  27.604  -5.062  0.00  0.00     0.149 C 
HETATM    6  C   UNK N   1      27.212  26.642  -4.113  0.00  0.00     0.053 C 
HETATM    7  C   UNK N   1      26.702  25.913  -6.815  0.00  0.00     0.025 C 
HETATM    8  C   UNK N   1      26.850  24.778  -5.775  0.00  0.00     0.014 C 
HETATM    9  C   UNK N   1      27.261  25.331  -4.408  0.00  0.00    -0.064 C 
HETATM   10  C   UNK N   1      27.945  24.408  -3.452  0.00  0.00     0.050 C 
HETATM   11  C   UNK N   1      29.212  23.790  -4.087  0.00  0.00     0.097 C 
HETATM   12  C   UNK N   1      29.381  24.050  -5.631  0.00  0.00     0.043 C 
HETATM   13  C   UNK N   1      29.023  22.885  -8.323  0.00  0.00     0.047 C 
HETATM   14  C   UNK N   1      30.298  22.468  -7.584  0.00  0.00    -0.006 C 
HETATM   15  C   UNK N   1      30.604  23.327  -6.323  0.00  0.00     0.005 C 
HETATM   16  C   UNK N   1      31.268  22.314  -5.401  0.00  0.00     0.009 C 
HETATM   17  C   UNK N   1      30.416  21.080  -5.580  0.00  0.00     0.040 C 
HETATM   18  C   UNK N   1      30.349  20.980  -7.085  0.00  0.00     0.079 A 
HETATM   19  O   UNK N   1      31.503  20.346  -7.498  0.00  0.00    -0.309 OA
HETATM   20  C   UNK N   1      31.262  19.222  -8.164  0.00  0.00     0.259 A 
HETATM   21  C   UNK N   1      29.838  18.882  -8.287  0.00  0.00     0.114 A 
HETATM   22  C   UNK N   1      29.195  20.064  -7.555  0.00  0.00     0.049 A 
HETATM   23  O   UNK N   1      32.160  18.538  -8.633  0.00  0.00    -0.265 OA
HETATM   24  O   UNK N   1      26.752  28.804  -4.878  0.00  0.00    -0.293 OA
HETATM   25  C   UNK N   1      25.515  24.048  -5.638  0.00  0.00     0.023 C 
HETATM   26  C   UNK N   1      31.401  22.699  -8.622  0.00  0.00     0.019 C 
ENDROOT
BRANCH  11  27
HETATM   27  C   UNK N   1      30.409  24.156  -3.261  0.00  0.00     0.263 C 
HETATM   28  O   UNK N   1      30.667  23.533  -2.240  0.00  0.00    -0.265 OA
BRANCH  27  29
HETATM   29  O   UNK N   1      31.198  25.180  -3.669  0.00  0.00    -0.326 OA
HETATM   30  C   UNK N   1      30.920  26.493  -3.378  0.00  0.00     0.213 C 
ENDBRANCH  27  29
ENDBRANCH  11  27
TORSDOF 2
ENDMDL
MODEL 8
REMARK VINA RESULT:      -7.3     12.160     14.477
REMARK  2 active torsions:
REMARK  status: ('A' for Active; 'I' for Inactive)
REMARK    1  A    between atoms: C_11  and  C_24 
REMARK    2  A    between atoms: C_24  and  O_26 
ROOT
HETATM    1  C   UNK N   1      30.151  15.986   3.325  0.00  0.00     0.159 A 
HETATM    2  C   UNK N   1      31.159  16.137   4.397  0.00  0.00     0.103 A 
HETATM    3  O   UNK N   1      30.528  17.257   3.811  0.00  0.00    -0.368 OA
HETATM    4  C   UNK N   1      34.244  13.993   3.512  0.00  0.00     0.084 C 
HETATM    5  C   UNK N   1      34.828  14.190   4.874  0.00  0.00     0.149 C 
HETATM    6  C   UNK N   1      34.482  15.402   5.634  0.00  0.00     0.053 C 
HETATM    7  C   UNK N   1      32.789  14.436   3.562  0.00  0.00     0.025 C 
HETATM    8  C   UNK N   1      32.645  15.917   3.983  0.00  0.00     0.014 C 
HETATM    9  C   UNK N   1      33.521  16.235   5.198  0.00  0.00    -0.064 C 
HETATM   10  C   UNK N   1      33.143  17.402   6.052  0.00  0.00     0.050 C 
HETATM   11  C   UNK N   1      31.692  17.268   6.567  0.00  0.00     0.097 C 
HETATM   12  C   UNK N   1      30.855  16.106   5.912  0.00  0.00     0.043 C 
HETATM   13  C   UNK N   1      28.827  15.456   3.862  0.00  0.00     0.047 C 
HETATM   14  C   UNK N   1      28.282  15.991   5.190  0.00  0.00    -0.006 C 
HETATM   15  C   UNK N   1      29.334  16.026   6.335  0.00  0.00     0.005 C 
HETATM   16  C   UNK N   1      28.897  17.247   7.133  0.00  0.00     0.009 C 
HETATM   17  C   UNK N   1      28.563  18.254   6.059  0.00  0.00     0.040 C 
HETATM   18  C   UNK N   1      27.674  17.439   5.152  0.00  0.00     0.079 A 
HETATM   19  O   UNK N   1      26.406  17.471   5.695  0.00  0.00    -0.309 OA
HETATM   20  C   UNK N   1      25.505  17.988   4.867  0.00  0.00     0.259 A 
HETATM   21  C   UNK N   1      26.051  18.439   3.580  0.00  0.00     0.114 A 
HETATM   22  C   UNK N   1      27.530  18.079   3.752  0.00  0.00     0.049 A 
HETATM   23  O   UNK N   1      24.322  18.072   5.163  0.00  0.00    -0.265 OA
HETATM   24  O   UNK N   1      35.562  13.346   5.360  0.00  0.00    -0.293 OA
HETATM   25  C   UNK N   1      33.063  16.812   2.818  0.00  0.00     0.023 C 
HETATM   26  C   UNK N   1      27.186  14.985   5.554  0.00  0.00     0.019 C 
ENDROOT
BRANCH  11  27
HETATM   27  C   UNK N   1      31.697  17.261   8.066  0.00  0.00     0.263 C 
HETATM   28  O   UNK N   1      31.607  18.311   8.687  0.00  0.00    -0.265 OA
BRANCH  27  29
HETATM   29  O   UNK N   1      31.796  16.074   8.715  0.00  0.00    -0.326 OA
HETATM   30  C   UNK N   1      32.989  15.583   9.186  0.00  0.00     0.213 C 
ENDBRANCH  27  29
ENDBRANCH  11  27
TORSDOF 2
ENDMDL
MODEL 9
REMARK VINA RESULT:      -7.3     12.573     15.514
REMARK  2 active torsions:
REMARK  status: ('A' for Active; 'I' for Inactive)
REMARK    1  A    between atoms: C_11  and  C_24 
REMARK    2  A    between atoms: C_24  and  O_26 
ROOT
HETATM    1  C   UNK N   1      29.822  14.946   3.782  0.00  0.00     0.159 A 
HETATM    2  C   UNK N   1      28.888  15.674   4.669  0.00  0.00     0.103 A 
HETATM    3  O   UNK N   1      29.617  14.552   5.123  0.00  0.00    -0.368 OA
HETATM    4  C   UNK N   1      25.537  16.162   2.816  0.00  0.00     0.084 C 
HETATM    5  C   UNK N   1      25.044  17.106   3.864  0.00  0.00     0.149 C 
HETATM    6  C   UNK N   1      25.563  16.991   5.236  0.00  0.00     0.053 C 
HETATM    7  C   UNK N   1      27.035  15.982   3.020  0.00  0.00     0.025 C 
HETATM    8  C   UNK N   1      27.369  15.427   4.425  0.00  0.00     0.014 C 
HETATM    9  C   UNK N   1      26.593  16.173   5.514  0.00  0.00    -0.064 C 
HETATM   10  C   UNK N   1      27.143  16.160   6.903  0.00  0.00     0.050 C 
HETATM   11  C   UNK N   1      28.591  16.700   6.934  0.00  0.00     0.097 C 
HETATM   12  C   UNK N   1      29.256  16.909   5.522  0.00  0.00     0.043 C 
HETATM   13  C   UNK N   1      31.098  15.738   3.530  0.00  0.00     0.047 C 
HETATM   14  C   UNK N   1      31.763  16.490   4.687  0.00  0.00    -0.006 C 
HETATM   15  C   UNK N   1      30.775  17.345   5.532  0.00  0.00     0.005 C 
HETATM   16  C   UNK N   1      31.387  17.258   6.923  0.00  0.00     0.009 C 
HETATM   17  C   UNK N   1      31.787  15.805   7.028  0.00  0.00     0.040 C 
HETATM   18  C   UNK N   1      32.532  15.605   5.731  0.00  0.00     0.079 A 
HETATM   19  O   UNK N   1      33.819  16.061   5.932  0.00  0.00    -0.309 OA
HETATM   20  C   UNK N   1      34.735  15.119   5.732  0.00  0.00     0.259 A 
HETATM   21  C   UNK N   1      34.186  13.804   5.376  0.00  0.00     0.114 A 
HETATM   22  C   UNK N   1      32.685  14.109   5.374  0.00  0.00     0.049 A 
HETATM   23  O   UNK N   1      35.932  15.344   5.834  0.00  0.00    -0.265 OA
HETATM   24  O   UNK N   1      24.240  17.979   3.580  0.00  0.00    -0.293 OA
HETATM   25  C   UNK N   1      27.005  13.945   4.478  0.00  0.00     0.023 C 
HETATM   26  C   UNK N   1      32.750  17.425   3.981  0.00  0.00     0.019 C 
ENDROOT
BRANCH  11  27
HETATM   27  C   UNK N   1      28.654  17.898   7.834  0.00  0.00     0.263 C 
HETATM   28  O   UNK N   1      28.398  19.011   7.396  0.00  0.00    -0.265 OA
BRANCH  27  29
HETATM   29  O   UNK N   1      28.993  17.722   9.135  0.00  0.00    -0.326 OA
HETATM   30  C   UNK N   1      29.669  18.673   9.861  0.00  0.00     0.213 C 
ENDBRANCH  27  29
ENDBRANCH  11  27
TORSDOF 2
ENDMDL
