REMARK  5 active torsions:
REMARK  status: ('A' for Active; 'I' for Inactive)
REMARK    1  A    between atoms: C_3  and  O_24 
REMARK    2  A    between atoms: C_22  and  C_9 
REMARK    3  A    between atoms: C_14  and  C_16 
REMARK    4  A    between atoms: C_21  and  C_22 
REMARK    5  A    between atoms: C_22  and  O_23 
ROOT
HETATM    1  C   UNK N   1      -2.247  -2.271   0.331  0.00  0.00     0.033 A 
HETATM    2  C   UNK N   1      -3.380  -1.452   0.365  0.00  0.00     0.039 A 
HETATM    3  C   UNK N   1      -3.251  -0.063   0.202  0.00  0.00     0.069 A 
HETATM    4  C   UNK N   1      -1.987   0.487   0.007  0.00  0.00     0.051 A 
HETATM    5  C   UNK N   1      -0.837  -0.314  -0.034  0.00  0.00     0.002 A 
HETATM    6  C   UNK N   1      -0.981  -1.713   0.133  0.00  0.00     0.043 A 
HETATM    7  N   UNK N   1       0.113  -2.520   0.098  0.00  0.00    -0.365 N 
ATOM      8  HN  UNK N   1      -0.006  -3.526   0.222  1.00  0.00     0.165 HD
HETATM    9  C   UNK N   1       0.458   0.232  -0.240  0.00  0.00    -0.014 A 
HETATM   10  C   UNK N   1       1.549  -0.647  -0.271  0.00  0.00     0.027 A 
HETATM   11  C   UNK N   1       1.359  -2.019  -0.097  0.00  0.00     0.089 A 
ENDROOT
BRANCH   9  12
HETATM   12  C   UNK N   1       0.732   1.721  -0.457  0.00  0.00     0.185 C 
BRANCH  12  13
HETATM   13  C   UNK N   1       1.678   2.346   0.597  0.00  0.00     0.256 C 
HETATM   14  C   UNK N   1       1.668   3.890   0.441  0.00  0.00     0.044 C 
HETATM   15  C   UNK N   1       3.033   4.382  -0.034  0.00  0.00    -0.001 C 
HETATM   16  C   UNK N   1       4.035   4.047   1.080  0.00  0.00     0.040 C 
HETATM   17  C   UNK N   1       3.408   3.582  -1.293  0.00  0.00     0.035 C 
HETATM   18  C   UNK N   1       3.972   2.521   1.381  0.00  0.00     0.282 C 
HETATM   19  N   UNK N   1       3.064   1.825   0.444  0.00  0.00     0.096 N 
HETATM   20  C   UNK N   1       3.552   2.088  -0.927  0.00  0.00     0.273 C 
BRANCH  16  21
HETATM   21  C   UNK N   1       5.407   4.554   0.709  0.00  0.00    -0.030 C 
HETATM   22  C   UNK N   1       6.454   3.749   0.524  0.00  0.00     0.007 C 
ENDBRANCH  16  21
ENDBRANCH  12  13
BRANCH  12  23
HETATM   23  O   UNK N   1      -0.434   2.485  -0.567  0.00  0.00    -0.389 OA
HETATM   24  H   UNK N   1      -0.379   3.450  -0.643  0.00  0.00     0.210 HD
ENDBRANCH  12  23
ENDBRANCH   9  12
BRANCH   3  25
HETATM   25  O   UNK N   1      -4.323   0.765   0.227  0.00  0.00    -0.356 OA
HETATM   26  C   UNK N   1      -5.614   0.326   0.405  0.00  0.00     0.210 C 
ENDBRANCH   3  25
TORSDOF 5
