REMARK  8 active torsions:
REMARK  status: ('A' for Active; 'I' for Inactive)
REMARK    1  A    between atoms: C_1  and  O_30 
REMARK    2  A    between atoms: C_11  and  C_8 
REMARK    3  A    between atoms: C_15  and  O_38 
REMARK    4  A    between atoms: C_28  and  C_17 
REMARK    5  A    between atoms: C_18  and  O_40 
REMARK    6  A    between atoms: C_20  and  O_41 
REMARK    7  A    between atoms: C_23  and  C_49 
REMARK    8  A    between atoms: C_27  and  O_43 
ROOT
HETATM    1  C   UNK N   1      -4.497  -0.791   0.131  0.00  0.00     0.238 C 
HETATM    2  C   UNK N   1      -4.367   0.726   0.106  0.00  0.00     0.278 C 
HETATM    3  C   UNK N   1      -3.336   1.434   0.878  0.00  0.00     0.296 C 
HETATM    4  N   UNK N   1      -3.281   2.796   0.823  0.00  0.00    -0.331 N 
HETATM    5  O   UNK N   1      -3.195  -1.399  -0.034  0.00  0.00    -0.338 OA
HETATM    6  O   UNK N   1      -0.296   1.853   0.604  0.00  0.00    -0.309 OA
HETATM    7  C   UNK N   1      -1.051   2.572  -0.271  0.00  0.00     0.282 C 
HETATM    8  C   UNK N   1       0.972   1.332   0.395  0.00  0.00     0.166 C 
HETATM    9  C   UNK N   1      -3.169  -2.563  -0.867  0.00  0.00     0.183 C 
HETATM   10  C   UNK N   1      -2.119   3.507   0.270  0.00  0.00     0.187 C 
HETATM   11  C   UNK N   1       0.944  -0.203   0.477  0.00  0.00     0.044 C 
HETATM   12  C   UNK N   1      -5.520  -1.234  -0.964  0.00  0.00     0.055 C 
HETATM   13  C   UNK N   1       3.416  -1.785  -1.126  0.00  0.00     0.137 C 
HETATM   14  C   UNK N   1       2.285  -0.826   0.898  0.00  0.00     0.131 C 
HETATM   15  C   UNK N   1       3.426  -0.680  -0.105  0.00  0.00     0.111 C 
HETATM   16  C   UNK N   1      -4.400  -3.465  -0.635  0.00  0.00     0.153 C 
HETATM   17  C   UNK N   1       2.271  -3.568   0.091  0.00  0.00    -0.012 C 
HETATM   18  C   UNK N   1      -1.843  -3.370  -0.719  0.00  0.00     0.152 C 
HETATM   19  C   UNK N   1       1.975  -4.750   0.637  0.00  0.00    -0.086 C 
HETATM   20  C   UNK N   1      -5.677  -2.742  -1.037  0.00  0.00     0.044 C 
HETATM   21  C   UNK N   1       3.500  -3.233  -0.710  0.00  0.00     0.078 C 
HETATM   22  O   UNK N   1      -5.037   1.386  -0.681  0.00  0.00    -0.281 OA
HETATM   23  O   UNK N   1      -2.407   0.788   1.350  0.00  0.00    -0.264 OA
HETATM   24  O   UNK N   1      -0.882   2.460  -1.480  0.00  0.00    -0.263 OA
HETATM   25  C   UNK N   1      -1.542  -4.025   0.650  0.00  0.00     0.039 C 
HETATM   26  O   UNK N   1       3.367  -1.504  -2.312  0.00  0.00    -0.297 OA
HETATM   27  C   UNK N   1       0.723  -4.865   1.448  0.00  0.00     0.037 C 
HETATM   28  C   UNK N   1      -0.468  -5.116   0.542  0.00  0.00    -0.012 C 
HETATM   29  C   UNK N   1      -4.499   3.556   1.091  0.00  0.00     0.127 C 
HETATM   30  C   UNK N   1       0.284  -0.898  -0.705  0.00  0.00     0.015 C 
HETATM   31  C   UNK N   1      -2.602   4.374  -0.913  0.00  0.00     0.035 C 
HETATM   32  C   UNK N   1      -6.904  -0.615  -0.829  0.00  0.00     0.016 C 
HETATM   33  C   UNK N   1       2.886  -5.929   0.510  0.00  0.00     0.043 C 
HETATM   34  C   UNK N   1      -1.067  -6.466   0.884  0.00  0.00     0.010 C 
HETATM   35  C   UNK N   1      -4.920   4.411  -0.090  0.00  0.00     0.020 C 
HETATM   36  C   UNK N   1      -3.755   5.280  -0.517  0.00  0.00     0.004 C 
ENDROOT
BRANCH   8  37
HETATM   37  C   UNK N   1       1.668   1.971  -0.809  0.00  0.00    -0.058 C 
HETATM   38  C   UNK N   1       2.004   3.272  -0.780  0.00  0.00    -0.017 C 
HETATM   39  C   UNK N   1       1.818   1.244  -2.106  0.00  0.00     0.046 C 
BRANCH  38  40
HETATM   40  C   UNK N   1       1.975   4.114   0.479  0.00  0.00     0.011 C 
HETATM   41  C   UNK N   1       3.144   3.688   1.382  0.00  0.00     0.042 C 
HETATM   42  C   UNK N   1       4.502   3.820   0.656  0.00  0.00     0.139 C 
HETATM   43  C   UNK N   1       4.483   4.926  -0.415  0.00  0.00     0.111 C 
HETATM   44  C   UNK N   1       3.569   6.082  -0.031  0.00  0.00     0.023 C 
HETATM   45 Cl   UNK N   1       6.123   5.495  -0.791  0.00  0.00    -0.122 Cl
HETATM   46  C   UNK N   1       2.117   5.606   0.146  0.00  0.00     0.010 C 
BRANCH  42  47
HETATM   47  O   UNK N   1       4.823   2.607   0.035  0.00  0.00    -0.389 OA
HETATM   48  C   UNK N   1       5.917   2.105   0.737  0.00  0.00     0.202 C 
ENDBRANCH  42  47
ENDBRANCH  38  40
ENDBRANCH   8  37
BRANCH  14  49
HETATM   49  O   UNK N   1       2.685  -0.336   2.143  0.00  0.00    -0.395 OA
HETATM   50  H   UNK N   1       3.119  -0.407   3.007  0.00  0.00     0.210 HD
ENDBRANCH  14  49
BRANCH  21  51
HETATM   51  C   UNK N   1       4.768  -3.474   0.108  0.00  0.00     0.011 C 
HETATM   52  C   UNK N   1       6.006  -3.375  -0.766  0.00  0.00     0.006 C 
ENDBRANCH  21  51
BRANCH   1  53
HETATM   53  O   UNK N   1      -4.986  -1.143   1.391  0.00  0.00    -0.359 OA
HETATM   54  H   UNK N   1      -5.368  -0.971   2.266  0.00  0.00     0.213 HD
ENDBRANCH   1  53
BRANCH  18  55
HETATM   55  O   UNK N   1      -1.564  -4.198  -1.837  0.00  0.00    -0.388 OA
HETATM   56  C   UNK N   1      -2.444  -5.291  -1.857  0.00  0.00     0.202 C 
ENDBRANCH  18  55
BRANCH  16  57
HETATM   57  O   UNK N   1      -4.486  -3.842   0.710  0.00  0.00    -0.388 OA
HETATM   58  C   UNK N   1      -4.898  -5.175   0.694  0.00  0.00     0.202 C 
ENDBRANCH  16  57
TORSDOF 8
