MODEL 1
REMARK VINA RESULT:      -7.1      0.000      0.000
REMARK  3 active torsions:
REMARK  status: ('A' for Active; 'I' for Inactive)
REMARK    1  A    between atoms: C_3  and  O_8 
REMARK    2  A    between atoms: C_7  and  C_14 
REMARK       I    between atoms: C_14  and  N_16 
REMARK    3  A    between atoms: N_16  and  C_18 
ROOT
HETATM    1  C   UNK N   1      21.718  13.853   9.059  0.00  0.00     0.023 A 
HETATM    2  C   UNK N   1      22.921  13.141   8.992  0.00  0.00     0.093 A 
HETATM    3  C   UNK N   1      21.361  14.971   8.122  0.00  0.00     0.110 A 
HETATM    4  C   UNK N   1      20.801  13.516  10.071  0.00  0.00     0.016 A 
HETATM    5  S   UNK N   1      24.081  13.567   7.760  0.00  0.00     0.266 S 
HETATM    6  C   UNK N   1      23.206  12.119   9.902  0.00  0.00     0.026 A 
HETATM    7  C   UNK N   1      22.151  15.450   7.086  0.00  0.00     0.146 A 
HETATM    8  C   UNK N   1      21.082  12.496  10.984  0.00  0.00     0.001 A 
HETATM    9  N   UNK N   1      23.453  14.874   6.798  0.00  0.00    -0.268 N 
HETATM   10  O   UNK N   1      24.438  12.455   6.761  0.00  0.00    -0.200 OA
HETATM   11  O   UNK N   1      25.426  14.079   8.293  0.00  0.00    -0.200 OA
HETATM   12  C   UNK N   1      22.285  11.796  10.899  0.00  0.00     0.002 A 
HETATM   13  C   UNK N   1      24.289  15.342   5.720  0.00  0.00     0.170 C 
ENDROOT
BRANCH   7  14
HETATM   14  C   UNK N   1      21.639  16.622   6.254  0.00  0.00     0.277 C 
HETATM   15  N   UNK N   1      21.281  16.451   4.954  0.00  0.00    -0.302 N 
HETATM   16  H   UNK N   1      21.334  15.539   4.587  0.00  0.00     0.171 HD
HETATM   17  O   UNK N   1      21.597  17.744   6.741  0.00  0.00    -0.265 OA
BRANCH  15  18
HETATM   18  C   UNK N   1      20.834  17.481   4.078  0.00  0.00     0.151 A 
HETATM   19  N   UNK N   1      19.576  17.521   3.571  0.00  0.00    -0.345 N 
HETATM   20  C   UNK N   1      19.394  18.575   2.696  0.00  0.00     0.104 A 
ATOM     21  HN  UNK N   1      18.848  16.848   3.808  1.00  0.00     0.167 HD
HETATM   22  C   UNK N   1      20.529  19.378   2.518  0.00  0.00    -0.003 A 
HETATM   23  S   UNK N   1      21.721  18.739   3.462  0.00  0.00    -0.058 SA
HETATM   24  C   UNK N   1      20.648  20.565   1.633  0.00  0.00     0.058 C 
ENDBRANCH  15  18
ENDBRANCH   7  14
BRANCH   3  25
HETATM   25  O   UNK N   1      20.160  15.549   8.348  0.00  0.00    -0.357 OA
HETATM   26  H   UNK N   1      20.087  16.267   8.947  0.00  0.00     0.217 HD
ENDBRANCH   3  25
TORSDOF 3
ENDMDL
MODEL 2
REMARK VINA RESULT:      -7.1     12.466     15.351
REMARK  3 active torsions:
REMARK  status: ('A' for Active; 'I' for Inactive)
REMARK    1  A    between atoms: C_3  and  O_8 
REMARK    2  A    between atoms: C_7  and  C_14 
REMARK       I    between atoms: C_14  and  N_16 
REMARK    3  A    between atoms: N_16  and  C_18 
ROOT
HETATM    1  C   UNK N   1      33.975  16.342   7.222  0.00  0.00     0.023 A 
HETATM    2  C   UNK N   1      34.503  15.641   6.131  0.00  0.00     0.093 A 
HETATM    3  C   UNK N   1      34.470  16.180   8.631  0.00  0.00     0.110 A 
HETATM    4  C   UNK N   1      32.914  17.234   6.989  0.00  0.00     0.016 A 
HETATM    5  S   UNK N   1      35.802  14.510   6.409  0.00  0.00     0.266 S 
HETATM    6  C   UNK N   1      33.991  15.822   4.843  0.00  0.00     0.026 A 
HETATM    7  C   UNK N   1      35.489  15.333   9.045  0.00  0.00     0.146 A 
HETATM    8  C   UNK N   1      32.397  17.417   5.703  0.00  0.00     0.001 A 
HETATM    9  N   UNK N   1      36.207  14.495   8.101  0.00  0.00    -0.268 N 
HETATM   10  O   UNK N   1      37.118  14.806   5.672  0.00  0.00    -0.200 OA
HETATM   11  O   UNK N   1      35.467  13.051   6.068  0.00  0.00    -0.200 OA
HETATM   12  C   UNK N   1      32.938  16.711   4.629  0.00  0.00     0.002 A 
HETATM   13  C   UNK N   1      37.278  13.615   8.500  0.00  0.00     0.170 C 
ENDROOT
BRANCH   7  14
HETATM   14  C   UNK N   1      35.836  15.272  10.529  0.00  0.00     0.277 C 
HETATM   15  N   UNK N   1      35.492  14.194  11.283  0.00  0.00    -0.302 N 
HETATM   16  H   UNK N   1      35.042  13.448  10.824  0.00  0.00     0.171 HD
HETATM   17  O   UNK N   1      36.386  16.224  11.067  0.00  0.00    -0.265 OA
BRANCH  15  18
HETATM   18  C   UNK N   1      35.727  14.054  12.680  0.00  0.00     0.151 A 
HETATM   19  N   UNK N   1      36.626  14.816  13.354  0.00  0.00    -0.345 N 
HETATM   20  C   UNK N   1      36.728  14.457  14.684  0.00  0.00     0.104 A 
ATOM     21  HN  UNK N   1      37.165  15.568  12.927  1.00  0.00     0.167 HD
HETATM   22  C   UNK N   1      35.890  13.396  15.061  0.00  0.00    -0.003 A 
HETATM   23  S   UNK N   1      35.053  12.947  13.713  0.00  0.00    -0.058 SA
HETATM   24  C   UNK N   1      35.789  12.778  16.407  0.00  0.00     0.058 C 
ENDBRANCH  15  18
ENDBRANCH   7  14
BRANCH   3  25
HETATM   25  O   UNK N   1      33.832  16.934   9.554  0.00  0.00    -0.357 OA
HETATM   26  H   UNK N   1      32.907  17.075   9.489  0.00  0.00     0.217 HD
ENDBRANCH   3  25
TORSDOF 3
ENDMDL
MODEL 3
REMARK VINA RESULT:      -7.0      2.870      7.795
REMARK  3 active torsions:
REMARK  status: ('A' for Active; 'I' for Inactive)
REMARK    1  A    between atoms: C_3  and  O_8 
REMARK    2  A    between atoms: C_7  and  C_14 
REMARK       I    between atoms: C_14  and  N_16 
REMARK    3  A    between atoms: N_16  and  C_18 
ROOT
HETATM    1  C   UNK N   1      24.148  18.541   4.245  0.00  0.00     0.023 A 
HETATM    2  C   UNK N   1      23.235  19.332   3.539  0.00  0.00     0.093 A 
HETATM    3  C   UNK N   1      23.755  17.326   5.037  0.00  0.00     0.110 A 
HETATM    4  C   UNK N   1      25.504  18.912   4.226  0.00  0.00     0.016 A 
HETATM    5  S   UNK N   1      21.545  18.900   3.577  0.00  0.00     0.266 S 
HETATM    6  C   UNK N   1      23.656  20.462   2.831  0.00  0.00     0.026 A 
HETATM    7  C   UNK N   1      22.468  16.829   5.184  0.00  0.00     0.146 A 
HETATM    8  C   UNK N   1      25.930  20.041   3.521  0.00  0.00     0.001 A 
HETATM    9  N   UNK N   1      21.332  17.469   4.543  0.00  0.00    -0.268 N 
HETATM   10  O   UNK N   1      20.904  18.579   2.217  0.00  0.00    -0.200 OA
HETATM   11  O   UNK N   1      20.627  19.951   4.217  0.00  0.00    -0.200 OA
HETATM   12  C   UNK N   1      25.005  20.816   2.822  0.00  0.00     0.002 A 
HETATM   13  C   UNK N   1      19.986  16.968   4.668  0.00  0.00     0.170 C 
ENDROOT
BRANCH   7  14
HETATM   14  C   UNK N   1      22.251  15.599   6.059  0.00  0.00     0.277 C 
HETATM   15  N   UNK N   1      21.972  15.724   7.383  0.00  0.00    -0.302 N 
HETATM   16  H   UNK N   1      21.885  16.637   7.741  0.00  0.00     0.171 HD
HETATM   17  O   UNK N   1      22.377  14.479   5.580  0.00  0.00    -0.265 OA
BRANCH  15  18
HETATM   18  C   UNK N   1      21.795  14.646   8.296  0.00  0.00     0.151 A 
HETATM   19  N   UNK N   1      22.490  13.484   8.205  0.00  0.00    -0.345 N 
HETATM   20  C   UNK N   1      22.103  12.563   9.160  0.00  0.00     0.104 A 
ATOM     21  HN  UNK N   1      23.215  13.310   7.510  1.00  0.00     0.167 HD
HETATM   22  C   UNK N   1      21.089  13.013  10.017  0.00  0.00    -0.003 A 
HETATM   23  S   UNK N   1      20.713  14.548   9.548  0.00  0.00    -0.058 SA
HETATM   24  C   UNK N   1      20.456  12.250  11.123  0.00  0.00     0.058 C 
ENDBRANCH  15  18
ENDBRANCH   7  14
BRANCH   3  25
HETATM   25  O   UNK N   1      24.775  16.693   5.660  0.00  0.00    -0.357 OA
HETATM   26  H   UNK N   1      25.659  16.971   5.518  0.00  0.00     0.217 HD
ENDBRANCH   3  25
TORSDOF 3
ENDMDL
MODEL 4
REMARK VINA RESULT:      -6.8      9.365     12.823
REMARK  3 active torsions:
REMARK  status: ('A' for Active; 'I' for Inactive)
REMARK    1  A    between atoms: C_3  and  O_8 
REMARK    2  A    between atoms: C_7  and  C_14 
REMARK       I    between atoms: C_14  and  N_16 
REMARK    3  A    between atoms: N_16  and  C_18 
ROOT
HETATM    1  C   UNK N   1      30.181  17.522   7.135  0.00  0.00     0.023 A 
HETATM    2  C   UNK N   1      30.266  17.398   5.744  0.00  0.00     0.093 A 
HETATM    3  C   UNK N   1      31.315  17.203   8.067  0.00  0.00     0.110 A 
HETATM    4  C   UNK N   1      28.964  17.953   7.691  0.00  0.00     0.016 A 
HETATM    5  S   UNK N   1      31.761  16.837   5.040  0.00  0.00     0.266 S 
HETATM    6  C   UNK N   1      29.172  17.695   4.925  0.00  0.00     0.026 A 
HETATM    7  C   UNK N   1      32.572  16.747   7.697  0.00  0.00     0.146 A 
HETATM    8  C   UNK N   1      27.867  18.250   6.879  0.00  0.00     0.001 A 
HETATM    9  N   UNK N   1      32.921  16.537   6.302  0.00  0.00    -0.268 N 
HETATM   10  O   UNK N   1      32.450  17.807   4.068  0.00  0.00    -0.200 OA
HETATM   11  O   UNK N   1      31.654  15.509   4.277  0.00  0.00    -0.200 OA
HETATM   12  C   UNK N   1      27.972  18.122   5.494  0.00  0.00     0.002 A 
HETATM   13  C   UNK N   1      34.222  16.077   5.887  0.00  0.00     0.170 C 
ENDROOT
BRANCH   7  14
HETATM   14  C   UNK N   1      33.593  16.439   8.787  0.00  0.00     0.277 C 
HETATM   15  N   UNK N   1      33.513  15.295   9.517  0.00  0.00    -0.302 N 
HETATM   16  H   UNK N   1      32.791  14.665   9.289  0.00  0.00     0.171 HD
HETATM   17  O   UNK N   1      34.470  17.252   9.049  0.00  0.00    -0.265 OA
BRANCH  15  18
HETATM   18  C   UNK N   1      34.383  14.931  10.582  0.00  0.00     0.151 A 
HETATM   19  N   UNK N   1      34.914  15.839  11.441  0.00  0.00    -0.345 N 
HETATM   20  C   UNK N   1      35.779  15.261  12.351  0.00  0.00     0.104 A 
ATOM     21  HN  UNK N   1      34.699  16.835  11.416  1.00  0.00     0.167 HD
HETATM   22  C   UNK N   1      35.925  13.874  12.205  0.00  0.00    -0.003 A 
HETATM   23  S   UNK N   1      34.967  13.422  10.942  0.00  0.00    -0.058 SA
HETATM   24  C   UNK N   1      36.792  12.982  13.016  0.00  0.00     0.058 C 
ENDBRANCH  15  18
ENDBRANCH   7  14
BRANCH   3  25
HETATM   25  O   UNK N   1      31.044  17.375   9.381  0.00  0.00    -0.357 OA
HETATM   26  H   UNK N   1      30.603  18.149   9.673  0.00  0.00     0.217 HD
ENDBRANCH   3  25
TORSDOF 3
ENDMDL
MODEL 5
REMARK VINA RESULT:      -6.8      2.860      5.245
REMARK  3 active torsions:
REMARK  status: ('A' for Active; 'I' for Inactive)
REMARK    1  A    between atoms: C_3  and  O_8 
REMARK    2  A    between atoms: C_7  and  C_14 
REMARK       I    between atoms: C_14  and  N_16 
REMARK    3  A    between atoms: N_16  and  C_18 
ROOT
HETATM    1  C   UNK N   1      22.878  13.387   9.049  0.00  0.00     0.023 A 
HETATM    2  C   UNK N   1      21.593  13.928   9.167  0.00  0.00     0.093 A 
HETATM    3  C   UNK N   1      23.883  13.850   8.033  0.00  0.00     0.110 A 
HETATM    4  C   UNK N   1      23.242  12.341   9.916  0.00  0.00     0.016 A 
HETATM    5  S   UNK N   1      21.116  15.206   8.080  0.00  0.00     0.266 S 
HETATM    6  C   UNK N   1      20.693  13.446  10.123  0.00  0.00     0.026 A 
HETATM    7  C   UNK N   1      23.688  14.849   7.089  0.00  0.00     0.146 A 
HETATM    8  C   UNK N   1      22.346  11.854  10.871  0.00  0.00     0.001 A 
HETATM    9  N   UNK N   1      22.434  15.576   7.005  0.00  0.00    -0.268 N 
HETATM   10  O   UNK N   1      20.735  16.542   8.740  0.00  0.00    -0.200 OA
HETATM   11  O   UNK N   1      19.938  14.861   7.158  0.00  0.00    -0.200 OA
HETATM   12  C   UNK N   1      21.070  12.409  10.975  0.00  0.00     0.002 A 
HETATM   13  C   UNK N   1      22.207  16.627   6.044  0.00  0.00     0.170 C 
ENDROOT
BRANCH   7  14
HETATM   14  C   UNK N   1      24.814  15.163   6.110  0.00  0.00     0.277 C 
HETATM   15  N   UNK N   1      25.842  15.978   6.465  0.00  0.00    -0.302 N 
HETATM   16  H   UNK N   1      25.844  16.326   7.386  0.00  0.00     0.171 HD
HETATM   17  O   UNK N   1      24.772  14.721   4.969  0.00  0.00    -0.265 OA
BRANCH  15  18
HETATM   18  C   UNK N   1      26.916  16.371   5.618  0.00  0.00     0.151 A 
HETATM   19  N   UNK N   1      26.723  16.929   4.396  0.00  0.00    -0.345 N 
HETATM   20  C   UNK N   1      27.911  17.167   3.732  0.00  0.00     0.104 A 
ATOM     21  HN  UNK N   1      25.805  17.148   4.012  1.00  0.00     0.167 HD
HETATM   22  C   UNK N   1      29.057  16.791   4.448  0.00  0.00    -0.003 A 
HETATM   23  S   UNK N   1      28.541  16.174   5.887  0.00  0.00    -0.058 SA
HETATM   24  C   UNK N   1      30.466  16.904   3.994  0.00  0.00     0.058 C 
ENDBRANCH  15  18
ENDBRANCH   7  14
BRANCH   3  25
HETATM   25  O   UNK N   1      25.069  13.202   8.063  0.00  0.00    -0.357 OA
HETATM   26  H   UNK N   1      25.138  12.331   7.722  0.00  0.00     0.217 HD
ENDBRANCH   3  25
TORSDOF 3
ENDMDL
MODEL 6
REMARK VINA RESULT:      -6.8     12.457     15.580
REMARK  3 active torsions:
REMARK  status: ('A' for Active; 'I' for Inactive)
REMARK    1  A    between atoms: C_3  and  O_8 
REMARK    2  A    between atoms: C_7  and  C_14 
REMARK       I    between atoms: C_14  and  N_16 
REMARK    3  A    between atoms: N_16  and  C_18 
ROOT
HETATM    1  C   UNK N   1      34.407  15.583   6.019  0.00  0.00     0.023 A 
HETATM    2  C   UNK N   1      33.873  16.850   6.279  0.00  0.00     0.093 A 
HETATM    3  C   UNK N   1      35.166  14.778   7.034  0.00  0.00     0.110 A 
HETATM    4  C   UNK N   1      34.237  15.041   4.732  0.00  0.00     0.016 A 
HETATM    5  S   UNK N   1      34.099  17.547   7.862  0.00  0.00     0.266 S 
HETATM    6  C   UNK N   1      33.187  17.561   5.289  0.00  0.00     0.026 A 
HETATM    7  C   UNK N   1      35.446  15.163   8.338  0.00  0.00     0.146 A 
HETATM    8  C   UNK N   1      33.555  15.748   3.739  0.00  0.00     0.001 A 
HETATM    9  N   UNK N   1      34.996  16.441   8.862  0.00  0.00    -0.268 N 
HETATM   10  O   UNK N   1      32.815  17.864   8.646  0.00  0.00    -0.200 OA
HETATM   11  O   UNK N   1      34.915  18.848   7.881  0.00  0.00    -0.200 OA
HETATM   12  C   UNK N   1      33.027  17.009   4.018  0.00  0.00     0.002 A 
HETATM   13  C   UNK N   1      35.259  16.862  10.215  0.00  0.00     0.170 C 
ENDROOT
BRANCH   7  14
HETATM   14  C   UNK N   1      36.264  14.227   9.221  0.00  0.00     0.277 C 
HETATM   15  N   UNK N   1      35.699  13.600  10.286  0.00  0.00    -0.302 N 
HETATM   16  H   UNK N   1      34.739  13.751  10.440  0.00  0.00     0.171 HD
HETATM   17  O   UNK N   1      37.459  14.074   9.004  0.00  0.00    -0.265 OA
BRANCH  15  18
HETATM   18  C   UNK N   1      36.380  12.745  11.198  0.00  0.00     0.151 A 
HETATM   19  N   UNK N   1      36.975  11.586  10.815  0.00  0.00    -0.345 N 
HETATM   20  C   UNK N   1      37.516  10.894  11.881  0.00  0.00     0.104 A 
ATOM     21  HN  UNK N   1      37.018  11.263   9.849  1.00  0.00     0.167 HD
HETATM   22  C   UNK N   1      37.345  11.523  13.123  0.00  0.00    -0.003 A 
HETATM   23  S   UNK N   1      36.522  12.924  12.840  0.00  0.00    -0.058 SA
HETATM   24  C   UNK N   1      37.796  11.019  14.445  0.00  0.00     0.058 C 
ENDBRANCH  15  18
ENDBRANCH   7  14
BRANCH   3  25
HETATM   25  O   UNK N   1      35.615  13.579   6.597  0.00  0.00    -0.357 OA
HETATM   26  H   UNK N   1      36.253  13.537   5.912  0.00  0.00     0.217 HD
ENDBRANCH   3  25
TORSDOF 3
ENDMDL
MODEL 7
REMARK VINA RESULT:      -6.8      6.143      8.320
REMARK  3 active torsions:
REMARK  status: ('A' for Active; 'I' for Inactive)
REMARK    1  A    between atoms: C_3  and  O_8 
REMARK    2  A    between atoms: C_7  and  C_14 
REMARK       I    between atoms: C_14  and  N_16 
REMARK    3  A    between atoms: N_16  and  C_18 
ROOT
HETATM    1  C   UNK N   1      31.237  17.374   5.655  0.00  0.00     0.023 A 
HETATM    2  C   UNK N   1      31.709  17.452   6.971  0.00  0.00     0.093 A 
HETATM    3  C   UNK N   1      29.780  17.397   5.293  0.00  0.00     0.110 A 
HETATM    4  C   UNK N   1      32.179  17.249   4.618  0.00  0.00     0.016 A 
HETATM    5  S   UNK N   1      30.552  17.578   8.271  0.00  0.00     0.266 S 
HETATM    6  C   UNK N   1      33.078  17.410   7.250  0.00  0.00     0.026 A 
HETATM    7  C   UNK N   1      28.719  17.492   6.183  0.00  0.00     0.146 A 
HETATM    8  C   UNK N   1      33.548  17.205   4.891  0.00  0.00     0.001 A 
HETATM    9  N   UNK N   1      28.940  17.592   7.615  0.00  0.00    -0.268 N 
HETATM   10  O   UNK N   1      30.654  18.842   9.140  0.00  0.00    -0.200 OA
HETATM   11  O   UNK N   1      30.567  16.405   9.261  0.00  0.00    -0.200 OA
HETATM   12  C   UNK N   1      33.998  17.287   6.209  0.00  0.00     0.002 A 
HETATM   13  C   UNK N   1      27.859  17.705   8.562  0.00  0.00     0.170 C 
ENDROOT
BRANCH   7  14
HETATM   14  C   UNK N   1      27.296  17.466   5.635  0.00  0.00     0.277 C 
HETATM   15  N   UNK N   1      26.584  18.614   5.487  0.00  0.00    -0.302 N 
HETATM   16  H   UNK N   1      27.036  19.458   5.715  0.00  0.00     0.171 HD
HETATM   17  O   UNK N   1      26.763  16.395   5.372  0.00  0.00    -0.265 OA
BRANCH  15  18
HETATM   18  C   UNK N   1      25.239  18.698   5.028  0.00  0.00     0.151 A 
HETATM   19  N   UNK N   1      24.258  17.868   5.468  0.00  0.00    -0.345 N 
HETATM   20  C   UNK N   1      23.052  18.097   4.835  0.00  0.00     0.104 A 
ATOM     21  HN  UNK N   1      24.397  17.156   6.184  1.00  0.00     0.167 HD
HETATM   22  C   UNK N   1      23.085  19.127   3.884  0.00  0.00    -0.003 A 
HETATM   23  S   UNK N   1      24.626  19.714   3.870  0.00  0.00    -0.058 SA
HETATM   24  C   UNK N   1      21.959  19.590   3.034  0.00  0.00     0.058 C 
ENDBRANCH  15  18
ENDBRANCH   7  14
BRANCH   3  25
HETATM   25  O   UNK N   1      29.516  17.302   3.970  0.00  0.00    -0.357 OA
HETATM   26  H   UNK N   1      28.871  16.695   3.661  0.00  0.00     0.217 HD
ENDBRANCH   3  25
TORSDOF 3
ENDMDL
MODEL 8
REMARK VINA RESULT:      -6.8     13.378     15.770
REMARK  3 active torsions:
REMARK  status: ('A' for Active; 'I' for Inactive)
REMARK    1  A    between atoms: C_3  and  O_8 
REMARK    2  A    between atoms: C_7  and  C_14 
REMARK       I    between atoms: C_14  and  N_16 
REMARK    3  A    between atoms: N_16  and  C_18 
ROOT
HETATM    1  C   UNK N   1      35.633  11.431  16.225  0.00  0.00     0.023 A 
HETATM    2  C   UNK N   1      36.550  10.377  16.303  0.00  0.00     0.093 A 
HETATM    3  C   UNK N   1      35.238  12.094  14.937  0.00  0.00     0.110 A 
HETATM    4  C   UNK N   1      35.062  11.906  17.419  0.00  0.00     0.016 A 
HETATM    5  S   UNK N   1      37.287   9.795  14.833  0.00  0.00     0.266 S 
HETATM    6  C   UNK N   1      36.891   9.808  17.533  0.00  0.00     0.026 A 
HETATM    7  C   UNK N   1      35.715  11.772  13.674  0.00  0.00     0.146 A 
HETATM    8  C   UNK N   1      35.401  11.342  18.652  0.00  0.00     0.001 A 
HETATM    9  N   UNK N   1      36.679  10.703  13.478  0.00  0.00    -0.268 N 
HETATM   10  O   UNK N   1      37.028   8.320  14.490  0.00  0.00    -0.200 OA
HETATM   11  O   UNK N   1      38.812   9.962  14.768  0.00  0.00    -0.200 OA
HETATM   12  C   UNK N   1      36.316  10.290  18.709  0.00  0.00     0.002 A 
HETATM   13  C   UNK N   1      37.182  10.338  12.178  0.00  0.00     0.170 C 
ENDROOT
BRANCH   7  14
HETATM   14  C   UNK N   1      35.226  12.580  12.476  0.00  0.00     0.277 C 
HETATM   15  N   UNK N   1      35.327  13.935  12.460  0.00  0.00    -0.302 N 
HETATM   16  H   UNK N   1      35.755  14.365  13.235  0.00  0.00     0.171 HD
HETATM   17  O   UNK N   1      34.690  12.011  11.534  0.00  0.00    -0.265 OA
BRANCH  15  18
HETATM   18  C   UNK N   1      34.865  14.786  11.416  0.00  0.00     0.151 A 
HETATM   19  N   UNK N   1      33.756  14.514  10.682  0.00  0.00    -0.345 N 
HETATM   20  C   UNK N   1      33.542  15.447   9.686  0.00  0.00     0.104 A 
ATOM     21  HN  UNK N   1      33.150  13.711  10.847  1.00  0.00     0.167 HD
HETATM   22  C   UNK N   1      34.498  16.472   9.640  0.00  0.00    -0.003 A 
HETATM   23  S   UNK N   1      35.578  16.171  10.850  0.00  0.00    -0.058 SA
HETATM   24  C   UNK N   1      34.547  17.601   8.677  0.00  0.00     0.058 C 
ENDBRANCH  15  18
ENDBRANCH   7  14
BRANCH   3  25
HETATM   25  O   UNK N   1      34.345  13.102  15.060  0.00  0.00    -0.357 OA
HETATM   26  H   UNK N   1      34.600  13.911  15.460  0.00  0.00     0.217 HD
ENDBRANCH   3  25
TORSDOF 3
ENDMDL
MODEL 9
REMARK VINA RESULT:      -6.7     15.603     16.280
REMARK  3 active torsions:
REMARK  status: ('A' for Active; 'I' for Inactive)
REMARK    1  A    between atoms: C_3  and  O_8 
REMARK    2  A    between atoms: C_7  and  C_14 
REMARK       I    between atoms: C_14  and  N_16 
REMARK    3  A    between atoms: N_16  and  C_18 
ROOT
HETATM    1  C   UNK N   1      31.710  21.742  -3.776  0.00  0.00     0.023 A 
HETATM    2  C   UNK N   1      31.775  21.000  -4.961  0.00  0.00     0.093 A 
HETATM    3  C   UNK N   1      30.644  22.761  -3.493  0.00  0.00     0.110 A 
HETATM    4  C   UNK N   1      32.706  21.535  -2.806  0.00  0.00     0.016 A 
HETATM    5  S   UNK N   1      30.562  21.266  -6.186  0.00  0.00     0.266 S 
HETATM    6  C   UNK N   1      32.801  20.075  -5.177  0.00  0.00     0.026 A 
HETATM    7  C   UNK N   1      29.601  23.109  -4.340  0.00  0.00     0.146 A 
HETATM    8  C   UNK N   1      33.735  20.614  -3.017  0.00  0.00     0.001 A 
HETATM    9  N   UNK N   1      29.438  22.477  -5.638  0.00  0.00    -0.268 N 
HETATM   10  O   UNK N   1      29.705  20.046  -6.558  0.00  0.00    -0.200 OA
HETATM   11  O   UNK N   1      31.102  21.802  -7.520  0.00  0.00    -0.200 OA
HETATM   12  C   UNK N   1      33.781  19.881  -4.203  0.00  0.00     0.002 A 
HETATM   13  C   UNK N   1      28.358  22.808  -6.534  0.00  0.00     0.170 C 
ENDROOT
BRANCH   7  14
HETATM   14  C   UNK N   1      28.626  24.196  -3.899  0.00  0.00     0.277 C 
HETATM   15  N   UNK N   1      28.688  25.446  -4.430  0.00  0.00    -0.302 N 
HETATM   16  H   UNK N   1      29.362  25.607  -5.128  0.00  0.00     0.171 HD
HETATM   17  O   UNK N   1      27.808  23.961  -3.020  0.00  0.00    -0.265 OA
BRANCH  15  18
HETATM   18  C   UNK N   1      27.858  26.542  -4.059  0.00  0.00     0.151 A 
HETATM   19  N   UNK N   1      26.556  26.393  -3.708  0.00  0.00    -0.345 N 
HETATM   20  C   UNK N   1      25.938  27.602  -3.452  0.00  0.00     0.104 A 
ATOM     21  HN  UNK N   1      26.087  25.491  -3.641  1.00  0.00     0.167 HD
HETATM   22  C   UNK N   1      26.772  28.719  -3.601  0.00  0.00    -0.003 A 
HETATM   23  S   UNK N   1      28.254  28.152  -4.050  0.00  0.00    -0.058 SA
HETATM   24  C   UNK N   1      26.394  30.143  -3.416  0.00  0.00     0.058 C 
ENDBRANCH  15  18
ENDBRANCH   7  14
BRANCH   3  25
HETATM   25  O   UNK N   1      30.750  23.386  -2.298  0.00  0.00    -0.357 OA
HETATM   26  H   UNK N   1      30.341  23.021  -1.538  0.00  0.00     0.217 HD
ENDBRANCH   3  25
TORSDOF 3
ENDMDL
