MODEL 1
REMARK VINA RESULT:      -8.3      0.000      0.000
REMARK  12 active torsions:
REMARK  status: ('A' for Active; 'I' for Inactive)
REMARK    1  A    between atoms: C_3  and  N_13 
REMARK    2  A    between atoms: S_23  and  C_5 
REMARK    3  A    between atoms: C_22  and  C_6 
REMARK       I    between atoms: C_18  and  N_13 
REMARK       I    between atoms: N_19  and  C_14 
REMARK    4  A    between atoms: C_16  and  C_14 
REMARK    5  A    between atoms: C_29  and  C_17 
REMARK    6  A    between atoms: C_20  and  C_18 
REMARK    7  A    between atoms: C_20  and  N_19 
REMARK    8  A    between atoms: C_20  and  C_30 
REMARK    9  A    between atoms: O_37  and  C_21 
REMARK   10  A    between atoms: O_39  and  C_22 
REMARK   11  A    between atoms: C_29  and  S_23 
REMARK   12  A    between atoms: O_43  and  C_40 
ROOT
HETATM    1  N   UNK N   1      23.380  17.780   5.600  0.00  0.00    -0.343 N 
HETATM    2  C   UNK N   1      22.045  17.805   5.726  0.00  0.00     0.245 C 
HETATM    3  O   UNK N   1      21.548  18.147   6.787  0.00  0.00    -0.271 OA
HETATM    4  H   UNK N   1      23.918  17.907   6.415  0.00  0.00     0.163 HD
ENDROOT
BRANCH   1   5
HETATM    5  C   UNK N   1      24.094  17.581   4.352  0.00  0.00     0.210 C 
HETATM    6  C   UNK N   1      25.057  18.693   4.364  0.00  0.00     0.251 C 
HETATM    7  N   UNK N   1      26.087  17.991   4.722  0.00  0.00    -0.293 N 
HETATM    8  O   UNK N   1      24.893  19.899   4.460  0.00  0.00    -0.271 OA
HETATM    9  C   UNK N   1      25.443  16.730   4.568  0.00  0.00     0.187 C 
HETATM   10  C   UNK N   1      27.212  18.364   5.485  0.00  0.00     0.116 C 
HETATM   11  S   UNK N   1      25.419  15.651   6.022  0.00  0.00    -0.136 SA
HETATM   12  C   UNK N   1      26.939  16.224   6.847  0.00  0.00     0.113 C 
HETATM   13  C   UNK N   1      27.639  17.502   6.446  0.00  0.00    -0.027 C 
BRANCH  13  14
HETATM   14  C   UNK N   1      28.932  17.711   7.115  0.00  0.00     0.120 C 
BRANCH  14  15
HETATM   15  S   UNK N   1      29.972  16.419   6.370  0.00  0.00    -0.087 SA
BRANCH  15  16
HETATM   16  C   UNK N   1      31.418  17.132   7.069  0.00  0.00     0.175 A 
HETATM   17  N   UNK N   1      32.527  17.474   6.407  0.00  0.00    -0.262 N 
HETATM   18  N   UNK N   1      33.360  17.968   7.300  0.00  0.00    -0.223 N 
HETATM   19  C   UNK N   1      32.805  17.344   4.985  0.00  0.00     0.181 C 
HETATM   20  N   UNK N   1      32.775  17.930   8.492  0.00  0.00    -0.005 NA
ATOM     21  HN  UNK N   1      34.298  18.321   7.109  1.00  0.00     0.206 HD
HETATM   22  N   UNK N   1      31.561  17.412   8.372  0.00  0.00    -0.261 N 
ATOM     23  HN  UNK N   1      30.879  17.259   9.116  1.00  0.00     0.186 HD
ENDBRANCH  15  16
ENDBRANCH  14  15
ENDBRANCH  13  14
BRANCH  10  24
HETATM   24  C   UNK N   1      27.891  19.682   5.212  0.00  0.00     0.194 C 
HETATM   25  O   UNK N   1      27.731  20.643   5.948  0.00  0.00    -0.645 OA
BRANCH  24  26
HETATM   26  O   UNK N   1      28.665  19.832   4.120  0.00  0.00    -0.772 OA
HETATM   27  H   UNK N   1      29.261  20.512   3.877  0.00  0.00     0.167 HD
ENDBRANCH  24  26
ENDBRANCH  10  24
ENDBRANCH   1   5
BRANCH   2  28
HETATM   28  C   UNK N   1      21.180  17.399   4.590  0.00  0.00     0.210 C 
BRANCH  28  29
HETATM   29  N   UNK N   1      20.470  16.152   4.660  0.00  0.00    -0.339 N 
HETATM   30  C   UNK N   1      21.064  14.939   4.547  0.00  0.00     0.256 C 
HETATM   31  O   UNK N   1      22.276  14.846   4.409  0.00  0.00    -0.267 OA
HETATM   32  H   UNK N   1      19.495  16.181   4.798  0.00  0.00     0.164 HD
BRANCH  30  33
HETATM   33  C   UNK N   1      20.215  13.737   4.467  0.00  0.00     0.080 A 
HETATM   34  C   UNK N   1      19.250  13.583   3.449  0.00  0.00     0.084 A 
HETATM   35  C   UNK N   1      18.562  12.381   3.331  0.00  0.00     0.062 A 
HETATM   36  C   UNK N   1      18.833  11.343   4.219  0.00  0.00     0.007 A 
HETATM   37  N   UNK N   1      19.735  11.517   5.222  0.00  0.00    -0.368 N 
HETATM   38  C   UNK N   1      18.148  10.038   4.052  0.00  0.00     0.068 C 
HETATM   39  C   UNK N   1      20.420  12.683   5.366  0.00  0.00     0.108 A 
ATOM     40  HN  UNK N   1      19.903  10.755   5.880  1.00  0.00     0.165 HD
BRANCH  34  41
HETATM   41  O   UNK N   1      18.982  14.578   2.584  0.00  0.00    -0.360 OA
HETATM   42  H   UNK N   1      18.249  15.149   2.697  0.00  0.00     0.217 HD
ENDBRANCH  34  41
ENDBRANCH  30  33
ENDBRANCH  28  29
BRANCH  28  43
HETATM   43  C   UNK N   1      21.005  18.270   3.399  0.00  0.00    -0.026 A 
HETATM   44  C   UNK N   1      20.555  17.720   2.191  0.00  0.00     0.012 A 
HETATM   45  C   UNK N   1      20.393  18.530   1.070  0.00  0.00     0.037 A 
HETATM   46  C   UNK N   1      20.685  19.894   1.153  0.00  0.00     0.065 A 
HETATM   47  C   UNK N   1      21.133  20.445   2.357  0.00  0.00     0.037 A 
HETATM   48  C   UNK N   1      21.289  19.634   3.480  0.00  0.00     0.012 A 
BRANCH  46  49
HETATM   49  O   UNK N   1      20.535  20.677   0.076  0.00  0.00    -0.361 OA
HETATM   50  H   UNK N   1      19.752  21.154  -0.121  0.00  0.00     0.217 HD
ENDBRANCH  46  49
ENDBRANCH  28  43
ENDBRANCH   2  28
TORSDOF 12
ENDMDL
MODEL 2
REMARK VINA RESULT:      -8.2      5.510     12.352
REMARK  12 active torsions:
REMARK  status: ('A' for Active; 'I' for Inactive)
REMARK    1  A    between atoms: C_3  and  N_13 
REMARK    2  A    between atoms: S_23  and  C_5 
REMARK    3  A    between atoms: C_22  and  C_6 
REMARK       I    between atoms: C_18  and  N_13 
REMARK       I    between atoms: N_19  and  C_14 
REMARK    4  A    between atoms: C_16  and  C_14 
REMARK    5  A    between atoms: C_29  and  C_17 
REMARK    6  A    between atoms: C_20  and  C_18 
REMARK    7  A    between atoms: C_20  and  N_19 
REMARK    8  A    between atoms: C_20  and  C_30 
REMARK    9  A    between atoms: O_37  and  C_21 
REMARK   10  A    between atoms: O_39  and  C_22 
REMARK   11  A    between atoms: C_29  and  S_23 
REMARK   12  A    between atoms: O_43  and  C_40 
ROOT
HETATM    1  N   UNK N   1      32.574  16.965   6.480  0.00  0.00    -0.343 N 
HETATM    2  C   UNK N   1      33.913  16.899   6.432  0.00  0.00     0.245 C 
HETATM    3  O   UNK N   1      34.564  17.928   6.364  0.00  0.00    -0.271 OA
HETATM    4  H   UNK N   1      32.155  17.842   6.319  0.00  0.00     0.163 HD
ENDROOT
BRANCH   1   5
HETATM    5  C   UNK N   1      31.695  15.843   6.752  0.00  0.00     0.210 C 
HETATM    6  C   UNK N   1      30.867  16.358   7.853  0.00  0.00     0.251 C 
HETATM    7  N   UNK N   1      29.818  16.624   7.137  0.00  0.00    -0.293 N 
HETATM    8  O   UNK N   1      31.170  16.810   8.946  0.00  0.00    -0.271 OA
HETATM    9  C   UNK N   1      30.299  15.976   5.963  0.00  0.00     0.187 C 
HETATM   10  C   UNK N   1      28.843  17.627   7.303  0.00  0.00     0.116 C 
HETATM   11  S   UNK N   1      30.385  16.986   4.462  0.00  0.00    -0.136 SA
HETATM   12  C   UNK N   1      29.048  18.171   4.818  0.00  0.00     0.113 C 
HETATM   13  C   UNK N   1      28.447  18.314   6.198  0.00  0.00    -0.027 C 
BRANCH  13  14
HETATM   14  C   UNK N   1      27.276  19.202   6.250  0.00  0.00     0.120 C 
BRANCH  14  15
HETATM   15  S   UNK N   1      27.062  19.673   4.508  0.00  0.00    -0.087 SA
BRANCH  15  16
HETATM   16  C   UNK N   1      25.389  19.136   4.533  0.00  0.00     0.175 A 
HETATM   17  N   UNK N   1      24.403  19.596   3.756  0.00  0.00    -0.262 N 
HETATM   18  N   UNK N   1      23.318  18.931   4.096  0.00  0.00    -0.223 N 
HETATM   19  C   UNK N   1      24.467  20.623   2.729  0.00  0.00     0.181 C 
HETATM   20  N   UNK N   1      23.630  18.079   5.066  0.00  0.00    -0.005 NA
ATOM     21  HN  UNK N   1      22.392  19.051   3.684  1.00  0.00     0.206 HD
HETATM   22  N   UNK N   1      24.918  18.188   5.355  0.00  0.00    -0.261 N 
ATOM     23  HN  UNK N   1      25.441  17.663   6.056  1.00  0.00     0.186 HD
ENDBRANCH  15  16
ENDBRANCH  14  15
ENDBRANCH  13  14
BRANCH  10  24
HETATM   24  C   UNK N   1      28.282  17.898   8.676  0.00  0.00     0.194 C 
HETATM   25  O   UNK N   1      28.713  18.806   9.370  0.00  0.00    -0.645 OA
BRANCH  24  26
HETATM   26  O   UNK N   1      27.310  17.113   9.177  0.00  0.00    -0.772 OA
HETATM   27  H   UNK N   1      26.985  16.280   8.897  0.00  0.00     0.167 HD
ENDBRANCH  24  26
ENDBRANCH  10  24
ENDBRANCH   1   5
BRANCH   2  28
HETATM   28  C   UNK N   1      34.596  15.581   6.440  0.00  0.00     0.210 C 
BRANCH  28  29
HETATM   29  N   UNK N   1      34.952  14.984   7.697  0.00  0.00    -0.339 N 
HETATM   30  C   UNK N   1      34.852  15.621   8.890  0.00  0.00     0.256 C 
HETATM   31  O   UNK N   1      34.406  16.758   8.956  0.00  0.00    -0.267 OA
HETATM   32  H   UNK N   1      35.291  14.059   7.691  0.00  0.00     0.164 HD
BRANCH  30  33
HETATM   33  C   UNK N   1      35.404  14.969  10.091  0.00  0.00     0.080 A 
HETATM   34  C   UNK N   1      34.580  14.607  11.177  0.00  0.00     0.084 A 
HETATM   35  C   UNK N   1      35.115  13.879  12.233  0.00  0.00     0.062 A 
HETATM   36  C   UNK N   1      36.460  13.516  12.206  0.00  0.00     0.007 A 
HETATM   37  N   UNK N   1      37.254  13.905  11.173  0.00  0.00    -0.368 N 
HETATM   38  C   UNK N   1      37.016  12.681  13.299  0.00  0.00     0.068 C 
HETATM   39  C   UNK N   1      36.760  14.623  10.129  0.00  0.00     0.108 A 
ATOM     40  HN  UNK N   1      38.243  13.653  11.182  1.00  0.00     0.165 HD
BRANCH  34  41
HETATM   41  O   UNK N   1      33.280  14.951  11.214  0.00  0.00    -0.360 OA
HETATM   42  H   UNK N   1      32.623  14.370  11.543  0.00  0.00     0.217 HD
ENDBRANCH  34  41
ENDBRANCH  30  33
ENDBRANCH  28  29
BRANCH  28  43
HETATM   43  C   UNK N   1      34.887  14.850   5.179  0.00  0.00    -0.026 A 
HETATM   44  C   UNK N   1      36.009  14.015   5.098  0.00  0.00     0.012 A 
HETATM   45  C   UNK N   1      36.289  13.331   3.918  0.00  0.00     0.037 A 
HETATM   46  C   UNK N   1      35.448  13.484   2.812  0.00  0.00     0.065 A 
HETATM   47  C   UNK N   1      34.327  14.316   2.891  0.00  0.00     0.037 A 
HETATM   48  C   UNK N   1      34.045  14.996   4.075  0.00  0.00     0.012 A 
BRANCH  46  49
HETATM   49  O   UNK N   1      35.717  12.832   1.673  0.00  0.00    -0.361 OA
HETATM   50  H   UNK N   1      36.571  12.531   1.429  0.00  0.00     0.217 HD
ENDBRANCH  46  49
ENDBRANCH  28  43
ENDBRANCH   2  28
TORSDOF 12
ENDMDL
MODEL 3
REMARK VINA RESULT:      -8.2      8.095     12.336
REMARK  12 active torsions:
REMARK  status: ('A' for Active; 'I' for Inactive)
REMARK    1  A    between atoms: C_3  and  N_13 
REMARK    2  A    between atoms: S_23  and  C_5 
REMARK    3  A    between atoms: C_22  and  C_6 
REMARK       I    between atoms: C_18  and  N_13 
REMARK       I    between atoms: N_19  and  C_14 
REMARK    4  A    between atoms: C_16  and  C_14 
REMARK    5  A    between atoms: C_29  and  C_17 
REMARK    6  A    between atoms: C_20  and  C_18 
REMARK    7  A    between atoms: C_20  and  N_19 
REMARK    8  A    between atoms: C_20  and  C_30 
REMARK    9  A    between atoms: O_37  and  C_21 
REMARK   10  A    between atoms: O_39  and  C_22 
REMARK   11  A    between atoms: C_29  and  S_23 
REMARK   12  A    between atoms: O_43  and  C_40 
ROOT
HETATM    1  N   UNK N   1      33.378  15.750   5.386  0.00  0.00    -0.343 N 
HETATM    2  C   UNK N   1      33.227  16.846   6.145  0.00  0.00     0.245 C 
HETATM    3  O   UNK N   1      33.654  17.917   5.746  0.00  0.00    -0.271 OA
HETATM    4  H   UNK N   1      33.953  15.822   4.591  0.00  0.00     0.163 HD
ENDROOT
BRANCH   1   5
HETATM    5  C   UNK N   1      32.756  14.465   5.649  0.00  0.00     0.210 C 
HETATM    6  C   UNK N   1      32.491  13.966   4.291  0.00  0.00     0.251 C 
HETATM    7  N   UNK N   1      33.490  13.139   4.241  0.00  0.00    -0.293 N 
HETATM    8  O   UNK N   1      31.863  14.450   3.363  0.00  0.00    -0.271 OA
HETATM    9  C   UNK N   1      33.831  13.268   5.618  0.00  0.00     0.187 C 
HETATM   10  C   UNK N   1      34.257  12.717   3.137  0.00  0.00     0.116 C 
HETATM   11  S   UNK N   1      35.529  13.781   5.985  0.00  0.00    -0.136 SA
HETATM   12  C   UNK N   1      36.370  13.118   4.511  0.00  0.00     0.113 C 
HETATM   13  C   UNK N   1      35.607  12.658   3.289  0.00  0.00    -0.027 C 
BRANCH  13  14
HETATM   14  C   UNK N   1      36.446  12.009   2.271  0.00  0.00     0.120 C 
BRANCH  14  15
HETATM   15  S   UNK N   1      37.638  13.316   1.853  0.00  0.00    -0.087 SA
BRANCH  15  16
HETATM   16  C   UNK N   1      36.759  13.693   0.379  0.00  0.00     0.175 A 
HETATM   17  N   UNK N   1      36.905  13.086  -0.803  0.00  0.00    -0.262 N 
HETATM   18  N   UNK N   1      36.063  13.670  -1.631  0.00  0.00    -0.223 N 
HETATM   19  C   UNK N   1      37.802  11.996  -1.153  0.00  0.00     0.181 C 
HETATM   20  N   UNK N   1      35.412  14.621  -0.972  0.00  0.00    -0.005 NA
ATOM     21  HN  UNK N   1      35.934  13.433  -2.615  1.00  0.00     0.206 HD
HETATM   22  N   UNK N   1      35.829  14.654   0.285  0.00  0.00    -0.261 N 
ATOM     23  HN  UNK N   1      35.510  15.279   1.026  1.00  0.00     0.186 HD
ENDBRANCH  15  16
ENDBRANCH  14  15
ENDBRANCH  13  14
BRANCH  10  24
HETATM   24  C   UNK N   1      33.565  12.350   1.849  0.00  0.00     0.194 C 
HETATM   25  O   UNK N   1      33.170  11.214   1.642  0.00  0.00    -0.645 OA
BRANCH  24  26
HETATM   26  O   UNK N   1      33.402  13.272   0.881  0.00  0.00    -0.772 OA
HETATM   27  H   UNK N   1      32.979  14.108   0.892  0.00  0.00     0.167 HD
ENDBRANCH  24  26
ENDBRANCH  10  24
ENDBRANCH   1   5
BRANCH   2  28
HETATM   28  C   UNK N   1      32.564  16.751   7.471  0.00  0.00     0.210 C 
BRANCH  28  29
HETATM   29  N   UNK N   1      33.229  16.058   8.538  0.00  0.00    -0.339 N 
HETATM   30  C   UNK N   1      34.290  16.559   9.218  0.00  0.00     0.256 C 
HETATM   31  O   UNK N   1      34.723  17.675   8.967  0.00  0.00    -0.267 OA
HETATM   32  H   UNK N   1      32.895  15.167   8.791  0.00  0.00     0.164 HD
BRANCH  30  33
HETATM   33  C   UNK N   1      34.993  15.689  10.178  0.00  0.00     0.080 A 
HETATM   34  C   UNK N   1      34.287  14.883  11.095  0.00  0.00     0.084 A 
HETATM   35  C   UNK N   1      34.981  13.981  11.893  0.00  0.00     0.062 A 
HETATM   36  C   UNK N   1      36.366  13.885  11.778  0.00  0.00     0.007 A 
HETATM   37  N   UNK N   1      37.040  14.697  10.920  0.00  0.00    -0.368 N 
HETATM   38  C   UNK N   1      37.100  12.876  12.580  0.00  0.00     0.068 C 
HETATM   39  C   UNK N   1      36.389  15.592  10.131  0.00  0.00     0.108 A 
ATOM     40  HN  UNK N   1      38.057  14.632  10.867  1.00  0.00     0.165 HD
BRANCH  34  41
HETATM   41  O   UNK N   1      32.949  14.964  11.214  0.00  0.00    -0.360 OA
HETATM   42  H   UNK N   1      32.462  15.674  10.847  0.00  0.00     0.217 HD
ENDBRANCH  34  41
ENDBRANCH  30  33
ENDBRANCH  28  29
BRANCH  28  43
HETATM   43  C   UNK N   1      31.246  17.388   7.725  0.00  0.00    -0.026 A 
HETATM   44  C   UNK N   1      30.199  17.216   6.809  0.00  0.00     0.012 A 
HETATM   45  C   UNK N   1      28.962  17.813   7.041  0.00  0.00     0.037 A 
HETATM   46  C   UNK N   1      28.770  18.589   8.187  0.00  0.00     0.065 A 
HETATM   47  C   UNK N   1      29.813  18.760   9.102  0.00  0.00     0.037 A 
HETATM   48  C   UNK N   1      31.049  18.158   8.873  0.00  0.00     0.012 A 
BRANCH  46  49
HETATM   49  O   UNK N   1      27.583  19.169   8.411  0.00  0.00    -0.361 OA
HETATM   50  H   UNK N   1      27.137  19.150   9.235  0.00  0.00     0.217 HD
ENDBRANCH  46  49
ENDBRANCH  28  43
ENDBRANCH   2  28
TORSDOF 12
ENDMDL
MODEL 4
REMARK VINA RESULT:      -8.1      3.911      5.452
REMARK  12 active torsions:
REMARK  status: ('A' for Active; 'I' for Inactive)
REMARK    1  A    between atoms: C_3  and  N_13 
REMARK    2  A    between atoms: S_23  and  C_5 
REMARK    3  A    between atoms: C_22  and  C_6 
REMARK       I    between atoms: C_18  and  N_13 
REMARK       I    between atoms: N_19  and  C_14 
REMARK    4  A    between atoms: C_16  and  C_14 
REMARK    5  A    between atoms: C_29  and  C_17 
REMARK    6  A    between atoms: C_20  and  C_18 
REMARK    7  A    between atoms: C_20  and  N_19 
REMARK    8  A    between atoms: C_20  and  C_30 
REMARK    9  A    between atoms: O_37  and  C_21 
REMARK   10  A    between atoms: O_39  and  C_22 
REMARK   11  A    between atoms: C_29  and  S_23 
REMARK   12  A    between atoms: O_43  and  C_40 
ROOT
HETATM    1  N   UNK N   1      27.604  15.444   5.275  0.00  0.00    -0.343 N 
HETATM    2  C   UNK N   1      26.804  14.403   5.548  0.00  0.00     0.245 C 
HETATM    3  O   UNK N   1      27.209  13.267   5.358  0.00  0.00    -0.271 OA
HETATM    4  H   UNK N   1      28.446  15.260   4.797  0.00  0.00     0.163 HD
ENDROOT
BRANCH   1   5
HETATM    5  C   UNK N   1      27.324  16.823   5.631  0.00  0.00     0.210 C 
HETATM    6  C   UNK N   1      27.888  16.913   6.987  0.00  0.00     0.251 C 
HETATM    7  N   UNK N   1      28.978  17.532   6.653  0.00  0.00    -0.293 N 
HETATM    8  O   UNK N   1      27.667  16.262   7.996  0.00  0.00    -0.271 OA
HETATM    9  C   UNK N   1      28.573  17.785   5.310  0.00  0.00     0.187 C 
HETATM   10  C   UNK N   1      30.260  17.480   7.235  0.00  0.00     0.116 C 
HETATM   11  S   UNK N   1      29.671  17.172   4.007  0.00  0.00    -0.136 SA
HETATM   12  C   UNK N   1      31.258  17.221   4.901  0.00  0.00     0.113 C 
HETATM   13  C   UNK N   1      31.330  17.388   6.401  0.00  0.00    -0.027 C 
BRANCH  13  14
HETATM   14  C   UNK N   1      32.696  17.565   6.917  0.00  0.00     0.120 C 
BRANCH  14  15
HETATM   15  S   UNK N   1      33.565  16.124   6.230  0.00  0.00    -0.087 SA
BRANCH  15  16
HETATM   16  C   UNK N   1      33.158  15.162   7.643  0.00  0.00     0.175 A 
HETATM   17  N   UNK N   1      33.751  15.227   8.839  0.00  0.00    -0.262 N 
HETATM   18  N   UNK N   1      33.146  14.344   9.606  0.00  0.00    -0.223 N 
HETATM   19  C   UNK N   1      34.849  16.085   9.255  0.00  0.00     0.181 C 
HETATM   20  N   UNK N   1      32.198  13.744   8.895  0.00  0.00    -0.005 NA
ATOM     21  HN  UNK N   1      33.369  14.152  10.583  1.00  0.00     0.206 HD
HETATM   22  N   UNK N   1      32.186  14.239   7.666  0.00  0.00    -0.261 N 
ATOM     23  HN  UNK N   1      31.568  13.973   6.899  1.00  0.00     0.186 HD
ENDBRANCH  15  16
ENDBRANCH  14  15
ENDBRANCH  13  14
BRANCH  10  24
HETATM   24  C   UNK N   1      30.397  17.528   8.736  0.00  0.00     0.194 C 
HETATM   25  O   UNK N   1      30.344  18.585   9.344  0.00  0.00    -0.645 OA
BRANCH  24  26
HETATM   26  O   UNK N   1      30.616  16.397   9.432  0.00  0.00    -0.772 OA
HETATM   27  H   UNK N   1      30.335  15.516   9.282  0.00  0.00     0.167 HD
ENDBRANCH  24  26
ENDBRANCH  10  24
ENDBRANCH   1   5
BRANCH   2  28
HETATM   28  C   UNK N   1      25.429  14.631   6.059  0.00  0.00     0.210 C 
BRANCH  28  29
HETATM   29  N   UNK N   1      25.109  14.245   7.405  0.00  0.00    -0.339 N 
HETATM   30  C   UNK N   1      24.594  13.036   7.741  0.00  0.00     0.256 C 
HETATM   31  O   UNK N   1      24.405  12.179   6.890  0.00  0.00    -0.267 OA
HETATM   32  H   UNK N   1      25.270  14.897   8.125  0.00  0.00     0.164 HD
BRANCH  30  33
HETATM   33  C   UNK N   1      24.149  12.815   9.129  0.00  0.00     0.080 A 
HETATM   34  C   UNK N   1      22.818  12.458   9.428  0.00  0.00     0.084 A 
HETATM   35  C   UNK N   1      22.470  12.131  10.733  0.00  0.00     0.062 A 
HETATM   36  C   UNK N   1      23.442  12.161  11.731  0.00  0.00     0.007 A 
HETATM   37  N   UNK N   1      24.712  12.546  11.439  0.00  0.00    -0.368 N 
HETATM   38  C   UNK N   1      23.087  11.747  13.111  0.00  0.00     0.068 C 
HETATM   39  C   UNK N   1      25.081  12.877  10.172  0.00  0.00     0.108 A 
ATOM     40  HN  UNK N   1      25.405  12.588  12.187  1.00  0.00     0.165 HD
BRANCH  34  41
HETATM   41  O   UNK N   1      21.872  12.424   8.472  0.00  0.00    -0.360 OA
HETATM   42  H   UNK N   1      21.761  13.123   7.858  0.00  0.00     0.217 HD
ENDBRANCH  34  41
ENDBRANCH  30  33
ENDBRANCH  28  29
BRANCH  28  43
HETATM   43  C   UNK N   1      24.388  15.280   5.220  0.00  0.00    -0.026 A 
HETATM   44  C   UNK N   1      24.185  14.850   3.902  0.00  0.00     0.012 A 
HETATM   45  C   UNK N   1      23.214  15.458   3.110  0.00  0.00     0.037 A 
HETATM   46  C   UNK N   1      22.446  16.501   3.633  0.00  0.00     0.065 A 
HETATM   47  C   UNK N   1      22.646  16.930   4.949  0.00  0.00     0.037 A 
HETATM   48  C   UNK N   1      23.614  16.318   5.743  0.00  0.00     0.012 A 
BRANCH  46  49
HETATM   49  O   UNK N   1      21.513  17.091   2.873  0.00  0.00    -0.361 OA
HETATM   50  H   UNK N   1      21.624  17.283   1.962  0.00  0.00     0.217 HD
ENDBRANCH  46  49
ENDBRANCH  28  43
ENDBRANCH   2  28
TORSDOF 12
ENDMDL
MODEL 5
REMARK VINA RESULT:      -8.1      8.136     13.875
REMARK  12 active torsions:
REMARK  status: ('A' for Active; 'I' for Inactive)
REMARK    1  A    between atoms: C_3  and  N_13 
REMARK    2  A    between atoms: S_23  and  C_5 
REMARK    3  A    between atoms: C_22  and  C_6 
REMARK       I    between atoms: C_18  and  N_13 
REMARK       I    between atoms: N_19  and  C_14 
REMARK    4  A    between atoms: C_16  and  C_14 
REMARK    5  A    between atoms: C_29  and  C_17 
REMARK    6  A    between atoms: C_20  and  C_18 
REMARK    7  A    between atoms: C_20  and  N_19 
REMARK    8  A    between atoms: C_20  and  C_30 
REMARK    9  A    between atoms: O_37  and  C_21 
REMARK   10  A    between atoms: O_39  and  C_22 
REMARK   11  A    between atoms: C_29  and  S_23 
REMARK   12  A    between atoms: O_43  and  C_40 
ROOT
HETATM    1  N   UNK N   1      33.784  15.840   9.867  0.00  0.00    -0.343 N 
HETATM    2  C   UNK N   1      34.808  15.727  10.725  0.00  0.00     0.245 C 
HETATM    3  O   UNK N   1      35.241  16.723  11.281  0.00  0.00    -0.271 OA
HETATM    4  H   UNK N   1      33.504  16.749   9.608  0.00  0.00     0.163 HD
ENDROOT
BRANCH   1   5
HETATM    5  C   UNK N   1      33.056  14.726   9.289  0.00  0.00     0.210 C 
HETATM    6  C   UNK N   1      31.796  15.361   8.873  0.00  0.00     0.251 C 
HETATM    7  N   UNK N   1      32.082  15.444   7.610  0.00  0.00    -0.293 N 
HETATM    8  O   UNK N   1      30.970  16.002   9.505  0.00  0.00    -0.271 OA
HETATM    9  C   UNK N   1      33.259  14.645   7.695  0.00  0.00     0.187 C 
HETATM   10  C   UNK N   1      31.684  16.400   6.656  0.00  0.00     0.116 C 
HETATM   11  S   UNK N   1      34.793  15.402   7.100  0.00  0.00    -0.136 SA
HETATM   12  C   UNK N   1      34.104  16.547   5.861  0.00  0.00     0.113 C 
HETATM   13  C   UNK N   1      32.629  16.874   5.801  0.00  0.00    -0.027 C 
BRANCH  13  14
HETATM   14  C   UNK N   1      32.245  17.687   4.638  0.00  0.00     0.120 C 
BRANCH  14  15
HETATM   15  S   UNK N   1      32.774  16.650   3.242  0.00  0.00    -0.087 SA
BRANCH  15  16
HETATM   16  C   UNK N   1      31.147  16.013   3.054  0.00  0.00     0.175 A 
HETATM   17  N   UNK N   1      30.773  14.742   3.232  0.00  0.00    -0.262 N 
HETATM   18  N   UNK N   1      29.479  14.695   2.992  0.00  0.00    -0.223 N 
HETATM   19  C   UNK N   1      31.595  13.605   3.615  0.00  0.00     0.181 C 
HETATM   20  N   UNK N   1      29.064  15.915   2.668  0.00  0.00    -0.005 NA
ATOM     21  HN  UNK N   1      28.893  13.862   3.044  1.00  0.00     0.206 HD
HETATM   22  N   UNK N   1      30.088  16.754   2.701  0.00  0.00    -0.261 N 
ATOM     23  HN  UNK N   1      30.074  17.755   2.499  1.00  0.00     0.186 HD
ENDBRANCH  15  16
ENDBRANCH  14  15
ENDBRANCH  13  14
BRANCH  10  24
HETATM   24  C   UNK N   1      30.247  16.856   6.615  0.00  0.00     0.194 C 
HETATM   25  O   UNK N   1      29.425  16.301   5.902  0.00  0.00    -0.645 OA
BRANCH  24  26
HETATM   26  O   UNK N   1      29.851  17.914   7.346  0.00  0.00    -0.772 OA
HETATM   27  H   UNK N   1      29.022  18.348   7.405  0.00  0.00     0.167 HD
ENDBRANCH  24  26
ENDBRANCH  10  24
ENDBRANCH   1   5
BRANCH   2  28
HETATM   28  C   UNK N   1      35.425  14.400  10.980  0.00  0.00     0.210 C 
BRANCH  28  29
HETATM   29  N   UNK N   1      35.014  13.646  12.131  0.00  0.00    -0.339 N 
HETATM   30  C   UNK N   1      35.655  13.684  13.326  0.00  0.00     0.256 C 
HETATM   31  O   UNK N   1      36.623  14.413  13.493  0.00  0.00    -0.267 OA
HETATM   32  H   UNK N   1      34.222  13.067  12.047  0.00  0.00     0.164 HD
BRANCH  30  33
HETATM   33  C   UNK N   1      35.243  12.743  14.382  0.00  0.00     0.080 A 
HETATM   34  C   UNK N   1      34.548  11.553  14.079  0.00  0.00     0.084 A 
HETATM   35  C   UNK N   1      34.294  10.630  15.087  0.00  0.00     0.062 A 
HETATM   36  C   UNK N   1      34.729  10.891  16.384  0.00  0.00     0.007 A 
HETATM   37  N   UNK N   1      35.362  12.060  16.672  0.00  0.00    -0.368 N 
HETATM   38  C   UNK N   1      34.518   9.876  17.446  0.00  0.00     0.068 C 
HETATM   39  C   UNK N   1      35.620  12.984  15.709  0.00  0.00     0.108 A 
ATOM     40  HN  UNK N   1      35.650  12.246  17.633  1.00  0.00     0.165 HD
BRANCH  34  41
HETATM   41  O   UNK N   1      34.125  11.289  12.829  0.00  0.00    -0.360 OA
HETATM   42  H   UNK N   1      33.561  11.873  12.363  0.00  0.00     0.217 HD
ENDBRANCH  34  41
ENDBRANCH  30  33
ENDBRANCH  28  29
BRANCH  28  43
HETATM   43  C   UNK N   1      36.432  13.822  10.052  0.00  0.00    -0.026 A 
HETATM   44  C   UNK N   1      36.154  12.624   9.378  0.00  0.00     0.012 A 
HETATM   45  C   UNK N   1      37.096  12.076   8.511  0.00  0.00     0.037 A 
HETATM   46  C   UNK N   1      38.319  12.722   8.317  0.00  0.00     0.065 A 
HETATM   47  C   UNK N   1      38.597  13.917   8.986  0.00  0.00     0.037 A 
HETATM   48  C   UNK N   1      37.653  14.469   9.851  0.00  0.00     0.012 A 
BRANCH  46  49
HETATM   49  O   UNK N   1      39.229  12.194   7.486  0.00  0.00    -0.361 OA
HETATM   50  H   UNK N   1      39.320  11.276   7.322  0.00  0.00     0.217 HD
ENDBRANCH  46  49
ENDBRANCH  28  43
ENDBRANCH   2  28
TORSDOF 12
ENDMDL
MODEL 6
REMARK VINA RESULT:      -8.0      9.462     15.092
REMARK  12 active torsions:
REMARK  status: ('A' for Active; 'I' for Inactive)
REMARK    1  A    between atoms: C_3  and  N_13 
REMARK    2  A    between atoms: S_23  and  C_5 
REMARK    3  A    between atoms: C_22  and  C_6 
REMARK       I    between atoms: C_18  and  N_13 
REMARK       I    between atoms: N_19  and  C_14 
REMARK    4  A    between atoms: C_16  and  C_14 
REMARK    5  A    between atoms: C_29  and  C_17 
REMARK    6  A    between atoms: C_20  and  C_18 
REMARK    7  A    between atoms: C_20  and  N_19 
REMARK    8  A    between atoms: C_20  and  C_30 
REMARK    9  A    between atoms: O_37  and  C_21 
REMARK   10  A    between atoms: O_39  and  C_22 
REMARK   11  A    between atoms: C_29  and  S_23 
REMARK   12  A    between atoms: O_43  and  C_40 
ROOT
HETATM    1  N   UNK N   1      36.137  14.344  10.853  0.00  0.00    -0.343 N 
HETATM    2  C   UNK N   1      36.785  13.306  11.403  0.00  0.00     0.245 C 
HETATM    3  O   UNK N   1      37.997  13.227  11.294  0.00  0.00    -0.271 OA
HETATM    4  H   UNK N   1      36.651  14.938  10.258  0.00  0.00     0.163 HD
ENDROOT
BRANCH   1   5
HETATM    5  C   UNK N   1      34.737  14.659  11.068  0.00  0.00     0.210 C 
HETATM    6  C   UNK N   1      34.648  16.037  10.562  0.00  0.00     0.251 C 
HETATM    7  N   UNK N   1      34.101  15.741   9.423  0.00  0.00    -0.293 N 
HETATM    8  O   UNK N   1      35.263  17.048  10.866  0.00  0.00    -0.271 OA
HETATM    9  C   UNK N   1      33.856  14.377   9.751  0.00  0.00     0.187 C 
HETATM   10  C   UNK N   1      34.214  16.383   8.174  0.00  0.00     0.116 C 
HETATM   11  S   UNK N   1      34.561  13.138   8.634  0.00  0.00    -0.136 SA
HETATM   12  C   UNK N   1      34.583  14.103   7.089  0.00  0.00     0.113 C 
HETATM   13  C   UNK N   1      34.386  15.602   7.074  0.00  0.00    -0.027 C 
BRANCH  13  14
HETATM   14  C   UNK N   1      34.276  16.177   5.725  0.00  0.00     0.120 C 
BRANCH  14  15
HETATM   15  S   UNK N   1      33.103  15.051   4.913  0.00  0.00    -0.087 SA
BRANCH  15  16
HETATM   16  C   UNK N   1      31.829  16.258   5.002  0.00  0.00     0.175 A 
HETATM   17  N   UNK N   1      31.431  17.057   4.007  0.00  0.00    -0.262 N 
HETATM   18  N   UNK N   1      30.461  17.804   4.492  0.00  0.00    -0.223 N 
HETATM   19  C   UNK N   1      31.937  17.124   2.645  0.00  0.00     0.181 C 
HETATM   20  N   UNK N   1      30.267  17.473   5.764  0.00  0.00    -0.005 NA
ATOM     21  HN  UNK N   1      29.945  18.519   3.978  1.00  0.00     0.206 HD
HETATM   22  N   UNK N   1      31.109  16.509   6.104  0.00  0.00    -0.261 N 
ATOM     23  HN  UNK N   1      31.193  16.054   7.014  1.00  0.00     0.186 HD
ENDBRANCH  15  16
ENDBRANCH  14  15
ENDBRANCH  13  14
BRANCH  10  24
HETATM   24  C   UNK N   1      34.140  17.887   8.103  0.00  0.00     0.194 C 
HETATM   25  O   UNK N   1      33.076  18.463   7.935  0.00  0.00    -0.645 OA
BRANCH  24  26
HETATM   26  O   UNK N   1      35.262  18.626   8.189  0.00  0.00    -0.772 OA
HETATM   27  H   UNK N   1      35.720  18.966   8.932  0.00  0.00     0.167 HD
ENDBRANCH  24  26
ENDBRANCH  10  24
ENDBRANCH   1   5
BRANCH   2  28
HETATM   28  C   UNK N   1      36.028  12.249  12.121  0.00  0.00     0.210 C 
BRANCH  28  29
HETATM   29  N   UNK N   1      35.711  12.435  13.509  0.00  0.00    -0.339 N 
HETATM   30  C   UNK N   1      36.512  12.032  14.526  0.00  0.00     0.256 C 
HETATM   31  O   UNK N   1      37.592  11.505  14.300  0.00  0.00    -0.267 OA
HETATM   32  H   UNK N   1      34.862  12.880  13.736  0.00  0.00     0.164 HD
BRANCH  30  33
HETATM   33  C   UNK N   1      36.007  12.125  15.908  0.00  0.00     0.080 A 
HETATM   34  C   UNK N   1      35.999  11.006  16.767  0.00  0.00     0.084 A 
HETATM   35  C   UNK N   1      35.638  11.165  18.099  0.00  0.00     0.062 A 
HETATM   36  C   UNK N   1      35.287  12.428  18.570  0.00  0.00     0.007 A 
HETATM   37  N   UNK N   1      35.258  13.492  17.724  0.00  0.00    -0.368 N 
HETATM   38  C   UNK N   1      34.967  12.611  20.008  0.00  0.00     0.068 C 
HETATM   39  C   UNK N   1      35.601  13.366  16.414  0.00  0.00     0.108 A 
ATOM     40  HN  UNK N   1      34.973  14.405  18.080  1.00  0.00     0.165 HD
BRANCH  34  41
HETATM   41  O   UNK N   1      36.339   9.782  16.323  0.00  0.00    -0.360 OA
HETATM   42  H   UNK N   1      36.655   9.116  16.900  0.00  0.00     0.217 HD
ENDBRANCH  34  41
ENDBRANCH  30  33
ENDBRANCH  28  29
BRANCH  28  43
HETATM   43  C   UNK N   1      35.561  11.021  11.426  0.00  0.00    -0.026 A 
HETATM   44  C   UNK N   1      36.404  10.374  10.511  0.00  0.00     0.012 A 
HETATM   45  C   UNK N   1      35.971   9.225   9.854  0.00  0.00     0.037 A 
HETATM   46  C   UNK N   1      34.692   8.722  10.107  0.00  0.00     0.065 A 
HETATM   47  C   UNK N   1      33.851   9.365  11.020  0.00  0.00     0.037 A 
HETATM   48  C   UNK N   1      34.287  10.512  11.681  0.00  0.00     0.012 A 
BRANCH  46  49
HETATM   49  O   UNK N   1      34.270   7.619   9.473  0.00  0.00    -0.361 OA
HETATM   50  H   UNK N   1      33.480   7.161   9.687  0.00  0.00     0.217 HD
ENDBRANCH  46  49
ENDBRANCH  28  43
ENDBRANCH   2  28
TORSDOF 12
ENDMDL
MODEL 7
REMARK VINA RESULT:      -8.0      8.319     12.541
REMARK  12 active torsions:
REMARK  status: ('A' for Active; 'I' for Inactive)
REMARK    1  A    between atoms: C_3  and  N_13 
REMARK    2  A    between atoms: S_23  and  C_5 
REMARK    3  A    between atoms: C_22  and  C_6 
REMARK       I    between atoms: C_18  and  N_13 
REMARK       I    between atoms: N_19  and  C_14 
REMARK    4  A    between atoms: C_16  and  C_14 
REMARK    5  A    between atoms: C_29  and  C_17 
REMARK    6  A    between atoms: C_20  and  C_18 
REMARK    7  A    between atoms: C_20  and  N_19 
REMARK    8  A    between atoms: C_20  and  C_30 
REMARK    9  A    between atoms: O_37  and  C_21 
REMARK   10  A    between atoms: O_39  and  C_22 
REMARK   11  A    between atoms: C_29  and  S_23 
REMARK   12  A    between atoms: O_43  and  C_40 
ROOT
HETATM    1  N   UNK N   1      33.790  16.286   5.405  0.00  0.00    -0.343 N 
HETATM    2  C   UNK N   1      33.689  17.188   6.392  0.00  0.00     0.245 C 
HETATM    3  O   UNK N   1      34.234  18.273   6.273  0.00  0.00    -0.271 OA
HETATM    4  H   UNK N   1      34.421  16.478   4.674  0.00  0.00     0.163 HD
ENDROOT
BRANCH   1   5
HETATM    5  C   UNK N   1      33.041  15.045   5.334  0.00  0.00     0.210 C 
HETATM    6  C   UNK N   1      33.071  14.748   3.893  0.00  0.00     0.251 C 
HETATM    7  N   UNK N   1      33.997  13.840   3.949  0.00  0.00    -0.293 N 
HETATM    8  O   UNK N   1      32.713  15.404   2.928  0.00  0.00    -0.271 OA
HETATM    9  C   UNK N   1      34.011  13.761   5.372  0.00  0.00     0.187 C 
HETATM   10  C   UNK N   1      34.973  13.487   2.997  0.00  0.00     0.116 C 
HETATM   11  S   UNK N   1      35.604  14.056   6.181  0.00  0.00    -0.136 SA
HETATM   12  C   UNK N   1      36.723  13.504   4.853  0.00  0.00     0.113 C 
HETATM   13  C   UNK N   1      36.242  13.277   3.438  0.00  0.00    -0.027 C 
BRANCH  13  14
HETATM   14  C   UNK N   1      37.252  12.682   2.551  0.00  0.00     0.120 C 
BRANCH  14  15
HETATM   15  S   UNK N   1      37.666  11.135   3.412  0.00  0.00    -0.087 SA
BRANCH  15  16
HETATM   16  C   UNK N   1      36.291  10.320   2.681  0.00  0.00     0.175 A 
HETATM   17  N   UNK N   1      35.198   9.893   3.320  0.00  0.00    -0.262 N 
HETATM   18  N   UNK N   1      34.422   9.343   2.409  0.00  0.00    -0.223 N 
HETATM   19  C   UNK N   1      34.884   9.994   4.737  0.00  0.00     0.181 C 
HETATM   20  N   UNK N   1      35.028   9.427   1.230  0.00  0.00    -0.005 NA
ATOM     21  HN  UNK N   1      33.509   8.921   2.580  1.00  0.00     0.206 HD
HETATM   22  N   UNK N   1      36.197  10.034   1.375  0.00  0.00    -0.261 N 
ATOM     23  HN  UNK N   1      36.881  10.240   0.646  1.00  0.00     0.186 HD
ENDBRANCH  15  16
ENDBRANCH  14  15
ENDBRANCH  13  14
BRANCH  10  24
HETATM   24  C   UNK N   1      34.581  13.354   1.547  0.00  0.00     0.194 C 
HETATM   25  O   UNK N   1      34.817  14.241   0.742  0.00  0.00    -0.645 OA
BRANCH  24  26
HETATM   26  O   UNK N   1      33.928  12.257   1.120  0.00  0.00    -0.772 OA
HETATM   27  H   UNK N   1      34.052  11.350   1.317  0.00  0.00     0.167 HD
ENDBRANCH  24  26
ENDBRANCH  10  24
ENDBRANCH   1   5
BRANCH   2  28
HETATM   28  C   UNK N   1      32.934  16.862   7.628  0.00  0.00     0.210 C 
BRANCH  28  29
HETATM   29  N   UNK N   1      33.554  16.042   8.631  0.00  0.00    -0.339 N 
HETATM   30  C   UNK N   1      34.574  16.459   9.422  0.00  0.00     0.256 C 
HETATM   31  O   UNK N   1      35.005  17.600   9.337  0.00  0.00    -0.267 OA
HETATM   32  H   UNK N   1      33.220  15.123   8.751  0.00  0.00     0.164 HD
BRANCH  30  33
HETATM   33  C   UNK N   1      35.240  15.478  10.298  0.00  0.00     0.080 A 
HETATM   34  C   UNK N   1      34.507  14.673  11.194  0.00  0.00     0.084 A 
HETATM   35  C   UNK N   1      35.155  13.671  11.906  0.00  0.00     0.062 A 
HETATM   36  C   UNK N   1      36.523  13.475  11.727  0.00  0.00     0.007 A 
HETATM   37  N   UNK N   1      37.227  14.284  10.891  0.00  0.00    -0.368 N 
HETATM   38  C   UNK N   1      37.203  12.363  12.435  0.00  0.00     0.068 C 
HETATM   39  C   UNK N   1      36.621  15.275  10.185  0.00  0.00     0.108 A 
ATOM     40  HN  UNK N   1      38.233  14.143  10.791  1.00  0.00     0.165 HD
BRANCH  34  41
HETATM   41  O   UNK N   1      33.185  14.851  11.374  0.00  0.00    -0.360 OA
HETATM   42  H   UNK N   1      32.723  14.451  12.082  0.00  0.00     0.217 HD
ENDBRANCH  34  41
ENDBRANCH  30  33
ENDBRANCH  28  29
BRANCH  28  43
HETATM   43  C   UNK N   1      31.567  17.394   7.866  0.00  0.00    -0.026 A 
HETATM   44  C   UNK N   1      31.324  18.235   8.960  0.00  0.00     0.012 A 
HETATM   45  C   UNK N   1      30.044  18.733   9.190  0.00  0.00     0.037 A 
HETATM   46  C   UNK N   1      29.001  18.387   8.327  0.00  0.00     0.065 A 
HETATM   47  C   UNK N   1      29.241  17.550   7.234  0.00  0.00     0.037 A 
HETATM   48  C   UNK N   1      30.524  17.056   7.001  0.00  0.00     0.012 A 
BRANCH  46  49
HETATM   49  O   UNK N   1      27.767  18.860   8.547  0.00  0.00    -0.361 OA
HETATM   50  H   UNK N   1      27.494  19.732   8.335  0.00  0.00     0.217 HD
ENDBRANCH  46  49
ENDBRANCH  28  43
ENDBRANCH   2  28
TORSDOF 12
ENDMDL
MODEL 8
REMARK VINA RESULT:      -7.8      4.727     12.121
REMARK  12 active torsions:
REMARK  status: ('A' for Active; 'I' for Inactive)
REMARK    1  A    between atoms: C_3  and  N_13 
REMARK    2  A    between atoms: S_23  and  C_5 
REMARK    3  A    between atoms: C_22  and  C_6 
REMARK       I    between atoms: C_18  and  N_13 
REMARK       I    between atoms: N_19  and  C_14 
REMARK    4  A    between atoms: C_16  and  C_14 
REMARK    5  A    between atoms: C_29  and  C_17 
REMARK    6  A    between atoms: C_20  and  C_18 
REMARK    7  A    between atoms: C_20  and  N_19 
REMARK    8  A    between atoms: C_20  and  C_30 
REMARK    9  A    between atoms: O_37  and  C_21 
REMARK   10  A    between atoms: O_39  and  C_22 
REMARK   11  A    between atoms: C_29  and  S_23 
REMARK   12  A    between atoms: O_43  and  C_40 
ROOT
HETATM    1  N   UNK N   1      32.419  17.354   6.887  0.00  0.00    -0.343 N 
HETATM    2  C   UNK N   1      33.743  17.138   6.914  0.00  0.00     0.245 C 
HETATM    3  O   UNK N   1      34.503  18.012   6.531  0.00  0.00    -0.271 OA
HETATM    4  H   UNK N   1      32.099  18.163   6.426  0.00  0.00     0.163 HD
ENDROOT
BRANCH   1   5
HETATM    5  C   UNK N   1      31.423  16.485   7.485  0.00  0.00     0.210 C 
HETATM    6  C   UNK N   1      30.477  17.451   8.065  0.00  0.00     0.251 C 
HETATM    7  N   UNK N   1      29.577  17.352   7.137  0.00  0.00    -0.293 N 
HETATM    8  O   UNK N   1      30.643  18.359   8.864  0.00  0.00    -0.271 OA
HETATM    9  C   UNK N   1      30.181  16.234   6.493  0.00  0.00     0.187 C 
HETATM   10  C   UNK N   1      28.671  18.316   6.652  0.00  0.00     0.116 C 
HETATM   11  S   UNK N   1      30.578  16.430   4.737  0.00  0.00    -0.136 SA
HETATM   12  C   UNK N   1      29.301  17.644   4.273  0.00  0.00     0.113 C 
HETATM   13  C   UNK N   1      28.506  18.410   5.306  0.00  0.00    -0.027 C 
BRANCH  13  14
HETATM   14  C   UNK N   1      27.416  19.219   4.741  0.00  0.00     0.120 C 
BRANCH  14  15
HETATM   15  S   UNK N   1      26.097  17.990   4.505  0.00  0.00    -0.087 SA
BRANCH  15  16
HETATM   16  C   UNK N   1      25.096  19.173   3.677  0.00  0.00     0.175 A 
HETATM   17  N   UNK N   1      23.765  19.271   3.753  0.00  0.00    -0.262 N 
HETATM   18  N   UNK N   1      23.419  20.283   2.985  0.00  0.00    -0.223 N 
HETATM   19  C   UNK N   1      22.842  18.446   4.517  0.00  0.00     0.181 C 
HETATM   20  N   UNK N   1      24.516  20.799   2.444  0.00  0.00    -0.005 NA
ATOM     21  HN  UNK N   1      22.467  20.615   2.830  1.00  0.00     0.206 HD
HETATM   22  N   UNK N   1      25.576  20.122   2.862  0.00  0.00    -0.261 N 
ATOM     23  HN  UNK N   1      26.552  20.289   2.615  1.00  0.00     0.186 HD
ENDBRANCH  15  16
ENDBRANCH  14  15
ENDBRANCH  13  14
BRANCH  10  24
HETATM   24  C   UNK N   1      27.927  19.192   7.628  0.00  0.00     0.194 C 
HETATM   25  O   UNK N   1      27.698  20.366   7.380  0.00  0.00    -0.645 OA
BRANCH  24  26
HETATM   26  O   UNK N   1      27.530  18.699   8.816  0.00  0.00    -0.772 OA
HETATM   27  H   UNK N   1      26.916  18.023   9.028  0.00  0.00     0.167 HD
ENDBRANCH  24  26
ENDBRANCH  10  24
ENDBRANCH   1   5
BRANCH   2  28
HETATM   28  C   UNK N   1      34.278  15.837   7.388  0.00  0.00     0.210 C 
BRANCH  28  29
HETATM   29  N   UNK N   1      34.282  14.713   6.494  0.00  0.00    -0.339 N 
HETATM   30  C   UNK N   1      35.300  14.430   5.644  0.00  0.00     0.256 C 
HETATM   31  O   UNK N   1      36.308  15.122   5.623  0.00  0.00    -0.267 OA
HETATM   32  H   UNK N   1      33.500  14.115   6.497  0.00  0.00     0.164 HD
BRANCH  30  33
HETATM   33  C   UNK N   1      35.121  13.350   4.656  0.00  0.00     0.080 A 
HETATM   34  C   UNK N   1      34.263  13.501   3.547  0.00  0.00     0.084 A 
HETATM   35  C   UNK N   1      34.222  12.512   2.571  0.00  0.00     0.062 A 
HETATM   36  C   UNK N   1      35.029  11.384   2.700  0.00  0.00     0.007 A 
HETATM   37  N   UNK N   1      35.821  11.231   3.794  0.00  0.00    -0.368 N 
HETATM   38  C   UNK N   1      35.036  10.361   1.626  0.00  0.00     0.068 C 
HETATM   39  C   UNK N   1      35.879  12.178   4.768  0.00  0.00     0.108 A 
ATOM     40  HN  UNK N   1      36.387  10.386   3.886  1.00  0.00     0.165 HD
BRANCH  34  41
HETATM   41  O   UNK N   1      33.481  14.587   3.410  0.00  0.00    -0.360 OA
HETATM   42  H   UNK N   1      32.553  14.549   3.534  0.00  0.00     0.217 HD
ENDBRANCH  34  41
ENDBRANCH  30  33
ENDBRANCH  28  29
BRANCH  28  43
HETATM   43  C   UNK N   1      34.840  15.681   8.755  0.00  0.00    -0.026 A 
HETATM   44  C   UNK N   1      35.441  14.472   9.130  0.00  0.00     0.012 A 
HETATM   45  C   UNK N   1      35.966  14.319  10.411  0.00  0.00     0.037 A 
HETATM   46  C   UNK N   1      35.888  15.374  11.322  0.00  0.00     0.065 A 
HETATM   47  C   UNK N   1      35.290  16.582  10.950  0.00  0.00     0.037 A 
HETATM   48  C   UNK N   1      34.769  16.736   9.666  0.00  0.00     0.012 A 
BRANCH  46  49
HETATM   49  O   UNK N   1      36.387  15.230  12.558  0.00  0.00    -0.361 OA
HETATM   50  H   UNK N   1      36.031  14.650  13.203  0.00  0.00     0.217 HD
ENDBRANCH  46  49
ENDBRANCH  28  43
ENDBRANCH   2  28
TORSDOF 12
ENDMDL
MODEL 9
REMARK VINA RESULT:      -7.8     11.306     16.614
REMARK  12 active torsions:
REMARK  status: ('A' for Active; 'I' for Inactive)
REMARK    1  A    between atoms: C_3  and  N_13 
REMARK    2  A    between atoms: S_23  and  C_5 
REMARK    3  A    between atoms: C_22  and  C_6 
REMARK       I    between atoms: C_18  and  N_13 
REMARK       I    between atoms: N_19  and  C_14 
REMARK    4  A    between atoms: C_16  and  C_14 
REMARK    5  A    between atoms: C_29  and  C_17 
REMARK    6  A    between atoms: C_20  and  C_18 
REMARK    7  A    between atoms: C_20  and  N_19 
REMARK    8  A    between atoms: C_20  and  C_30 
REMARK    9  A    between atoms: O_37  and  C_21 
REMARK   10  A    between atoms: O_39  and  C_22 
REMARK   11  A    between atoms: C_29  and  S_23 
REMARK   12  A    between atoms: O_43  and  C_40 
ROOT
HETATM    1  N   UNK N   1      36.627  11.947  13.491  0.00  0.00    -0.343 N 
HETATM    2  C   UNK N   1      37.127  11.239  14.514  0.00  0.00     0.245 C 
HETATM    3  O   UNK N   1      38.333  11.076  14.601  0.00  0.00    -0.271 OA
HETATM    4  H   UNK N   1      37.244  12.195  12.764  0.00  0.00     0.163 HD
ENDROOT
BRANCH   1   5
HETATM    5  C   UNK N   1      35.246  12.375  13.373  0.00  0.00     0.210 C 
HETATM    6  C   UNK N   1      35.391  13.772  12.933  0.00  0.00     0.251 C 
HETATM    7  N   UNK N   1      35.122  13.561  11.682  0.00  0.00    -0.293 N 
HETATM    8  O   UNK N   1      35.985  14.715  13.431  0.00  0.00    -0.271 OA
HETATM    9  C   UNK N   1      34.700  12.213  11.868  0.00  0.00     0.187 C 
HETATM   10  C   UNK N   1      35.590  14.230  10.534  0.00  0.00     0.116 C 
HETATM   11  S   UNK N   1      35.563  10.954  10.893  0.00  0.00    -0.136 SA
HETATM   12  C   UNK N   1      36.042  11.963   9.453  0.00  0.00     0.113 C 
HETATM   13  C   UNK N   1      35.970  13.473   9.470  0.00  0.00    -0.027 C 
BRANCH  13  14
HETATM   14  C   UNK N   1      36.242  14.098   8.167  0.00  0.00     0.120 C 
BRANCH  14  15
HETATM   15  S   UNK N   1      34.841  13.529   7.158  0.00  0.00    -0.087 SA
BRANCH  15  16
HETATM   16  C   UNK N   1      34.536  15.166   6.596  0.00  0.00     0.175 A 
HETATM   17  N   UNK N   1      33.939  15.507   5.450  0.00  0.00    -0.262 N 
HETATM   18  N   UNK N   1      33.913  16.824   5.419  0.00  0.00    -0.223 N 
HETATM   19  C   UNK N   1      33.411  14.635   4.413  0.00  0.00     0.181 C 
HETATM   20  N   UNK N   1      34.484  17.285   6.525  0.00  0.00    -0.005 NA
ATOM     21  HN  UNK N   1      33.519  17.394   4.669  1.00  0.00     0.206 HD
HETATM   22  N   UNK N   1      34.881  16.268   7.276  0.00  0.00    -0.261 N 
ATOM     23  HN  UNK N   1      35.350  16.315   8.181  1.00  0.00     0.186 HD
ENDBRANCH  15  16
ENDBRANCH  14  15
ENDBRANCH  13  14
BRANCH  10  24
HETATM   24  C   UNK N   1      35.651  15.737  10.525  0.00  0.00     0.194 C 
HETATM   25  O   UNK N   1      34.683  16.409  10.204  0.00  0.00    -0.645 OA
BRANCH  24  26
HETATM   26  O   UNK N   1      36.796  16.370  10.842  0.00  0.00    -0.772 OA
HETATM   27  H   UNK N   1      37.667  16.047  10.957  0.00  0.00     0.167 HD
ENDBRANCH  24  26
ENDBRANCH  10  24
ENDBRANCH   1   5
BRANCH   2  28
HETATM   28  C   UNK N   1      36.217  10.641  15.524  0.00  0.00     0.210 C 
BRANCH  28  29
HETATM   29  N   UNK N   1      35.696   9.321  15.303  0.00  0.00    -0.339 N 
HETATM   30  C   UNK N   1      36.384   8.184  15.572  0.00  0.00     0.256 C 
HETATM   31  O   UNK N   1      37.504   8.232  16.062  0.00  0.00    -0.267 OA
HETATM   32  H   UNK N   1      34.787   9.237  14.934  0.00  0.00     0.164 HD
BRANCH  30  33
HETATM   33  C   UNK N   1      35.814   6.892  15.149  0.00  0.00     0.080 A 
HETATM   34  C   UNK N   1      35.709   6.544  13.786  0.00  0.00     0.084 A 
HETATM   35  C   UNK N   1      35.288   5.268  13.433  0.00  0.00     0.062 A 
HETATM   36  C   UNK N   1      34.974   4.347  14.430  0.00  0.00     0.007 A 
HETATM   37  N   UNK N   1      35.040   4.707  15.740  0.00  0.00    -0.368 N 
HETATM   38  C   UNK N   1      34.590   2.964  14.056  0.00  0.00     0.068 C 
HETATM   39  C   UNK N   1      35.443   5.950  16.115  0.00  0.00     0.108 A 
ATOM     40  HN  UNK N   1      34.781   4.028  16.457  1.00  0.00     0.165 HD
BRANCH  34  41
HETATM   41  O   UNK N   1      36.012   7.424  12.814  0.00  0.00    -0.360 OA
HETATM   42  H   UNK N   1      36.095   7.164  11.918  0.00  0.00     0.217 HD
ENDBRANCH  34  41
ENDBRANCH  30  33
ENDBRANCH  28  29
BRANCH  28  43
HETATM   43  C   UNK N   1      35.863  11.364  16.773  0.00  0.00    -0.026 A 
HETATM   44  C   UNK N   1      35.844  10.679  17.995  0.00  0.00     0.012 A 
HETATM   45  C   UNK N   1      35.508  11.350  19.169  0.00  0.00     0.037 A 
HETATM   46  C   UNK N   1      35.187  12.709  19.122  0.00  0.00     0.065 A 
HETATM   47  C   UNK N   1      35.207  13.395  17.904  0.00  0.00     0.037 A 
HETATM   48  C   UNK N   1      35.548  12.723  16.730  0.00  0.00     0.012 A 
BRANCH  46  49
HETATM   49  O   UNK N   1      34.859  13.358  20.248  0.00  0.00    -0.361 OA
HETATM   50  H   UNK N   1      35.222  14.184  20.501  0.00  0.00     0.217 HD
ENDBRANCH  46  49
ENDBRANCH  28  43
ENDBRANCH   2  28
TORSDOF 12
ENDMDL
