REMARK  8 active torsions:
REMARK  status: ('A' for Active; 'I' for Inactive)
REMARK    1  A    between atoms: C_6  and  C_8 
REMARK    2  A    between atoms: C_14  and  O_16 
REMARK    3  A    between atoms: C_24  and  C_18 
REMARK    4  A    between atoms: C_18  and  C_19 
REMARK    5  A    between atoms: C_19  and  C_20 
REMARK    6  A    between atoms: C_20  and  C_23 
REMARK    7  A    between atoms: C_23  and  C_28 
REMARK    8  A    between atoms: C_28  and  O_29 
ROOT
HETATM    1  C   UNK N   1      -1.916   2.552   0.205  0.00  0.00     0.010 C 
HETATM    2  C   UNK N   1      -1.522  -0.354  -0.100  0.00  0.00    -0.075 C 
HETATM    3  C   UNK N   1       1.003   0.160   0.162  0.00  0.00     0.010 C 
HETATM    4  C   UNK N   1       1.745   1.463   0.520  0.00  0.00     0.006 C 
HETATM    5  C   UNK N   1      -3.112   1.560   0.168  0.00  0.00     0.005 C 
HETATM    6  C   UNK N   1      -1.440  -1.587  -0.614  0.00  0.00     0.004 C 
HETATM    7  C   UNK N   1      -2.766   0.124   0.616  0.00  0.00     0.034 C 
HETATM    8  C   UNK N   1       0.739   2.623   0.363  0.00  0.00    -0.002 C 
HETATM    9  C   UNK N   1      -0.381   0.621  -0.268  0.00  0.00     0.023 C 
HETATM   10  C   UNK N   1      -0.591   1.873   0.583  0.00  0.00    -0.033 C 
HETATM   11  C   UNK N   1      -0.682   1.538   2.091  0.00  0.00     0.016 C 
ENDROOT
BRANCH   6  12
HETATM   12  C   UNK N   1      -2.529  -2.570  -0.465  0.00  0.00     0.008 C 
HETATM   13  C   UNK N   1      -2.400  -3.903  -0.615  0.00  0.00    -0.050 C 
HETATM   14  C   UNK N   1      -1.115  -4.615  -0.946  0.00  0.00    -0.061 C 
HETATM   15  C   UNK N   1      -3.620  -4.728  -0.356  0.00  0.00     0.070 C 
HETATM   16  C   UNK N   1      -1.030  -6.120  -0.838  0.00  0.00     0.041 C 
HETATM   17  C   UNK N   1       0.009  -3.962  -1.242  0.00  0.00     0.019 C 
HETATM   18  C   UNK N   1      -2.349  -6.824  -0.500  0.00  0.00     0.036 C 
HETATM   19  C   UNK N   1      -3.237  -5.983   0.407  0.00  0.00     0.122 C 
BRANCH  19  20
HETATM   20  O   UNK N   1      -4.388  -6.702   0.726  0.00  0.00    -0.395 OA
HETATM   21  H   UNK N   1      -5.222  -6.258   0.947  0.00  0.00     0.210 HD
ENDBRANCH  19  20
ENDBRANCH   6  12
BRANCH   8  22
HETATM   22  C   UNK N   1       0.932   3.285  -1.033  0.00  0.00    -0.014 C 
HETATM   23  C   UNK N   1      -0.156   4.304  -1.321  0.00  0.00     0.010 C 
BRANCH  22  24
HETATM   24  C   UNK N   1       2.254   4.059  -1.133  0.00  0.00     0.005 C 
BRANCH  24  25
HETATM   25  C   UNK N   1       3.454   3.190  -1.470  0.00  0.00     0.003 C 
BRANCH  25  26
HETATM   26  C   UNK N   1       4.232   2.847  -0.204  0.00  0.00     0.037 C 
BRANCH  26  27
HETATM   27  C   UNK N   1       5.367   1.855  -0.445  0.00  0.00     0.051 C 
HETATM   28  C   UNK N   1       6.472   2.511  -1.250  0.00  0.00     0.045 C 
HETATM   29  C   UNK N   1       4.872   0.618  -1.176  0.00  0.00     0.045 C 
BRANCH  27  30
HETATM   30  O   UNK N   1       5.883   1.463   0.790  0.00  0.00    -0.391 OA
HETATM   31  H   UNK N   1       5.826   1.015   1.649  0.00  0.00     0.210 HD
ENDBRANCH  27  30
ENDBRANCH  26  27
ENDBRANCH  25  26
ENDBRANCH  24  25
ENDBRANCH  22  24
ENDBRANCH   8  22
TORSDOF 8
