MODEL 1
REMARK VINA RESULT:      -7.9      0.000      0.000
REMARK  10 active torsions:
REMARK  status: ('A' for Active; 'I' for Inactive)
REMARK    1  A    between atoms: C_1  and  C_12 
REMARK    2  A    between atoms: C_3  and  C_2 
REMARK    3  A    between atoms: C_6  and  O_10 
REMARK    4  A    between atoms: C_7  and  O_9 
REMARK    5  A    between atoms: C_15  and  O_53 
REMARK    6  A    between atoms: C_18  and  C_55 
REMARK    7  A    between atoms: C_26  and  O_34 
REMARK    8  A    between atoms: C_28  and  O_33 
REMARK    9  A    between atoms: C_31  and  O_37 
REMARK   10  A    between atoms: C_55  and  C_56 
ROOT
HETATM    1  C   UNK N   1      30.420  16.137   3.951  0.00  0.00     0.166 C 
HETATM    2  C   UNK N   1      31.397  15.198   3.178  0.00  0.00     0.044 C 
HETATM    3  C   UNK N   1      31.561  13.770   3.692  0.00  0.00     0.131 C 
HETATM    4  C   UNK N   1      30.284  13.029   3.304  0.00  0.00     0.111 C 
HETATM    5  C   UNK N   1      29.832  11.891   4.156  0.00  0.00     0.137 C 
HETATM    6  C   UNK N   1      28.498  11.280   3.842  0.00  0.00     0.081 C 
HETATM    7  C   UNK N   1      27.506  11.655   4.899  0.00  0.00    -0.012 C 
HETATM    8  C   UNK N   1      26.365  12.296   4.606  0.00  0.00    -0.086 C 
HETATM    9  C   UNK N   1      25.497  12.724   5.742  0.00  0.00     0.043 C 
HETATM   10  C   UNK N   1      25.965  12.547   3.163  0.00  0.00     0.037 C 
HETATM   11  C   UNK N   1      25.019  13.724   2.933  0.00  0.00    -0.012 C 
HETATM   12  C   UNK N   1      25.596  14.588   1.826  0.00  0.00     0.010 C 
HETATM   13  C   UNK N   1      23.595  13.317   2.544  0.00  0.00     0.039 C 
HETATM   14  C   UNK N   1      22.671  12.902   3.701  0.00  0.00     0.152 C 
HETATM   15  C   UNK N   1      22.025  13.974   4.612  0.00  0.00     0.183 C 
HETATM   16  C   UNK N   1      20.536  14.326   4.479  0.00  0.00     0.153 C 
HETATM   17  C   UNK N   1      20.338  15.683   3.821  0.00  0.00     0.044 C 
HETATM   18  C   UNK N   1      21.246  16.723   4.471  0.00  0.00     0.055 C 
HETATM   19  C   UNK N   1      22.703  16.204   4.391  0.00  0.00     0.238 C 
HETATM   20  O   UNK N   1      22.844  14.999   5.138  0.00  0.00    -0.338 OA
HETATM   21  C   UNK N   1      23.743  17.175   4.897  0.00  0.00     0.278 C 
HETATM   22  C   UNK N   1      25.175  16.772   4.774  0.00  0.00     0.296 C 
HETATM   23  N   UNK N   1      26.195  17.664   4.636  0.00  0.00    -0.331 N 
HETATM   24  C   UNK N   1      25.885  19.087   4.594  0.00  0.00     0.127 C 
HETATM   25  C   UNK N   1      27.572  17.251   4.276  0.00  0.00     0.187 C 
HETATM   26  C   UNK N   1      28.500  18.447   4.397  0.00  0.00     0.035 C 
HETATM   27  C   UNK N   1      28.158  19.208   5.678  0.00  0.00     0.004 C 
HETATM   28  C   UNK N   1      26.780  19.857   5.556  0.00  0.00     0.020 C 
HETATM   29  O   UNK N   1      25.416  15.581   4.726  0.00  0.00    -0.264 OA
HETATM   30  O   UNK N   1      23.425  18.288   5.297  0.00  0.00    -0.281 OA
HETATM   31  C   UNK N   1      21.055  18.030   3.710  0.00  0.00     0.016 C 
HETATM   32  C   UNK N   1      28.186  16.020   4.959  0.00  0.00     0.282 C 
HETATM   33  O   UNK N   1      27.620  15.485   5.899  0.00  0.00    -0.263 OA
HETATM   34  O   UNK N   1      29.341  15.453   4.498  0.00  0.00    -0.309 OA
HETATM   35  C   UNK N   1      32.743  15.843   2.877  0.00  0.00     0.015 C 
HETATM   36  O   UNK N   1      30.473  11.526   5.132  0.00  0.00    -0.297 OA
ENDROOT
BRANCH   1  37
HETATM   37  C   UNK N   1      31.100  16.936   5.034  0.00  0.00    -0.058 C 
HETATM   38  C   UNK N   1      30.992  16.513   6.299  0.00  0.00    -0.017 C 
HETATM   39  C   UNK N   1      31.934  18.133   4.686  0.00  0.00     0.046 C 
BRANCH  38  40
HETATM   40  C   UNK N   1      31.650  17.206   7.450  0.00  0.00     0.011 C 
HETATM   41  C   UNK N   1      31.271  16.527   8.763  0.00  0.00     0.011 C 
HETATM   42  C   UNK N   1      31.954  15.163   8.897  0.00  0.00     0.035 C 
HETATM   43  C   UNK N   1      33.474  15.324   8.863  0.00  0.00     0.147 C 
HETATM   44  C   UNK N   1      33.922  15.976   7.556  0.00  0.00     0.150 C 
HETATM   45  C   UNK N   1      33.176  17.298   7.288  0.00  0.00     0.043 C 
BRANCH  43  46
HETATM   46  O   UNK N   1      33.899  16.093   9.947  0.00  0.00    -0.393 OA
HETATM   47  H   UNK N   1      34.754  16.321  10.345  0.00  0.00     0.210 HD
ENDBRANCH  43  46
BRANCH  44  48
HETATM   48  O   UNK N   1      33.801  15.076   6.495  0.00  0.00    -0.388 OA
HETATM   49  C   UNK N   1      34.958  15.274   5.735  0.00  0.00     0.202 C 
ENDBRANCH  44  48
ENDBRANCH  38  40
ENDBRANCH   1  37
BRANCH   3  50
HETATM   50  O   UNK N   1      31.809  13.769   5.067  0.00  0.00    -0.395 OA
HETATM   51  H   UNK N   1      31.893  13.961   6.014  0.00  0.00     0.210 HD
ENDBRANCH   3  50
BRANCH   6  52
HETATM   52  C   UNK N   1      28.517   9.792   3.469  0.00  0.00     0.042 C 
BRANCH  52  53
HETATM   53  C   UNK N   1      28.005   9.487   2.098  0.00  0.00    -0.036 C 
HETATM   54  C   UNK N   1      28.166  10.386   1.128  0.00  0.00     0.007 C 
ENDBRANCH  52  53
ENDBRANCH   6  52
BRANCH  19  55
HETATM   55  O   UNK N   1      23.014  15.988   3.042  0.00  0.00    -0.359 OA
HETATM   56  H   UNK N   1      23.487  16.024   2.196  0.00  0.00     0.213 HD
ENDBRANCH  19  55
BRANCH  16  57
HETATM   57  O   UNK N   1      19.846  13.337   3.772  0.00  0.00    -0.388 OA
HETATM   58  C   UNK N   1      19.343  13.985   2.643  0.00  0.00     0.202 C 
ENDBRANCH  16  57
BRANCH  14  59
HETATM   59  O   UNK N   1      23.178  11.828   4.431  0.00  0.00    -0.388 OA
HETATM   60  C   UNK N   1      22.664  10.698   3.796  0.00  0.00     0.202 C 
ENDBRANCH  14  59
TORSDOF 10
ENDMDL
MODEL 2
REMARK VINA RESULT:      -7.9      2.214      9.737
REMARK  10 active torsions:
REMARK  status: ('A' for Active; 'I' for Inactive)
REMARK    1  A    between atoms: C_1  and  C_12 
REMARK    2  A    between atoms: C_3  and  C_2 
REMARK    3  A    between atoms: C_6  and  O_10 
REMARK    4  A    between atoms: C_7  and  O_9 
REMARK    5  A    between atoms: C_15  and  O_53 
REMARK    6  A    between atoms: C_18  and  C_55 
REMARK    7  A    between atoms: C_26  and  O_34 
REMARK    8  A    between atoms: C_28  and  O_33 
REMARK    9  A    between atoms: C_31  and  O_37 
REMARK   10  A    between atoms: C_55  and  C_56 
ROOT
HETATM    1  C   UNK N   1      23.471  14.236   3.440  0.00  0.00     0.166 C 
HETATM    2  C   UNK N   1      22.765  15.457   2.773  0.00  0.00     0.044 C 
HETATM    3  C   UNK N   1      22.777  16.782   3.531  0.00  0.00     0.131 C 
HETATM    4  C   UNK N   1      24.197  17.330   3.408  0.00  0.00     0.111 C 
HETATM    5  C   UNK N   1      24.723  18.203   4.497  0.00  0.00     0.137 C 
HETATM    6  C   UNK N   1      26.167  18.601   4.427  0.00  0.00     0.081 C 
HETATM    7  C   UNK N   1      26.946  17.874   5.479  0.00  0.00    -0.012 C 
HETATM    8  C   UNK N   1      27.993  17.093   5.175  0.00  0.00    -0.086 C 
HETATM    9  C   UNK N   1      28.632  16.325   6.284  0.00  0.00     0.043 C 
HETATM   10  C   UNK N   1      28.521  17.022   3.753  0.00  0.00     0.037 C 
HETATM   11  C   UNK N   1      29.280  15.747   3.390  0.00  0.00    -0.012 C 
HETATM   12  C   UNK N   1      28.708  15.206   2.092  0.00  0.00     0.010 C 
HETATM   13  C   UNK N   1      30.788  15.944   3.216  0.00  0.00     0.039 C 
HETATM   14  C   UNK N   1      31.619  15.978   4.510  0.00  0.00     0.152 C 
HETATM   15  C   UNK N   1      31.962  14.666   5.257  0.00  0.00     0.183 C 
HETATM   16  C   UNK N   1      33.378  14.073   5.195  0.00  0.00     0.153 C 
HETATM   17  C   UNK N   1      33.428  12.835   4.313  0.00  0.00     0.044 C 
HETATM   18  C   UNK N   1      32.288  11.886   4.668  0.00  0.00     0.055 C 
HETATM   19  C   UNK N   1      30.958  12.671   4.557  0.00  0.00     0.238 C 
HETATM   20  O   UNK N   1      30.927  13.736   5.503  0.00  0.00    -0.338 OA
HETATM   21  C   UNK N   1      29.717  11.837   4.773  0.00  0.00     0.278 C 
HETATM   22  C   UNK N   1      28.398  12.512   4.599  0.00  0.00     0.296 C 
HETATM   23  N   UNK N   1      27.269  11.861   4.203  0.00  0.00    -0.331 N 
HETATM   24  C   UNK N   1      27.343  10.433   3.921  0.00  0.00     0.127 C 
HETATM   25  C   UNK N   1      26.034  12.577   3.804  0.00  0.00     0.187 C 
HETATM   26  C   UNK N   1      24.913  11.569   3.612  0.00  0.00     0.035 C 
HETATM   27  C   UNK N   1      24.965  10.552   4.752  0.00  0.00     0.004 C 
HETATM   28  C   UNK N   1      26.221   9.689   4.633  0.00  0.00     0.020 C 
HETATM   29  O   UNK N   1      28.364  13.718   4.756  0.00  0.00    -0.264 OA
HETATM   30  O   UNK N   1      29.795  10.632   4.982  0.00  0.00    -0.281 OA
HETATM   31  C   UNK N   1      32.352  10.715   3.694  0.00  0.00     0.016 C 
HETATM   32  C   UNK N   1      25.553  13.765   4.650  0.00  0.00     0.282 C 
HETATM   33  O   UNK N   1      26.079  14.018   5.721  0.00  0.00    -0.263 OA
HETATM   34  O   UNK N   1      24.572  14.606   4.201  0.00  0.00    -0.309 OA
HETATM   35  C   UNK N   1      21.378  15.133   2.234  0.00  0.00     0.015 C 
HETATM   36  O   UNK N   1      24.036  18.508   5.462  0.00  0.00    -0.297 OA
ENDROOT
BRANCH   1  37
HETATM   37  C   UNK N   1      22.540  13.404   4.285  0.00  0.00    -0.058 C 
HETATM   38  C   UNK N   1      22.469  13.664   5.596  0.00  0.00    -0.017 C 
HETATM   39  C   UNK N   1      21.667  12.360   3.654  0.00  0.00     0.046 C 
BRANCH  38  40
HETATM   40  C   UNK N   1      21.559  12.926   6.526  0.00  0.00     0.011 C 
HETATM   41  C   UNK N   1      22.345  12.380   7.714  0.00  0.00     0.011 C 
HETATM   42  C   UNK N   1      22.773  13.507   8.659  0.00  0.00     0.035 C 
HETATM   43  C   UNK N   1      21.547  14.244   9.196  0.00  0.00     0.147 C 
HETATM   44  C   UNK N   1      20.727  14.841   8.053  0.00  0.00     0.150 C 
HETATM   45  C   UNK N   1      20.370  13.784   6.989  0.00  0.00     0.043 C 
BRANCH  43  46
HETATM   46  O   UNK N   1      20.753  13.373   9.944  0.00  0.00    -0.393 OA
HETATM   47  H   UNK N   1      20.455  13.322  10.866  0.00  0.00     0.210 HD
ENDBRANCH  43  46
BRANCH  44  48
HETATM   48  O   UNK N   1      21.386  15.942   7.503  0.00  0.00    -0.388 OA
HETATM   49  C   UNK N   1      20.469  16.992   7.617  0.00  0.00     0.202 C 
ENDBRANCH  44  48
ENDBRANCH  38  40
ENDBRANCH   1  37
BRANCH   3  50
HETATM   50  O   UNK N   1      22.365  16.595   4.853  0.00  0.00    -0.395 OA
HETATM   51  H   UNK N   1      21.965  16.306   5.688  0.00  0.00     0.210 HD
ENDBRANCH   3  50
BRANCH   6  52
HETATM   52  C   UNK N   1      26.440  20.108   4.343  0.00  0.00     0.042 C 
BRANCH  52  53
HETATM   53  C   UNK N   1      27.283  20.652   5.452  0.00  0.00    -0.036 C 
HETATM   54  C   UNK N   1      26.744  21.505   6.322  0.00  0.00     0.007 C 
ENDBRANCH  52  53
ENDBRANCH   6  52
BRANCH  19  55
HETATM   55  O   UNK N   1      30.854  13.167   3.250  0.00  0.00    -0.359 OA
HETATM   56  H   UNK N   1      30.898  13.777   2.498  0.00  0.00     0.213 HD
ENDBRANCH  19  55
BRANCH  16  57
HETATM   57  O   UNK N   1      34.303  15.023   4.753  0.00  0.00    -0.388 OA
HETATM   58  C   UNK N   1      35.350  14.962   5.673  0.00  0.00     0.202 C 
ENDBRANCH  16  57
BRANCH  14  59
HETATM   59  O   UNK N   1      31.211  16.987   5.381  0.00  0.00    -0.388 OA
HETATM   60  C   UNK N   1      32.300  17.180   6.231  0.00  0.00     0.202 C 
ENDBRANCH  14  59
TORSDOF 10
ENDMDL
MODEL 3
REMARK VINA RESULT:      -7.7      2.573     10.036
REMARK  10 active torsions:
REMARK  status: ('A' for Active; 'I' for Inactive)
REMARK    1  A    between atoms: C_1  and  C_12 
REMARK    2  A    between atoms: C_3  and  C_2 
REMARK    3  A    between atoms: C_6  and  O_10 
REMARK    4  A    between atoms: C_7  and  O_9 
REMARK    5  A    between atoms: C_15  and  O_53 
REMARK    6  A    between atoms: C_18  and  C_55 
REMARK    7  A    between atoms: C_26  and  O_34 
REMARK    8  A    between atoms: C_28  and  O_33 
REMARK    9  A    between atoms: C_31  and  O_37 
REMARK   10  A    between atoms: C_55  and  C_56 
ROOT
HETATM    1  C   UNK N   1      27.110  16.521   4.651  0.00  0.00     0.166 C 
HETATM    2  C   UNK N   1      27.082  17.951   5.273  0.00  0.00     0.044 C 
HETATM    3  C   UNK N   1      27.623  18.118   6.690  0.00  0.00     0.131 C 
HETATM    4  C   UNK N   1      29.143  18.018   6.581  0.00  0.00     0.111 C 
HETATM    5  C   UNK N   1      29.911  17.502   7.751  0.00  0.00     0.137 C 
HETATM    6  C   UNK N   1      31.381  17.270   7.565  0.00  0.00     0.081 C 
HETATM    7  C   UNK N   1      31.663  15.801   7.520  0.00  0.00    -0.012 C 
HETATM    8  C   UNK N   1      32.270  15.226   6.471  0.00  0.00    -0.086 C 
HETATM    9  C   UNK N   1      32.404  13.740   6.475  0.00  0.00     0.043 C 
HETATM   10  C   UNK N   1      32.827  16.071   5.339  0.00  0.00     0.037 C 
HETATM   11  C   UNK N   1      32.963  15.365   3.991  0.00  0.00    -0.012 C 
HETATM   12  C   UNK N   1      32.320  16.238   2.929  0.00  0.00     0.010 C 
HETATM   13  C   UNK N   1      34.409  15.077   3.577  0.00  0.00     0.039 C 
HETATM   14  C   UNK N   1      35.056  13.831   4.207  0.00  0.00     0.152 C 
HETATM   15  C   UNK N   1      34.713  12.417   3.680  0.00  0.00     0.183 C 
HETATM   16  C   UNK N   1      35.713  11.636   2.814  0.00  0.00     0.153 C 
HETATM   17  C   UNK N   1      35.278  11.590   1.358  0.00  0.00     0.044 C 
HETATM   18  C   UNK N   1      33.808  11.192   1.258  0.00  0.00     0.055 C 
HETATM   19  C   UNK N   1      32.984  12.181   2.119  0.00  0.00     0.238 C 
HETATM   20  O   UNK N   1      33.354  12.076   3.491  0.00  0.00    -0.338 OA
HETATM   21  C   UNK N   1      31.488  11.988   2.037  0.00  0.00     0.278 C 
HETATM   22  C   UNK N   1      30.630  12.958   2.778  0.00  0.00     0.296 C 
HETATM   23  N   UNK N   1      29.366  13.288   2.391  0.00  0.00    -0.331 N 
HETATM   24  C   UNK N   1      28.817  12.677   1.187  0.00  0.00     0.127 C 
HETATM   25  C   UNK N   1      28.620  14.421   2.988  0.00  0.00     0.187 C 
HETATM   26  C   UNK N   1      27.187  14.396   2.483  0.00  0.00     0.035 C 
HETATM   27  C   UNK N   1      26.683  12.953   2.503  0.00  0.00     0.004 C 
HETATM   28  C   UNK N   1      27.426  12.119   1.459  0.00  0.00     0.020 C 
HETATM   29  O   UNK N   1      31.126  13.525   3.732  0.00  0.00    -0.264 OA
HETATM   30  O   UNK N   1      31.002  11.130   1.310  0.00  0.00    -0.281 OA
HETATM   31  C   UNK N   1      33.423  11.248  -0.216  0.00  0.00     0.016 C 
HETATM   32  C   UNK N   1      28.653  14.618   4.511  0.00  0.00     0.282 C 
HETATM   33  O   UNK N   1      29.145  13.769   5.235  0.00  0.00    -0.263 OA
HETATM   34  O   UNK N   1      28.193  15.769   5.089  0.00  0.00    -0.309 OA
HETATM   35  C   UNK N   1      25.748  18.662   5.095  0.00  0.00     0.015 C 
HETATM   36  O   UNK N   1      29.355  17.188   8.795  0.00  0.00    -0.297 OA
ENDROOT
BRANCH   1  37
HETATM   37  C   UNK N   1      25.838  15.747   4.893  0.00  0.00    -0.058 C 
HETATM   38  C   UNK N   1      24.743  16.095   4.208  0.00  0.00    -0.017 C 
HETATM   39  C   UNK N   1      25.827  14.573   5.826  0.00  0.00     0.046 C 
BRANCH  38  40
HETATM   40  C   UNK N   1      23.436  15.381   4.340  0.00  0.00     0.011 C 
HETATM   41  C   UNK N   1      22.916  15.490   5.771  0.00  0.00     0.011 C 
HETATM   42  C   UNK N   1      22.432  16.910   6.077  0.00  0.00     0.035 C 
HETATM   43  C   UNK N   1      21.301  17.303   5.127  0.00  0.00     0.147 C 
HETATM   44  C   UNK N   1      21.766  17.241   3.673  0.00  0.00     0.150 C 
HETATM   45  C   UNK N   1      22.390  15.874   3.327  0.00  0.00     0.043 C 
BRANCH  43  46
HETATM   46  O   UNK N   1      20.206  16.458   5.311  0.00  0.00    -0.393 OA
HETATM   47  H   UNK N   1      19.579  15.996   4.731  0.00  0.00     0.210 HD
ENDBRANCH  43  46
BRANCH  44  48
HETATM   48  O   UNK N   1      22.630  18.302   3.392  0.00  0.00    -0.388 OA
HETATM   49  C   UNK N   1      21.814  19.437   3.434  0.00  0.00     0.202 C 
ENDBRANCH  44  48
ENDBRANCH  38  40
ENDBRANCH   1  37
BRANCH   3  50
HETATM   50  O   UNK N   1      27.063  17.163   7.544  0.00  0.00    -0.395 OA
HETATM   51  H   UNK N   1      26.524  16.649   8.166  0.00  0.00     0.210 HD
ENDBRANCH   3  50
BRANCH   6  52
HETATM   52  C   UNK N   1      32.306  18.080   8.483  0.00  0.00     0.042 C 
BRANCH  52  53
HETATM   53  C   UNK N   1      33.678  18.313   7.937  0.00  0.00    -0.036 C 
HETATM   54  C   UNK N   1      34.713  17.676   8.484  0.00  0.00     0.007 C 
ENDBRANCH  52  53
ENDBRANCH   6  52
BRANCH  19  55
HETATM   55  O   UNK N   1      33.222  13.477   1.640  0.00  0.00    -0.359 OA
HETATM   56  H   UNK N   1      33.143  14.283   1.109  0.00  0.00     0.213 HD
ENDBRANCH  19  55
BRANCH  16  57
HETATM   57  O   UNK N   1      36.999  12.174   2.921  0.00  0.00    -0.388 OA
HETATM   58  C   UNK N   1      37.332  12.575   1.627  0.00  0.00     0.202 C 
ENDBRANCH  16  57
BRANCH  14  59
HETATM   59  O   UNK N   1      35.072  13.883   5.600  0.00  0.00    -0.388 OA
HETATM   60  C   UNK N   1      36.249  14.563   5.914  0.00  0.00     0.202 C 
ENDBRANCH  14  59
TORSDOF 10
ENDMDL
MODEL 4
REMARK VINA RESULT:      -7.6      2.152      9.596
REMARK  10 active torsions:
REMARK  status: ('A' for Active; 'I' for Inactive)
REMARK    1  A    between atoms: C_1  and  C_12 
REMARK    2  A    between atoms: C_3  and  C_2 
REMARK    3  A    between atoms: C_6  and  O_10 
REMARK    4  A    between atoms: C_7  and  O_9 
REMARK    5  A    between atoms: C_15  and  O_53 
REMARK    6  A    between atoms: C_18  and  C_55 
REMARK    7  A    between atoms: C_26  and  O_34 
REMARK    8  A    between atoms: C_28  and  O_33 
REMARK    9  A    between atoms: C_31  and  O_37 
REMARK   10  A    between atoms: C_55  and  C_56 
ROOT
HETATM    1  C   UNK N   1      25.188  12.645   1.562  0.00  0.00     0.166 C 
HETATM    2  C   UNK N   1      24.056  13.488   0.898  0.00  0.00     0.044 C 
HETATM    3  C   UNK N   1      23.025  14.137   1.817  0.00  0.00     0.131 C 
HETATM    4  C   UNK N   1      23.731  15.314   2.485  0.00  0.00     0.111 C 
HETATM    5  C   UNK N   1      23.281  15.740   3.842  0.00  0.00     0.137 C 
HETATM    6  C   UNK N   1      24.088  16.795   4.538  0.00  0.00     0.081 C 
HETATM    7  C   UNK N   1      24.859  16.184   5.666  0.00  0.00    -0.012 C 
HETATM    8  C   UNK N   1      26.196  16.270   5.741  0.00  0.00    -0.086 C 
HETATM    9  C   UNK N   1      26.878  15.532   6.844  0.00  0.00     0.043 C 
HETATM   10  C   UNK N   1      26.975  17.117   4.751  0.00  0.00     0.037 C 
HETATM   11  C   UNK N   1      28.435  16.718   4.544  0.00  0.00    -0.012 C 
HETATM   12  C   UNK N   1      28.691  16.607   3.052  0.00  0.00     0.010 C 
HETATM   13  C   UNK N   1      29.444  17.703   5.141  0.00  0.00     0.039 C 
HETATM   14  C   UNK N   1      29.704  17.572   6.651  0.00  0.00     0.152 C 
HETATM   15  C   UNK N   1      30.611  16.443   7.196  0.00  0.00     0.183 C 
HETATM   16  C   UNK N   1      32.034  16.747   7.690  0.00  0.00     0.153 C 
HETATM   17  C   UNK N   1      33.085  16.249   6.711  0.00  0.00     0.044 C 
HETATM   18  C   UNK N   1      32.783  14.813   6.294  0.00  0.00     0.055 C 
HETATM   19  C   UNK N   1      31.342  14.771   5.729  0.00  0.00     0.238 C 
HETATM   20  O   UNK N   1      30.400  15.123   6.739  0.00  0.00    -0.338 OA
HETATM   21  C   UNK N   1      30.926  13.432   5.168  0.00  0.00     0.278 C 
HETATM   22  C   UNK N   1      29.579  13.342   4.533  0.00  0.00     0.296 C 
HETATM   23  N   UNK N   1      29.278  12.467   3.533  0.00  0.00    -0.331 N 
HETATM   24  C   UNK N   1      30.320  11.574   3.044  0.00  0.00     0.127 C 
HETATM   25  C   UNK N   1      28.022  12.550   2.752  0.00  0.00     0.187 C 
HETATM   26  C   UNK N   1      27.906  11.324   1.861  0.00  0.00     0.035 C 
HETATM   27  C   UNK N   1      28.316  10.091   2.666  0.00  0.00     0.004 C 
HETATM   28  C   UNK N   1      29.810  10.140   2.984  0.00  0.00     0.020 C 
HETATM   29  O   UNK N   1      28.740  14.147   4.890  0.00  0.00    -0.264 OA
HETATM   30  O   UNK N   1      31.706  12.487   5.147  0.00  0.00    -0.281 OA
HETATM   31  C   UNK N   1      33.823  14.413   5.255  0.00  0.00     0.016 C 
HETATM   32  C   UNK N   1      26.699  12.810   3.488  0.00  0.00     0.282 C 
HETATM   33  O   UNK N   1      26.653  12.786   4.707  0.00  0.00    -0.263 OA
HETATM   34  O   UNK N   1      25.559  13.136   2.807  0.00  0.00    -0.309 OA
HETATM   35  C   UNK N   1      23.394  12.787  -0.281  0.00  0.00     0.015 C 
HETATM   36  O   UNK N   1      22.348  15.190   4.410  0.00  0.00    -0.297 OA
ENDROOT
BRANCH   1  37
HETATM   37  C   UNK N   1      24.840  11.183   1.689  0.00  0.00    -0.058 C 
HETATM   38  C   UNK N   1      24.292  10.757   2.833  0.00  0.00    -0.017 C 
HETATM   39  C   UNK N   1      25.041  10.250   0.532  0.00  0.00     0.046 C 
BRANCH  38  40
HETATM   40  C   UNK N   1      23.877   9.339   3.061  0.00  0.00     0.011 C 
HETATM   41  C   UNK N   1      24.656   8.739   4.228  0.00  0.00     0.011 C 
HETATM   42  C   UNK N   1      24.192   9.330   5.563  0.00  0.00     0.035 C 
HETATM   43  C   UNK N   1      22.707   9.044   5.783  0.00  0.00     0.147 C 
HETATM   44  C   UNK N   1      21.865   9.644   4.658  0.00  0.00     0.150 C 
HETATM   45  C   UNK N   1      22.360   9.195   3.268  0.00  0.00     0.043 C 
BRANCH  43  46
HETATM   46  O   UNK N   1      22.489   7.668   5.856  0.00  0.00    -0.393 OA
HETATM   47  H   UNK N   1      22.816   6.886   5.384  0.00  0.00     0.210 HD
ENDBRANCH  43  46
BRANCH  44  48
HETATM   48  O   UNK N   1      21.812  11.034   4.776  0.00  0.00    -0.388 OA
HETATM   49  C   UNK N   1      20.944  11.262   5.848  0.00  0.00     0.202 C 
ENDBRANCH  44  48
ENDBRANCH  38  40
ENDBRANCH   1  37
BRANCH   3  50
HETATM   50  O   UNK N   1      22.520  13.202   2.724  0.00  0.00    -0.395 OA
HETATM   51  H   UNK N   1      21.994  12.566   3.235  0.00  0.00     0.210 HD
ENDBRANCH   3  50
BRANCH   6  52
HETATM   52  C   UNK N   1      23.337  18.086   4.891  0.00  0.00     0.042 C 
BRANCH  52  53
HETATM   53  C   UNK N   1      23.348  19.126   3.817  0.00  0.00    -0.036 C 
HETATM   54  C   UNK N   1      24.504  19.685   3.462  0.00  0.00     0.007 C 
ENDBRANCH  52  53
ENDBRANCH   6  52
BRANCH  19  55
HETATM   55  O   UNK N   1      31.271  15.667   4.653  0.00  0.00    -0.359 OA
HETATM   56  H   UNK N   1      31.326  16.018   3.751  0.00  0.00     0.213 HD
ENDBRANCH  19  55
BRANCH  16  57
HETATM   57  O   UNK N   1      32.202  18.113   7.932  0.00  0.00    -0.388 OA
HETATM   58  C   UNK N   1      33.583  18.312   7.938  0.00  0.00     0.202 C 
ENDBRANCH  16  57
BRANCH  14  59
HETATM   59  O   UNK N   1      28.544  17.725   7.408  0.00  0.00    -0.388 OA
HETATM   60  C   UNK N   1      28.411  19.103   7.576  0.00  0.00     0.202 C 
ENDBRANCH  14  59
TORSDOF 10
ENDMDL
MODEL 5
REMARK VINA RESULT:      -7.5      6.405     12.227
REMARK  10 active torsions:
REMARK  status: ('A' for Active; 'I' for Inactive)
REMARK    1  A    between atoms: C_1  and  C_12 
REMARK    2  A    between atoms: C_3  and  C_2 
REMARK    3  A    between atoms: C_6  and  O_10 
REMARK    4  A    between atoms: C_7  and  O_9 
REMARK    5  A    between atoms: C_15  and  O_53 
REMARK    6  A    between atoms: C_18  and  C_55 
REMARK    7  A    between atoms: C_26  and  O_34 
REMARK    8  A    between atoms: C_28  and  O_33 
REMARK    9  A    between atoms: C_31  and  O_37 
REMARK   10  A    between atoms: C_55  and  C_56 
ROOT
HETATM    1  C   UNK N   1      33.671  12.193   6.633  0.00  0.00     0.166 C 
HETATM    2  C   UNK N   1      33.045  11.100   5.714  0.00  0.00     0.044 C 
HETATM    3  C   UNK N   1      33.957   9.978   5.226  0.00  0.00     0.131 C 
HETATM    4  C   UNK N   1      34.190   9.065   6.428  0.00  0.00     0.111 C 
HETATM    5  C   UNK N   1      35.466   8.298   6.505  0.00  0.00     0.137 C 
HETATM    6  C   UNK N   1      35.736   7.530   7.765  0.00  0.00     0.081 C 
HETATM    7  C   UNK N   1      36.816   8.205   8.551  0.00  0.00    -0.012 C 
HETATM    8  C   UNK N   1      36.624   8.618   9.813  0.00  0.00    -0.086 C 
HETATM    9  C   UNK N   1      37.727   9.379  10.470  0.00  0.00     0.043 C 
HETATM   10  C   UNK N   1      35.338   8.289  10.549  0.00  0.00     0.037 C 
HETATM   11  C   UNK N   1      34.968   9.233  11.692  0.00  0.00    -0.012 C 
HETATM   12  C   UNK N   1      33.524   9.661  11.507  0.00  0.00     0.010 C 
HETATM   13  C   UNK N   1      35.123   8.621  13.086  0.00  0.00     0.039 C 
HETATM   14  C   UNK N   1      36.549   8.606  13.663  0.00  0.00     0.152 C 
HETATM   15  C   UNK N   1      37.169   9.895  14.253  0.00  0.00     0.183 C 
HETATM   16  C   UNK N   1      37.310  10.077  15.772  0.00  0.00     0.153 C 
HETATM   17  C   UNK N   1      36.301  11.077  16.313  0.00  0.00     0.044 C 
HETATM   18  C   UNK N   1      36.297  12.340  15.457  0.00  0.00     0.055 C 
HETATM   19  C   UNK N   1      36.029  11.923  13.990  0.00  0.00     0.238 C 
HETATM   20  O   UNK N   1      37.082  11.092  13.507  0.00  0.00    -0.338 OA
HETATM   21  C   UNK N   1      35.884  13.077  13.026  0.00  0.00     0.278 C 
HETATM   22  C   UNK N   1      35.544  12.750  11.610  0.00  0.00     0.296 C 
HETATM   23  N   UNK N   1      34.851  13.591  10.793  0.00  0.00    -0.331 N 
HETATM   24  C   UNK N   1      34.404  14.874  11.320  0.00  0.00     0.127 C 
HETATM   25  C   UNK N   1      34.314  13.163   9.480  0.00  0.00     0.187 C 
HETATM   26  C   UNK N   1      33.773  14.376   8.742  0.00  0.00     0.035 C 
HETATM   27  C   UNK N   1      34.757  15.534   8.912  0.00  0.00     0.004 C 
HETATM   28  C   UNK N   1      34.777  16.002  10.366  0.00  0.00     0.020 C 
HETATM   29  O   UNK N   1      35.848  11.645  11.206  0.00  0.00    -0.264 OA
HETATM   30  O   UNK N   1      35.945  14.237  13.417  0.00  0.00    -0.281 OA
HETATM   31  C   UNK N   1      35.209  13.256  16.006  0.00  0.00     0.016 C 
HETATM   32  C   UNK N   1      35.196  12.315   8.552  0.00  0.00     0.282 C 
HETATM   33  O   UNK N   1      36.374  12.132   8.812  0.00  0.00    -0.263 OA
HETATM   34  O   UNK N   1      34.677  11.693   7.450  0.00  0.00    -0.309 OA
HETATM   35  C   UNK N   1      32.205  11.672   4.580  0.00  0.00     0.015 C 
HETATM   36  O   UNK N   1      36.308   8.363   5.620  0.00  0.00    -0.297 OA
ENDROOT
BRANCH   1  37
HETATM   37  C   UNK N   1      34.200  13.379   5.866  0.00  0.00    -0.058 C 
HETATM   38  C   UNK N   1      33.355  14.376   5.576  0.00  0.00    -0.017 C 
HETATM   39  C   UNK N   1      35.651  13.464   5.500  0.00  0.00     0.046 C 
BRANCH  38  40
HETATM   40  C   UNK N   1      33.772  15.614   4.849  0.00  0.00     0.011 C 
HETATM   41  C   UNK N   1      33.116  15.666   3.472  0.00  0.00     0.011 C 
HETATM   42  C   UNK N   1      31.618  15.962   3.585  0.00  0.00     0.035 C 
HETATM   43  C   UNK N   1      31.392  17.308   4.273  0.00  0.00     0.147 C 
HETATM   44  C   UNK N   1      32.004  17.313   5.673  0.00  0.00     0.150 C 
HETATM   45  C   UNK N   1      33.487  16.894   5.653  0.00  0.00     0.043 C 
BRANCH  43  46
HETATM   46  O   UNK N   1      31.947  18.336   3.509  0.00  0.00    -0.393 OA
HETATM   47  H   UNK N   1      32.418  19.164   3.695  0.00  0.00     0.210 HD
ENDBRANCH  43  46
BRANCH  44  48
HETATM   48  O   UNK N   1      31.244  16.524   6.540  0.00  0.00    -0.388 OA
HETATM   49  C   UNK N   1      31.397  17.132   7.790  0.00  0.00     0.202 C 
ENDBRANCH  44  48
ENDBRANCH  38  40
ENDBRANCH   1  37
BRANCH   3  50
HETATM   50  O   UNK N   1      35.135  10.503   4.689  0.00  0.00    -0.395 OA
HETATM   51  H   UNK N   1      35.832  11.036   4.274  0.00  0.00     0.210 HD
ENDBRANCH   3  50
BRANCH   6  52
HETATM   52  C   UNK N   1      35.906   6.014   7.599  0.00  0.00     0.042 C 
BRANCH  52  53
HETATM   53  C   UNK N   1      34.934   5.189   8.382  0.00  0.00    -0.036 C 
HETATM   54  C   UNK N   1      33.679   5.615   8.518  0.00  0.00     0.007 C 
ENDBRANCH  52  53
ENDBRANCH   6  52
BRANCH  19  55
HETATM   55  O   UNK N   1      34.804  11.243  13.948  0.00  0.00    -0.359 OA
HETATM   56  H   UNK N   1      33.916  10.977  13.665  0.00  0.00     0.213 HD
ENDBRANCH  19  55
BRANCH  16  57
HETATM   57  O   UNK N   1      37.189   8.854  16.439  0.00  0.00    -0.388 OA
HETATM   58  C   UNK N   1      36.726   9.181  17.713  0.00  0.00     0.202 C 
ENDBRANCH  16  57
BRANCH  14  59
HETATM   59  O   UNK N   1      37.446   7.914  12.853  0.00  0.00    -0.388 OA
HETATM   60  C   UNK N   1      37.404   6.601  13.321  0.00  0.00     0.202 C 
ENDBRANCH  14  59
TORSDOF 10
ENDMDL
MODEL 6
REMARK VINA RESULT:      -7.5      2.556      8.992
REMARK  10 active torsions:
REMARK  status: ('A' for Active; 'I' for Inactive)
REMARK    1  A    between atoms: C_1  and  C_12 
REMARK    2  A    between atoms: C_3  and  C_2 
REMARK    3  A    between atoms: C_6  and  O_10 
REMARK    4  A    between atoms: C_7  and  O_9 
REMARK    5  A    between atoms: C_15  and  O_53 
REMARK    6  A    between atoms: C_18  and  C_55 
REMARK    7  A    between atoms: C_26  and  O_34 
REMARK    8  A    between atoms: C_28  and  O_33 
REMARK    9  A    between atoms: C_31  and  O_37 
REMARK   10  A    between atoms: C_55  and  C_56 
ROOT
HETATM    1  C   UNK N   1      25.073  17.571   3.400  0.00  0.00     0.166 C 
HETATM    2  C   UNK N   1      25.871  18.912   3.425  0.00  0.00     0.044 C 
HETATM    3  C   UNK N   1      26.881  19.113   4.551  0.00  0.00     0.131 C 
HETATM    4  C   UNK N   1      28.074  18.221   4.218  0.00  0.00     0.111 C 
HETATM    5  C   UNK N   1      28.900  17.685   5.338  0.00  0.00     0.137 C 
HETATM    6  C   UNK N   1      29.970  16.691   4.994  0.00  0.00     0.081 C 
HETATM    7  C   UNK N   1      29.566  15.327   5.462  0.00  0.00    -0.012 C 
HETATM    8  C   UNK N   1      29.471  14.287   4.621  0.00  0.00    -0.086 C 
HETATM    9  C   UNK N   1      28.953  12.998   5.166  0.00  0.00     0.043 C 
HETATM   10  C   UNK N   1      29.907  14.419   3.172  0.00  0.00     0.037 C 
HETATM   11  C   UNK N   1      29.259  13.441   2.194  0.00  0.00    -0.012 C 
HETATM   12  C   UNK N   1      28.726  14.233   1.013  0.00  0.00     0.010 C 
HETATM   13  C   UNK N   1      30.206  12.358   1.669  0.00  0.00     0.039 C 
HETATM   14  C   UNK N   1      30.435  11.155   2.599  0.00  0.00     0.152 C 
HETATM   15  C   UNK N   1      29.366  10.042   2.720  0.00  0.00     0.183 C 
HETATM   16  C   UNK N   1      29.575   8.674   2.053  0.00  0.00     0.153 C 
HETATM   17  C   UNK N   1      28.691   8.507   0.827  0.00  0.00     0.044 C 
HETATM   18  C   UNK N   1      27.257   8.914   1.150  0.00  0.00     0.055 C 
HETATM   19  C   UNK N   1      27.282  10.361   1.702  0.00  0.00     0.238 C 
HETATM   20  O   UNK N   1      28.018  10.416   2.921  0.00  0.00    -0.338 OA
HETATM   21  C   UNK N   1      25.919  10.954   1.970  0.00  0.00     0.278 C 
HETATM   22  C   UNK N   1      25.866  12.374   2.426  0.00  0.00     0.296 C 
HETATM   23  N   UNK N   1      24.815  13.203   2.175  0.00  0.00    -0.331 N 
HETATM   24  C   UNK N   1      23.682  12.692   1.414  0.00  0.00     0.127 C 
HETATM   25  C   UNK N   1      24.875  14.663   2.420  0.00  0.00     0.187 C 
HETATM   26  C   UNK N   1      23.491  15.260   2.228  0.00  0.00     0.035 C 
HETATM   27  C   UNK N   1      22.463  14.339   2.885  0.00  0.00     0.004 C 
HETATM   28  C   UNK N   1      22.373  13.017   2.122  0.00  0.00     0.020 C 
HETATM   29  O   UNK N   1      26.850  12.815   2.988  0.00  0.00    -0.264 OA
HETATM   30  O   UNK N   1      24.897  10.324   1.723  0.00  0.00    -0.281 OA
HETATM   31  C   UNK N   1      26.452   8.801  -0.139  0.00  0.00     0.016 C 
HETATM   32  C   UNK N   1      25.509  15.178   3.720  0.00  0.00     0.282 C 
HETATM   33  O   UNK N   1      25.810  14.403   4.613  0.00  0.00    -0.263 OA
HETATM   34  O   UNK N   1      25.811  16.501   3.889  0.00  0.00    -0.309 OA
HETATM   35  C   UNK N   1      24.994  20.141   3.232  0.00  0.00     0.015 C 
HETATM   36  O   UNK N   1      28.660  17.967   6.504  0.00  0.00    -0.297 OA
ENDROOT
BRANCH   1  37
HETATM   37  C   UNK N   1      23.762  17.650   4.141  0.00  0.00    -0.058 C 
HETATM   38  C   UNK N   1      22.722  18.230   3.531  0.00  0.00    -0.017 C 
HETATM   39  C   UNK N   1      23.617  17.030   5.499  0.00  0.00     0.046 C 
BRANCH  38  40
HETATM   40  C   UNK N   1      21.367  18.338   4.154  0.00  0.00     0.011 C 
HETATM   41  C   UNK N   1      20.769  19.716   3.888  0.00  0.00     0.011 C 
HETATM   42  C   UNK N   1      20.358  19.866   2.421  0.00  0.00     0.035 C 
HETATM   43  C   UNK N   1      19.313  18.813   2.051  0.00  0.00     0.147 C 
HETATM   44  C   UNK N   1      19.861  17.404   2.270  0.00  0.00     0.150 C 
HETATM   45  C   UNK N   1      20.417  17.218   3.696  0.00  0.00     0.043 C 
BRANCH  43  46
HETATM   46  O   UNK N   1      18.158  18.996   2.811  0.00  0.00    -0.393 OA
HETATM   47  H   UNK N   1      17.893  18.817   3.728  0.00  0.00     0.210 HD
ENDBRANCH  43  46
BRANCH  44  48
HETATM   48  O   UNK N   1      20.805  17.090   1.290  0.00  0.00    -0.388 OA
HETATM   49  C   UNK N   1      20.047  16.834   0.142  0.00  0.00     0.202 C 
ENDBRANCH  44  48
ENDBRANCH  38  40
ENDBRANCH   1  37
BRANCH   3  50
HETATM   50  O   UNK N   1      26.299  18.826   5.788  0.00  0.00    -0.395 OA
HETATM   51  H   UNK N   1      25.894  18.427   6.574  0.00  0.00     0.210 HD
ENDBRANCH   3  50
BRANCH   6  52
HETATM   52  C   UNK N   1      31.404  17.102   5.354  0.00  0.00     0.042 C 
BRANCH  52  53
HETATM   53  C   UNK N   1      32.174  17.721   4.232  0.00  0.00    -0.036 C 
HETATM   54  C   UNK N   1      32.289  17.063   3.079  0.00  0.00     0.007 C 
ENDBRANCH  52  53
ENDBRANCH   6  52
BRANCH  19  55
HETATM   55  O   UNK N   1      27.867  11.186   0.733  0.00  0.00    -0.359 OA
HETATM   56  H   UNK N   1      28.338  11.463  -0.068  0.00  0.00     0.213 HD
ENDBRANCH  19  55
BRANCH  16  57
HETATM   57  O   UNK N   1      30.917   8.479   1.715  0.00  0.00    -0.388 OA
HETATM   58  C   UNK N   1      30.913   8.236   0.341  0.00  0.00     0.202 C 
ENDBRANCH  16  57
BRANCH  14  59
HETATM   59  O   UNK N   1      30.949  11.527   3.840  0.00  0.00    -0.388 OA
HETATM   60  C   UNK N   1      32.331  11.545   3.658  0.00  0.00     0.202 C 
ENDBRANCH  14  59
TORSDOF 10
ENDMDL
MODEL 7
REMARK VINA RESULT:      -7.4      2.279      9.590
REMARK  10 active torsions:
REMARK  status: ('A' for Active; 'I' for Inactive)
REMARK    1  A    between atoms: C_1  and  C_12 
REMARK    2  A    between atoms: C_3  and  C_2 
REMARK    3  A    between atoms: C_6  and  O_10 
REMARK    4  A    between atoms: C_7  and  O_9 
REMARK    5  A    between atoms: C_15  and  O_53 
REMARK    6  A    between atoms: C_18  and  C_55 
REMARK    7  A    between atoms: C_26  and  O_34 
REMARK    8  A    between atoms: C_28  and  O_33 
REMARK    9  A    between atoms: C_31  and  O_37 
REMARK   10  A    between atoms: C_55  and  C_56 
ROOT
HETATM    1  C   UNK N   1      22.892  12.576   1.789  0.00  0.00     0.166 C 
HETATM    2  C   UNK N   1      21.540  13.350   1.708  0.00  0.00     0.044 C 
HETATM    3  C   UNK N   1      20.809  13.637   3.016  0.00  0.00     0.131 C 
HETATM    4  C   UNK N   1      21.593  14.750   3.707  0.00  0.00     0.111 C 
HETATM    5  C   UNK N   1      21.569  14.823   5.196  0.00  0.00     0.137 C 
HETATM    6  C   UNK N   1      22.467  15.829   5.854  0.00  0.00     0.081 C 
HETATM    7  C   UNK N   1      23.608  15.130   6.525  0.00  0.00    -0.012 C 
HETATM    8  C   UNK N   1      24.886  15.404   6.221  0.00  0.00    -0.086 C 
HETATM    9  C   UNK N   1      25.946  14.574   6.865  0.00  0.00     0.043 C 
HETATM   10  C   UNK N   1      25.232  16.541   5.276  0.00  0.00     0.037 C 
HETATM   11  C   UNK N   1      26.576  16.421   4.559  0.00  0.00    -0.012 C 
HETATM   12  C   UNK N   1      26.346  16.650   3.076  0.00  0.00     0.010 C 
HETATM   13  C   UNK N   1      27.637  17.410   5.049  0.00  0.00     0.039 C 
HETATM   14  C   UNK N   1      28.379  17.021   6.339  0.00  0.00     0.152 C 
HETATM   15  C   UNK N   1      29.504  15.959   6.307  0.00  0.00     0.183 C 
HETATM   16  C   UNK N   1      30.980  16.372   6.417  0.00  0.00     0.153 C 
HETATM   17  C   UNK N   1      31.697  16.248   5.082  0.00  0.00     0.044 C 
HETATM   18  C   UNK N   1      31.397  14.894   4.445  0.00  0.00     0.055 C 
HETATM   19  C   UNK N   1      29.860  14.746   4.336  0.00  0.00     0.238 C 
HETATM   20  O   UNK N   1      29.267  14.740   5.632  0.00  0.00    -0.338 OA
HETATM   21  C   UNK N   1      29.399  13.498   3.621  0.00  0.00     0.278 C 
HETATM   22  C   UNK N   1      27.931  13.331   3.409  0.00  0.00     0.296 C 
HETATM   23  N   UNK N   1      27.399  12.638   2.365  0.00  0.00    -0.331 N 
HETATM   24  C   UNK N   1      28.299  12.031   1.392  0.00  0.00     0.127 C 
HETATM   25  C   UNK N   1      25.956  12.681   2.031  0.00  0.00     0.187 C 
HETATM   26  C   UNK N   1      25.662  11.655   0.950  0.00  0.00     0.035 C 
HETATM   27  C   UNK N   1      26.410  10.364   1.281  0.00  0.00     0.004 C 
HETATM   28  C   UNK N   1      27.917  10.577   1.146  0.00  0.00     0.020 C 
HETATM   29  O   UNK N   1      27.188  13.910   4.178  0.00  0.00    -0.264 OA
HETATM   30  O   UNK N   1      30.206  12.708   3.148  0.00  0.00    -0.281 OA
HETATM   31  C   UNK N   1      32.078  14.875   3.081  0.00  0.00     0.016 C 
HETATM   32  C   UNK N   1      24.923  12.583   3.164  0.00  0.00     0.282 C 
HETATM   33  O   UNK N   1      25.274  12.309   4.300  0.00  0.00    -0.263 OA
HETATM   34  O   UNK N   1      23.602  12.859   2.948  0.00  0.00    -0.309 OA
HETATM   35  C   UNK N   1      20.595  12.807   0.645  0.00  0.00     0.015 C 
HETATM   36  O   UNK N   1      20.918  14.034   5.867  0.00  0.00    -0.297 OA
ENDROOT
BRANCH   1  37
HETATM   37  C   UNK N   1      22.726  11.083   1.660  0.00  0.00    -0.058 C 
HETATM   38  C   UNK N   1      22.721  10.346   2.778  0.00  0.00    -0.017 C 
HETATM   39  C   UNK N   1      22.503  10.454   0.317  0.00  0.00     0.046 C 
BRANCH  38  40
HETATM   40  C   UNK N   1      22.533   8.862   2.776  0.00  0.00     0.011 C 
HETATM   41  C   UNK N   1      23.869   8.158   2.556  0.00  0.00     0.011 C 
HETATM   42  C   UNK N   1      24.764   8.273   3.793  0.00  0.00     0.035 C 
HETATM   43  C   UNK N   1      24.082   7.636   5.004  0.00  0.00     0.147 C 
HETATM   44  C   UNK N   1      22.746   8.316   5.295  0.00  0.00     0.150 C 
HETATM   45  C   UNK N   1      21.837   8.356   4.050  0.00  0.00     0.043 C 
BRANCH  43  46
HETATM   46  O   UNK N   1      23.882   6.274   4.779  0.00  0.00    -0.393 OA
HETATM   47  H   UNK N   1      23.442   5.738   4.099  0.00  0.00     0.210 HD
ENDBRANCH  43  46
BRANCH  44  48
HETATM   48  O   UNK N   1      22.953   9.586   5.838  0.00  0.00    -0.388 OA
HETATM   49  C   UNK N   1      23.570   9.343   7.070  0.00  0.00     0.202 C 
ENDBRANCH  44  48
ENDBRANCH  38  40
ENDBRANCH   1  37
BRANCH   3  50
HETATM   50  O   UNK N   1      20.703  12.473   3.783  0.00  0.00    -0.395 OA
HETATM   51  H   UNK N   1      20.640  11.800   4.479  0.00  0.00     0.210 HD
ENDBRANCH   3  50
BRANCH   6  52
HETATM   52  C   UNK N   1      21.764  16.892   6.709  0.00  0.00     0.042 C 
BRANCH  52  53
HETATM   53  C   UNK N   1      21.461  18.168   5.990  0.00  0.00    -0.036 C 
HETATM   54  C   UNK N   1      22.099  18.444   4.854  0.00  0.00     0.007 C 
ENDBRANCH  52  53
ENDBRANCH   6  52
BRANCH  19  55
HETATM   55  O   UNK N   1      29.373  15.817   3.575  0.00  0.00    -0.359 OA
HETATM   56  H   UNK N   1      29.339  16.536   2.925  0.00  0.00     0.213 HD
ENDBRANCH  19  55
BRANCH  16  57
HETATM   57  O   UNK N   1      31.102  17.672   6.916  0.00  0.00    -0.388 OA
HETATM   58  C   UNK N   1      31.816  17.536   8.107  0.00  0.00     0.202 C 
ENDBRANCH  16  57
BRANCH  14  59
HETATM   59  O   UNK N   1      27.516  16.839   7.418  0.00  0.00    -0.388 OA
HETATM   60  C   UNK N   1      28.065  17.609   8.442  0.00  0.00     0.202 C 
ENDBRANCH  14  59
TORSDOF 10
ENDMDL
MODEL 8
REMARK VINA RESULT:      -7.2      2.525      6.000
REMARK  10 active torsions:
REMARK  status: ('A' for Active; 'I' for Inactive)
REMARK    1  A    between atoms: C_1  and  C_12 
REMARK    2  A    between atoms: C_3  and  C_2 
REMARK    3  A    between atoms: C_6  and  O_10 
REMARK    4  A    between atoms: C_7  and  O_9 
REMARK    5  A    between atoms: C_15  and  O_53 
REMARK    6  A    between atoms: C_18  and  C_55 
REMARK    7  A    between atoms: C_26  and  O_34 
REMARK    8  A    between atoms: C_28  and  O_33 
REMARK    9  A    between atoms: C_31  and  O_37 
REMARK   10  A    between atoms: C_55  and  C_56 
ROOT
HETATM    1  C   UNK N   1      29.732  15.530   5.332  0.00  0.00     0.166 C 
HETATM    2  C   UNK N   1      29.307  16.440   6.525  0.00  0.00     0.044 C 
HETATM    3  C   UNK N   1      28.427  17.648   6.215  0.00  0.00     0.131 C 
HETATM    4  C   UNK N   1      27.033  17.096   5.927  0.00  0.00     0.111 C 
HETATM    5  C   UNK N   1      26.141  17.855   5.003  0.00  0.00     0.137 C 
HETATM    6  C   UNK N   1      24.840  17.216   4.617  0.00  0.00     0.081 C 
HETATM    7  C   UNK N   1      24.898  16.763   3.192  0.00  0.00    -0.012 C 
HETATM    8  C   UNK N   1      24.691  15.485   2.844  0.00  0.00    -0.086 C 
HETATM    9  C   UNK N   1      24.881  15.115   1.410  0.00  0.00     0.043 C 
HETATM   10  C   UNK N   1      24.247  14.462   3.875  0.00  0.00     0.037 C 
HETATM   11  C   UNK N   1      24.584  13.007   3.554  0.00  0.00    -0.012 C 
HETATM   12  C   UNK N   1      25.255  12.395   4.770  0.00  0.00     0.010 C 
HETATM   13  C   UNK N   1      23.371  12.150   3.181  0.00  0.00     0.039 C 
HETATM   14  C   UNK N   1      22.877  12.275   1.729  0.00  0.00     0.152 C 
HETATM   15  C   UNK N   1      23.629  11.560   0.581  0.00  0.00     0.183 C 
HETATM   16  C   UNK N   1      23.051  10.295  -0.072  0.00  0.00     0.153 C 
HETATM   17  C   UNK N   1      23.814   9.049   0.348  0.00  0.00     0.044 C 
HETATM   18  C   UNK N   1      25.316   9.279   0.214  0.00  0.00     0.055 C 
HETATM   19  C   UNK N   1      25.685  10.537   1.039  0.00  0.00     0.238 C 
HETATM   20  O   UNK N   1      25.035  11.689   0.508  0.00  0.00    -0.338 OA
HETATM   21  C   UNK N   1      27.163  10.838   1.098  0.00  0.00     0.278 C 
HETATM   22  C   UNK N   1      27.596  11.989   1.943  0.00  0.00     0.296 C 
HETATM   23  N   UNK N   1      28.814  12.057   2.549  0.00  0.00    -0.331 N 
HETATM   24  C   UNK N   1      29.748  10.951   2.379  0.00  0.00     0.127 C 
HETATM   25  C   UNK N   1      29.140  13.080   3.571  0.00  0.00     0.187 C 
HETATM   26  C   UNK N   1      30.622  13.006   3.897  0.00  0.00     0.035 C 
HETATM   27  C   UNK N   1      31.404  12.840   2.594  0.00  0.00     0.004 C 
HETATM   28  C   UNK N   1      31.123  11.470   1.979  0.00  0.00     0.020 C 
HETATM   29  O   UNK N   1      26.781  12.867   2.147  0.00  0.00    -0.264 OA
HETATM   30  O   UNK N   1      27.979  10.102   0.554  0.00  0.00    -0.281 OA
HETATM   31  C   UNK N   1      26.015   8.025   0.728  0.00  0.00     0.016 C 
HETATM   32  C   UNK N   1      28.710  14.535   3.336  0.00  0.00     0.282 C 
HETATM   33  O   UNK N   1      28.255  14.881   2.258  0.00  0.00    -0.263 OA
HETATM   34  O   UNK N   1      28.765  15.464   4.338  0.00  0.00    -0.309 OA
HETATM   35  C   UNK N   1      30.462  16.810   7.446  0.00  0.00     0.015 C 
HETATM   36  O   UNK N   1      26.491  18.914   4.500  0.00  0.00    -0.297 OA
ENDROOT
BRANCH   1  37
HETATM   37  C   UNK N   1      31.048  15.938   4.718  0.00  0.00    -0.058 C 
HETATM   38  C   UNK N   1      32.174  15.425   5.229  0.00  0.00    -0.017 C 
HETATM   39  C   UNK N   1      31.081  16.840   3.520  0.00  0.00     0.046 C 
BRANCH  38  40
HETATM   40  C   UNK N   1      33.531  15.732   4.682  0.00  0.00     0.011 C 
HETATM   41  C   UNK N   1      34.335  16.551   5.689  0.00  0.00     0.011 C 
HETATM   42  C   UNK N   1      34.759  15.694   6.885  0.00  0.00     0.035 C 
HETATM   43  C   UNK N   1      35.626  14.523   6.420  0.00  0.00     0.147 C 
HETATM   44  C   UNK N   1      34.866  13.646   5.426  0.00  0.00     0.150 C 
HETATM   45  C   UNK N   1      34.294  14.467   4.255  0.00  0.00     0.043 C 
BRANCH  43  46
HETATM   46  O   UNK N   1      36.799  14.999   5.832  0.00  0.00    -0.393 OA
HETATM   47  H   UNK N   1      37.286  14.823   5.012  0.00  0.00     0.210 HD
ENDBRANCH  43  46
BRANCH  44  48
HETATM   48  O   UNK N   1      33.882  12.905   6.083  0.00  0.00    -0.388 OA
HETATM   49  C   UNK N   1      33.782  11.722   5.345  0.00  0.00     0.202 C 
ENDBRANCH  44  48
ENDBRANCH  38  40
ENDBRANCH   1  37
BRANCH   3  50
HETATM   50  O   UNK N   1      28.963  18.386   5.157  0.00  0.00    -0.395 OA
HETATM   51  H   UNK N   1      29.482  18.954   4.566  0.00  0.00     0.210 HD
ENDBRANCH   3  50
BRANCH   6  52
HETATM   52  C   UNK N   1      23.575  17.996   4.999  0.00  0.00     0.042 C 
BRANCH  52  53
HETATM   53  C   UNK N   1      22.557  17.201   5.754  0.00  0.00    -0.036 C 
HETATM   54  C   UNK N   1      21.459  17.806   6.202  0.00  0.00     0.007 C 
ENDBRANCH  52  53
ENDBRANCH   6  52
BRANCH  19  55
HETATM   55  O   UNK N   1      25.293  10.316   2.366  0.00  0.00    -0.359 OA
HETATM   56  H   UNK N   1      25.334  10.254   3.333  0.00  0.00     0.213 HD
ENDBRANCH  19  55
BRANCH  16  57
HETATM   57  O   UNK N   1      21.691  10.155   0.221  0.00  0.00    -0.388 OA
HETATM   58  C   UNK N   1      21.545   8.830   0.632  0.00  0.00     0.202 C 
ENDBRANCH  16  57
BRANCH  14  59
HETATM   59  O   UNK N   1      22.526  13.581   1.395  0.00  0.00    -0.388 OA
HETATM   60  C   UNK N   1      21.216  13.484   0.926  0.00  0.00     0.202 C 
ENDBRANCH  14  59
TORSDOF 10
ENDMDL
MODEL 9
REMARK VINA RESULT:      -7.1      3.141      5.888
REMARK  10 active torsions:
REMARK  status: ('A' for Active; 'I' for Inactive)
REMARK    1  A    between atoms: C_1  and  C_12 
REMARK    2  A    between atoms: C_3  and  C_2 
REMARK    3  A    between atoms: C_6  and  O_10 
REMARK    4  A    between atoms: C_7  and  O_9 
REMARK    5  A    between atoms: C_15  and  O_53 
REMARK    6  A    between atoms: C_18  and  C_55 
REMARK    7  A    between atoms: C_26  and  O_34 
REMARK    8  A    between atoms: C_28  and  O_33 
REMARK    9  A    between atoms: C_31  and  O_37 
REMARK   10  A    between atoms: C_55  and  C_56 
ROOT
HETATM    1  C   UNK N   1      35.640  13.941   5.202  0.00  0.00     0.166 C 
HETATM    2  C   UNK N   1      36.334  13.342   3.940  0.00  0.00     0.044 C 
HETATM    3  C   UNK N   1      35.787  12.029   3.388  0.00  0.00     0.131 C 
HETATM    4  C   UNK N   1      34.468  12.373   2.700  0.00  0.00     0.111 C 
HETATM    5  C   UNK N   1      33.403  11.331   2.634  0.00  0.00     0.137 C 
HETATM    6  C   UNK N   1      32.067  11.742   2.090  0.00  0.00     0.081 C 
HETATM    7  C   UNK N   1      31.066  11.811   3.201  0.00  0.00    -0.012 C 
HETATM    8  C   UNK N   1      30.385  12.934   3.475  0.00  0.00    -0.086 C 
HETATM    9  C   UNK N   1      29.493  12.931   4.672  0.00  0.00     0.043 C 
HETATM   10  C   UNK N   1      30.502  14.151   2.574  0.00  0.00     0.037 C 
HETATM   11  C   UNK N   1      30.187  15.494   3.231  0.00  0.00    -0.012 C 
HETATM   12  C   UNK N   1      31.321  16.453   2.917  0.00  0.00     0.010 C 
HETATM   13  C   UNK N   1      28.871  16.124   2.769  0.00  0.00     0.039 C 
HETATM   14  C   UNK N   1      27.594  15.587   3.437  0.00  0.00     0.152 C 
HETATM   15  C   UNK N   1      27.209  16.035   4.868  0.00  0.00     0.183 C 
HETATM   16  C   UNK N   1      26.067  17.036   5.098  0.00  0.00     0.153 C 
HETATM   17  C   UNK N   1      26.593  18.406   5.497  0.00  0.00     0.044 C 
HETATM   18  C   UNK N   1      27.636  18.270   6.603  0.00  0.00     0.055 C 
HETATM   19  C   UNK N   1      28.739  17.304   6.106  0.00  0.00     0.238 C 
HETATM   20  O   UNK N   1      28.198  16.005   5.877  0.00  0.00    -0.338 OA
HETATM   21  C   UNK N   1      29.908  17.148   7.049  0.00  0.00     0.278 C 
HETATM   22  C   UNK N   1      31.046  16.295   6.596  0.00  0.00     0.296 C 
HETATM   23  N   UNK N   1      32.332  16.484   7.002  0.00  0.00    -0.331 N 
HETATM   24  C   UNK N   1      32.627  17.578   7.918  0.00  0.00     0.127 C 
HETATM   25  C   UNK N   1      33.479  15.792   6.367  0.00  0.00     0.187 C 
HETATM   26  C   UNK N   1      34.737  16.067   7.174  0.00  0.00     0.035 C 
HETATM   27  C   UNK N   1      34.402  15.949   8.661  0.00  0.00     0.004 C 
HETATM   28  C   UNK N   1      33.472  17.085   9.085  0.00  0.00     0.020 C 
HETATM   29  O   UNK N   1      30.804  15.437   5.768  0.00  0.00    -0.264 OA
HETATM   30  O   UNK N   1      29.961  17.778   8.098  0.00  0.00    -0.281 OA
HETATM   31  C   UNK N   1      28.176  19.665   6.891  0.00  0.00     0.016 C 
HETATM   32  C   UNK N   1      33.362  14.296   6.041  0.00  0.00     0.282 C 
HETATM   33  O   UNK N   1      32.411  13.646   6.442  0.00  0.00    -0.263 OA
HETATM   34  O   UNK N   1      34.279  13.669   5.244  0.00  0.00    -0.309 OA
HETATM   35  C   UNK N   1      37.853  13.318   4.040  0.00  0.00     0.015 C 
HETATM   36  O   UNK N   1      33.575  10.210   3.091  0.00  0.00    -0.297 OA
ENDROOT
BRANCH   1  37
HETATM   37  C   UNK N   1      36.276  13.494   6.495  0.00  0.00    -0.058 C 
HETATM   38  C   UNK N   1      35.714  12.478   7.160  0.00  0.00    -0.017 C 
HETATM   39  C   UNK N   1      37.544  14.130   6.979  0.00  0.00     0.046 C 
BRANCH  38  40
HETATM   40  C   UNK N   1      36.273  11.928   8.433  0.00  0.00     0.011 C 
HETATM   41  C   UNK N   1      35.719  12.695   9.631  0.00  0.00     0.011 C 
HETATM   42  C   UNK N   1      34.244  12.361   9.866  0.00  0.00     0.035 C 
HETATM   43  C   UNK N   1      34.074  10.866  10.137  0.00  0.00     0.147 C 
HETATM   44  C   UNK N   1      34.587  10.039   8.960  0.00  0.00     0.150 C 
HETATM   45  C   UNK N   1      36.032  10.416   8.578  0.00  0.00     0.043 C 
BRANCH  43  46
HETATM   46  O   UNK N   1      34.756  10.509  11.301  0.00  0.00    -0.393 OA
HETATM   47  H   UNK N   1      35.472   9.893  11.526  0.00  0.00     0.210 HD
ENDBRANCH  43  46
BRANCH  44  48
HETATM   48  O   UNK N   1      33.712  10.137   7.876  0.00  0.00    -0.388 OA
HETATM   49  C   UNK N   1      34.068   9.073   7.041  0.00  0.00     0.202 C 
ENDBRANCH  44  48
ENDBRANCH  38  40
ENDBRANCH   1  37
BRANCH   3  50
HETATM   50  O   UNK N   1      35.652  11.086   4.410  0.00  0.00    -0.395 OA
HETATM   51  H   UNK N   1      35.690  10.560   5.224  0.00  0.00     0.210 HD
ENDBRANCH   3  50
BRANCH   6  52
HETATM   52  C   UNK N   1      31.596  10.990   0.838  0.00  0.00     0.042 C 
BRANCH  52  53
HETATM   53  C   UNK N   1      30.958  11.853  -0.203  0.00  0.00    -0.036 C 
HETATM   54  C   UNK N   1      29.629  11.893  -0.291  0.00  0.00     0.007 C 
ENDBRANCH  52  53
ENDBRANCH   6  52
BRANCH  19  55
HETATM   55  O   UNK N   1      29.277  17.830   4.924  0.00  0.00    -0.359 OA
HETATM   56  H   UNK N   1      29.683  18.456   4.304  0.00  0.00     0.213 HD
ENDBRANCH  19  55
BRANCH  16  57
HETATM   57  O   UNK N   1      25.252  17.139   3.967  0.00  0.00    -0.388 OA
HETATM   58  C   UNK N   1      25.289  18.489   3.616  0.00  0.00     0.202 C 
ENDBRANCH  16  57
BRANCH  14  59
HETATM   59  O   UNK N   1      27.432  14.215   3.255  0.00  0.00    -0.388 OA
HETATM   60  C   UNK N   1      26.482  14.104   2.241  0.00  0.00     0.202 C 
ENDBRANCH  14  59
TORSDOF 10
ENDMDL
