MODEL 1
REMARK VINA RESULT:      -6.8      0.000      0.000
REMARK  8 active torsions:
REMARK  status: ('A' for Active; 'I' for Inactive)
REMARK    1  A    between atoms: C_1  and  C_10 
REMARK    2  A    between atoms: C_4  and  O_14 
REMARK    3  A    between atoms: C_9  and  C_7 
REMARK    4  A    between atoms: O_12  and  C_7 
REMARK    5  A    between atoms: C_10  and  C_9 
REMARK    6  A    between atoms: C_9  and  N_11 
REMARK    7  A    between atoms: O_14  and  C_17 
REMARK    8  A    between atoms: C_21  and  O_15 
ROOT
HETATM    1  C   UNK N   1      22.466  18.549   3.745  0.00  0.00    -0.053 A 
HETATM    2  C   UNK N   1      22.590  17.168   3.821  0.00  0.00     0.028 A 
HETATM    3  C   UNK N   1      23.849  16.583   3.941  0.00  0.00     0.042 A 
HETATM    4  C   UNK N   1      25.019  17.371   3.998  0.00  0.00     0.109 A 
HETATM    5  C   UNK N   1      24.886  18.792   3.884  0.00  0.00     0.042 A 
HETATM    6  C   UNK N   1      23.607  19.348   3.767  0.00  0.00     0.028 A 
HETATM    7  I   UNK N   1      23.963  14.473   4.020  0.00  0.00    -0.042 I 
HETATM    8  I   UNK N   1      26.436  20.231   3.711  0.00  0.00    -0.042 I 
ENDROOT
BRANCH   4   9
HETATM    9  O   UNK N   1      26.193  16.686   4.117  0.00  0.00    -0.308 OA
BRANCH   9  10
HETATM   10  C   UNK N   1      27.320  16.884   4.850  0.00  0.00     0.078 A 
HETATM   11  C   UNK N   1      28.548  16.788   4.189  0.00  0.00     0.058 A 
HETATM   12  C   UNK N   1      29.752  16.935   4.882  0.00  0.00     0.043 A 
HETATM   13  I   UNK N   1      31.570  16.727   3.828  0.00  0.00    -0.042 I 
HETATM   14  C   UNK N   1      29.736  17.206   6.256  0.00  0.00     0.098 A 
HETATM   15  C   UNK N   1      28.511  17.301   6.930  0.00  0.00     0.043 A 
HETATM   16  C   UNK N   1      27.313  17.113   6.230  0.00  0.00     0.058 A 
HETATM   17  I   UNK N   1      28.438  17.744   8.993  0.00  0.00    -0.042 I 
BRANCH  14  18
HETATM   18  O   UNK N   1      30.891  17.370   6.925  0.00  0.00    -0.358 OA
HETATM   19  H   UNK N   1      31.281  16.656   7.390  0.00  0.00     0.217 HD
ENDBRANCH  14  18
ENDBRANCH   9  10
ENDBRANCH   4   9
BRANCH   1  20
HETATM   20  C   UNK N   1      21.116  19.173   3.632  0.00  0.00     0.074 C 
BRANCH  20  21
HETATM   21  C   UNK N   1      20.547  18.956   2.237  0.00  0.00     0.177 C 
BRANCH  21  22
HETATM   22  C   UNK N   1      20.807  20.156   1.376  0.00  0.00     0.163 C 
HETATM   23  O   UNK N   1      21.165  21.203   1.892  0.00  0.00    -0.648 OA
BRANCH  22  24
HETATM   24  O   UNK N   1      20.672  20.086   0.037  0.00  0.00    -0.775 OA
HETATM   25  H   UNK N   1      20.687  20.863  -0.486  0.00  0.00     0.167 HD
ENDBRANCH  22  24
ENDBRANCH  21  22
BRANCH  21  26
HETATM   26  N   UNK N   1      19.124  18.670   2.330  0.00  0.00    -0.417 N 
HETATM   27  H   UNK N   1      18.477  18.758   1.545  0.00  0.00     0.150 HD
HETATM   28  H   UNK N   1      18.752  18.366   3.229  0.00  0.00     0.150 HD
ENDBRANCH  21  26
ENDBRANCH  20  21
ENDBRANCH   1  20
TORSDOF 8
ENDMDL
MODEL 2
REMARK VINA RESULT:      -6.7      5.898      9.416
REMARK  8 active torsions:
REMARK  status: ('A' for Active; 'I' for Inactive)
REMARK    1  A    between atoms: C_1  and  C_10 
REMARK    2  A    between atoms: C_4  and  O_14 
REMARK    3  A    between atoms: C_9  and  C_7 
REMARK    4  A    between atoms: O_12  and  C_7 
REMARK    5  A    between atoms: C_10  and  C_9 
REMARK    6  A    between atoms: C_9  and  N_11 
REMARK    7  A    between atoms: O_14  and  C_17 
REMARK    8  A    between atoms: C_21  and  O_15 
ROOT
HETATM    1  C   UNK N   1      22.797  12.917   8.825  0.00  0.00    -0.053 A 
HETATM    2  C   UNK N   1      23.713  12.967   7.783  0.00  0.00     0.028 A 
HETATM    3  C   UNK N   1      23.656  13.999   6.849  0.00  0.00     0.042 A 
HETATM    4  C   UNK N   1      22.681  15.016   6.942  0.00  0.00     0.109 A 
HETATM    5  C   UNK N   1      21.718  14.939   7.999  0.00  0.00     0.042 A 
HETATM    6  C   UNK N   1      21.805  13.891   8.922  0.00  0.00     0.028 A 
HETATM    7  I   UNK N   1      25.064  13.994   5.271  0.00  0.00    -0.042 I 
HETATM    8  I   UNK N   1      20.010  16.163   8.290  0.00  0.00    -0.042 I 
ENDROOT
BRANCH   4   9
HETATM    9  O   UNK N   1      22.725  15.973   5.971  0.00  0.00    -0.308 OA
BRANCH   9  10
HETATM   10  C   UNK N   1      21.954  16.235   4.882  0.00  0.00     0.078 A 
HETATM   11  C   UNK N   1      21.766  17.575   4.528  0.00  0.00     0.058 A 
HETATM   12  C   UNK N   1      20.952  17.926   3.448  0.00  0.00     0.043 A 
HETATM   13  I   UNK N   1      20.674  19.971   3.002  0.00  0.00    -0.042 I 
HETATM   14  C   UNK N   1      20.330  16.926   2.690  0.00  0.00     0.098 A 
HETATM   15  C   UNK N   1      20.509  15.580   3.038  0.00  0.00     0.043 A 
HETATM   16  C   UNK N   1      21.296  15.244   4.146  0.00  0.00     0.058 A 
HETATM   17  I   UNK N   1      19.621  14.038   1.901  0.00  0.00    -0.042 I 
BRANCH  14  18
HETATM   18  O   UNK N   1      19.563  17.257   1.636  0.00  0.00    -0.358 OA
HETATM   19  H   UNK N   1      18.631  17.172   1.677  0.00  0.00     0.217 HD
ENDBRANCH  14  18
ENDBRANCH   9  10
ENDBRANCH   4   9
BRANCH   1  20
HETATM   20  C   UNK N   1      22.870  11.819   9.833  0.00  0.00     0.074 C 
BRANCH  20  21
HETATM   21  C   UNK N   1      22.560  12.355  11.223  0.00  0.00     0.177 C 
BRANCH  21  22
HETATM   22  C   UNK N   1      23.754  12.202  12.117  0.00  0.00     0.163 C 
HETATM   23  O   UNK N   1      23.593  12.003  13.311  0.00  0.00    -0.648 OA
BRANCH  22  24
HETATM   24  O   UNK N   1      25.003  12.262  11.615  0.00  0.00    -0.775 OA
HETATM   25  H   UNK N   1      25.426  13.087  11.481  0.00  0.00     0.167 HD
ENDBRANCH  22  24
ENDBRANCH  21  22
BRANCH  21  26
HETATM   26  N   UNK N   1      21.401  11.662  11.765  0.00  0.00    -0.417 N 
HETATM   27  H   UNK N   1      20.795  11.056  11.211  0.00  0.00     0.150 HD
HETATM   28  H   UNK N   1      21.182  11.790  12.753  0.00  0.00     0.150 HD
ENDBRANCH  21  26
ENDBRANCH  20  21
ENDBRANCH   1  20
TORSDOF 8
ENDMDL
MODEL 3
REMARK VINA RESULT:      -6.6      0.286      2.139
REMARK  8 active torsions:
REMARK  status: ('A' for Active; 'I' for Inactive)
REMARK    1  A    between atoms: C_1  and  C_10 
REMARK    2  A    between atoms: C_4  and  O_14 
REMARK    3  A    between atoms: C_9  and  C_7 
REMARK    4  A    between atoms: O_12  and  C_7 
REMARK    5  A    between atoms: C_10  and  C_9 
REMARK    6  A    between atoms: C_9  and  N_11 
REMARK    7  A    between atoms: O_14  and  C_17 
REMARK    8  A    between atoms: C_21  and  O_15 
ROOT
HETATM    1  C   UNK N   1      22.607  18.642   3.772  0.00  0.00    -0.053 A 
HETATM    2  C   UNK N   1      22.686  17.256   3.807  0.00  0.00     0.028 A 
HETATM    3  C   UNK N   1      23.926  16.627   3.897  0.00  0.00     0.042 A 
HETATM    4  C   UNK N   1      25.122  17.374   3.964  0.00  0.00     0.109 A 
HETATM    5  C   UNK N   1      25.036  18.801   3.891  0.00  0.00     0.042 A 
HETATM    6  C   UNK N   1      23.775  19.402   3.804  0.00  0.00     0.028 A 
HETATM    7  I   UNK N   1      23.972  14.512   3.915  0.00  0.00    -0.042 I 
HETATM    8  I   UNK N   1      26.631  20.192   3.742  0.00  0.00    -0.042 I 
ENDROOT
BRANCH   4   9
HETATM    9  O   UNK N   1      26.274  16.648   4.050  0.00  0.00    -0.308 OA
BRANCH   9  10
HETATM   10  C   UNK N   1      27.438  16.820   4.730  0.00  0.00     0.078 A 
HETATM   11  C   UNK N   1      27.355  17.065   6.105  0.00  0.00     0.058 A 
HETATM   12  C   UNK N   1      28.504  17.296   6.865  0.00  0.00     0.043 A 
HETATM   13  I   UNK N   1      28.299  17.710   8.926  0.00  0.00    -0.042 I 
HETATM   14  C   UNK N   1      29.763  17.260   6.253  0.00  0.00     0.098 A 
HETATM   15  C   UNK N   1      29.858  17.019   4.876  0.00  0.00     0.043 A 
HETATM   16  C   UNK N   1      28.697  16.827   4.119  0.00  0.00     0.058 A 
HETATM   17  I   UNK N   1      31.737  16.918   3.919  0.00  0.00    -0.042 I 
BRANCH  14  18
HETATM   18  O   UNK N   1      30.875  17.460   6.984  0.00  0.00    -0.358 OA
HETATM   19  H   UNK N   1      31.560  18.017   6.670  0.00  0.00     0.217 HD
ENDBRANCH  14  18
ENDBRANCH   9  10
ENDBRANCH   4   9
BRANCH   1  20
HETATM   20  C   UNK N   1      21.278  19.313   3.691  0.00  0.00     0.074 C 
BRANCH  20  21
HETATM   21  C   UNK N   1      20.750  19.274   2.263  0.00  0.00     0.177 C 
BRANCH  21  22
HETATM   22  C   UNK N   1      21.079  20.552   1.552  0.00  0.00     0.163 C 
HETATM   23  O   UNK N   1      21.166  20.561   0.335  0.00  0.00    -0.648 OA
BRANCH  22  24
HETATM   24  O   UNK N   1      21.257  21.697   2.240  0.00  0.00    -0.775 OA
HETATM   25  H   UNK N   1      21.217  21.704   3.176  0.00  0.00     0.167 HD
ENDBRANCH  22  24
ENDBRANCH  21  22
BRANCH  21  26
HETATM   26  N   UNK N   1      19.317  19.031   2.281  0.00  0.00    -0.417 N 
HETATM   27  H   UNK N   1      18.888  18.205   2.700  0.00  0.00     0.150 HD
HETATM   28  H   UNK N   1      18.706  19.724   1.849  0.00  0.00     0.150 HD
ENDBRANCH  21  26
ENDBRANCH  20  21
ENDBRANCH   1  20
TORSDOF 8
ENDMDL
MODEL 4
REMARK VINA RESULT:      -6.6      5.640      9.203
REMARK  8 active torsions:
REMARK  status: ('A' for Active; 'I' for Inactive)
REMARK    1  A    between atoms: C_1  and  C_10 
REMARK    2  A    between atoms: C_4  and  O_14 
REMARK    3  A    between atoms: C_9  and  C_7 
REMARK    4  A    between atoms: O_12  and  C_7 
REMARK    5  A    between atoms: C_10  and  C_9 
REMARK    6  A    between atoms: C_9  and  N_11 
REMARK    7  A    between atoms: O_14  and  C_17 
REMARK    8  A    between atoms: C_21  and  O_15 
ROOT
HETATM    1  C   UNK N   1      21.933  13.496   8.718  0.00  0.00    -0.053 A 
HETATM    2  C   UNK N   1      20.886  14.382   8.939  0.00  0.00     0.028 A 
HETATM    3  C   UNK N   1      20.759  15.526   8.154  0.00  0.00     0.042 A 
HETATM    4  C   UNK N   1      21.675  15.808   7.118  0.00  0.00     0.109 A 
HETATM    5  C   UNK N   1      22.772  14.909   6.918  0.00  0.00     0.042 A 
HETATM    6  C   UNK N   1      22.869  13.768   7.722  0.00  0.00     0.028 A 
HETATM    7  I   UNK N   1      19.158  16.844   8.569  0.00  0.00    -0.042 I 
HETATM    8  I   UNK N   1      24.427  15.151   5.614  0.00  0.00    -0.042 I 
ENDROOT
BRANCH   4   9
HETATM    9  O   UNK N   1      21.447  16.957   6.418  0.00  0.00    -0.308 OA
BRANCH   9  10
HETATM   10  C   UNK N   1      21.118  17.212   5.124  0.00  0.00     0.078 A 
HETATM   11  C   UNK N   1      20.703  16.134   4.336  0.00  0.00     0.058 A 
HETATM   12  C   UNK N   1      20.391  16.309   2.986  0.00  0.00     0.043 A 
HETATM   13  I   UNK N   1      19.820  14.626   1.843  0.00  0.00    -0.042 I 
HETATM   14  C   UNK N   1      20.469  17.584   2.411  0.00  0.00     0.098 A 
HETATM   15  C   UNK N   1      20.887  18.671   3.191  0.00  0.00     0.043 A 
HETATM   16  C   UNK N   1      21.235  18.475   4.533  0.00  0.00     0.058 A 
HETATM   17  I   UNK N   1      20.984  20.616   2.377  0.00  0.00    -0.042 I 
BRANCH  14  18
HETATM   18  O   UNK N   1      20.148  17.762   1.117  0.00  0.00    -0.358 OA
HETATM   19  H   UNK N   1      19.837  17.046   0.598  0.00  0.00     0.217 HD
ENDBRANCH  14  18
ENDBRANCH   9  10
ENDBRANCH   4   9
BRANCH   1  20
HETATM   20  C   UNK N   1      22.059  12.265   9.549  0.00  0.00     0.074 C 
BRANCH  20  21
HETATM   21  C   UNK N   1      22.737  12.585  10.873  0.00  0.00     0.177 C 
BRANCH  21  22
HETATM   22  C   UNK N   1      24.193  12.234  10.810  0.00  0.00     0.163 C 
HETATM   23  O   UNK N   1      24.669  11.817   9.766  0.00  0.00    -0.648 OA
BRANCH  22  24
HETATM   24  O   UNK N   1      24.988  12.393  11.886  0.00  0.00    -0.775 OA
HETATM   25  H   UNK N   1      25.744  11.853  12.007  0.00  0.00     0.167 HD
ENDBRANCH  22  24
ENDBRANCH  21  22
BRANCH  21  26
HETATM   26  N   UNK N   1      22.067  11.873  11.949  0.00  0.00    -0.417 N 
HETATM   27  H   UNK N   1      22.039  12.205  12.914  0.00  0.00     0.150 HD
HETATM   28  H   UNK N   1      21.601  10.994  11.728  0.00  0.00     0.150 HD
ENDBRANCH  21  26
ENDBRANCH  20  21
ENDBRANCH   1  20
TORSDOF 8
ENDMDL
MODEL 5
REMARK VINA RESULT:      -6.5      5.198     10.491
REMARK  8 active torsions:
REMARK  status: ('A' for Active; 'I' for Inactive)
REMARK    1  A    between atoms: C_1  and  C_10 
REMARK    2  A    between atoms: C_4  and  O_14 
REMARK    3  A    between atoms: C_9  and  C_7 
REMARK    4  A    between atoms: O_12  and  C_7 
REMARK    5  A    between atoms: C_10  and  C_9 
REMARK    6  A    between atoms: C_9  and  N_11 
REMARK    7  A    between atoms: O_14  and  C_17 
REMARK    8  A    between atoms: C_21  and  O_15 
ROOT
HETATM    1  C   UNK N   1      33.001  15.841   8.245  0.00  0.00    -0.053 A 
HETATM    2  C   UNK N   1      31.894  16.297   8.950  0.00  0.00     0.028 A 
HETATM    3  C   UNK N   1      30.879  16.986   8.289  0.00  0.00     0.042 A 
HETATM    4  C   UNK N   1      30.943  17.229   6.900  0.00  0.00     0.109 A 
HETATM    5  C   UNK N   1      32.104  16.787   6.187  0.00  0.00     0.042 A 
HETATM    6  C   UNK N   1      33.104  16.096   6.879  0.00  0.00     0.028 A 
HETATM    7  I   UNK N   1      29.238  17.677   9.431  0.00  0.00    -0.042 I 
HETATM    8  I   UNK N   1      32.612  17.181   4.165  0.00  0.00    -0.042 I 
ENDROOT
BRANCH   4   9
HETATM    9  O   UNK N   1      29.890  17.913   6.366  0.00  0.00    -0.308 OA
BRANCH   9  10
HETATM   10  C   UNK N   1      28.923  17.586   5.469  0.00  0.00     0.078 A 
HETATM   11  C   UNK N   1      28.071  18.607   5.035  0.00  0.00     0.058 A 
HETATM   12  C   UNK N   1      27.024  18.342   4.148  0.00  0.00     0.043 A 
HETATM   13  I   UNK N   1      25.746  19.922   3.574  0.00  0.00    -0.042 I 
HETATM   14  C   UNK N   1      26.834  17.042   3.664  0.00  0.00     0.098 A 
HETATM   15  C   UNK N   1      27.679  16.010   4.095  0.00  0.00     0.043 A 
HETATM   16  C   UNK N   1      28.699  16.282   5.014  0.00  0.00     0.058 A 
HETATM   17  I   UNK N   1      27.452  14.043   3.363  0.00  0.00    -0.042 I 
BRANCH  14  18
HETATM   18  O   UNK N   1      25.841  16.784   2.793  0.00  0.00    -0.358 OA
HETATM   19  H   UNK N   1      25.937  16.991   1.884  0.00  0.00     0.217 HD
ENDBRANCH  14  18
ENDBRANCH   9  10
ENDBRANCH   4   9
BRANCH   1  20
HETATM   20  C   UNK N   1      34.079  15.091   8.951  0.00  0.00     0.074 C 
BRANCH  20  21
HETATM   21  C   UNK N   1      34.275  15.641  10.357  0.00  0.00     0.177 C 
BRANCH  21  22
HETATM   22  C   UNK N   1      35.481  16.530  10.404  0.00  0.00     0.163 C 
HETATM   23  O   UNK N   1      35.391  17.690  10.036  0.00  0.00    -0.648 OA
BRANCH  22  24
HETATM   24  O   UNK N   1      36.660  16.068  10.868  0.00  0.00    -0.775 OA
HETATM   25  H   UNK N   1      37.469  16.394  10.526  0.00  0.00     0.167 HD
ENDBRANCH  22  24
ENDBRANCH  21  22
BRANCH  21  26
HETATM   26  N   UNK N   1      34.392  14.539  11.299  0.00  0.00    -0.417 N 
HETATM   27  H   UNK N   1      34.092  13.585  11.094  0.00  0.00     0.150 HD
HETATM   28  H   UNK N   1      34.796  14.730  12.216  0.00  0.00     0.150 HD
ENDBRANCH  21  26
ENDBRANCH  20  21
ENDBRANCH   1  20
TORSDOF 8
ENDMDL
MODEL 6
REMARK VINA RESULT:      -6.4      4.900      9.476
REMARK  8 active torsions:
REMARK  status: ('A' for Active; 'I' for Inactive)
REMARK    1  A    between atoms: C_1  and  C_10 
REMARK    2  A    between atoms: C_4  and  O_14 
REMARK    3  A    between atoms: C_9  and  C_7 
REMARK    4  A    between atoms: O_12  and  C_7 
REMARK    5  A    between atoms: C_10  and  C_9 
REMARK    6  A    between atoms: C_9  and  N_11 
REMARK    7  A    between atoms: O_14  and  C_17 
REMARK    8  A    between atoms: C_21  and  O_15 
ROOT
HETATM    1  C   UNK N   1      31.923  16.398   7.410  0.00  0.00    -0.053 A 
HETATM    2  C   UNK N   1      31.734  15.944   6.111  0.00  0.00     0.028 A 
HETATM    3  C   UNK N   1      30.549  16.227   5.436  0.00  0.00     0.042 A 
HETATM    4  C   UNK N   1      29.523  16.982   6.044  0.00  0.00     0.109 A 
HETATM    5  C   UNK N   1      29.710  17.416   7.396  0.00  0.00     0.042 A 
HETATM    6  C   UNK N   1      30.913  17.118   8.044  0.00  0.00     0.028 A 
HETATM    7  I   UNK N   1      30.319  15.478   3.471  0.00  0.00    -0.042 I 
HETATM    8  I   UNK N   1      28.296  18.365   8.662  0.00  0.00    -0.042 I 
ENDROOT
BRANCH   4   9
HETATM    9  O   UNK N   1      28.410  17.195   5.284  0.00  0.00    -0.308 OA
BRANCH   9  10
HETATM   10  C   UNK N   1      27.096  16.882   5.444  0.00  0.00     0.078 A 
HETATM   11  C   UNK N   1      26.789  15.729   6.173  0.00  0.00     0.058 A 
HETATM   12  C   UNK N   1      25.465  15.317   6.343  0.00  0.00     0.043 A 
HETATM   13  I   UNK N   1      25.078  13.538   7.414  0.00  0.00    -0.042 I 
HETATM   14  C   UNK N   1      24.423  16.077   5.798  0.00  0.00     0.098 A 
HETATM   15  C   UNK N   1      24.719  17.232   5.062  0.00  0.00     0.043 A 
HETATM   16  C   UNK N   1      26.052  17.612   4.866  0.00  0.00     0.058 A 
HETATM   17  I   UNK N   1      23.180  18.429   4.253  0.00  0.00    -0.042 I 
BRANCH  14  18
HETATM   18  O   UNK N   1      23.145  15.697   5.977  0.00  0.00    -0.358 OA
HETATM   19  H   UNK N   1      22.623  16.079   6.655  0.00  0.00     0.217 HD
ENDBRANCH  14  18
ENDBRANCH   9  10
ENDBRANCH   4   9
BRANCH   1  20
HETATM   20  C   UNK N   1      33.199  16.107   8.125  0.00  0.00     0.074 C 
BRANCH  20  21
HETATM   21  C   UNK N   1      33.673  17.337   8.886  0.00  0.00     0.177 C 
BRANCH  21  22
HETATM   22  C   UNK N   1      34.555  18.179   8.015  0.00  0.00     0.163 C 
HETATM   23  O   UNK N   1      34.608  17.959   6.816  0.00  0.00    -0.648 OA
BRANCH  22  24
HETATM   24  O   UNK N   1      35.276  19.191   8.538  0.00  0.00    -0.775 OA
HETATM   25  H   UNK N   1      35.545  19.912   8.005  0.00  0.00     0.167 HD
ENDBRANCH  22  24
ENDBRANCH  21  22
BRANCH  21  26
HETATM   26  N   UNK N   1      34.363  16.925  10.098  0.00  0.00    -0.417 N 
HETATM   27  H   UNK N   1      34.352  15.969  10.457  0.00  0.00     0.150 HD
HETATM   28  H   UNK N   1      34.885  17.629  10.618  0.00  0.00     0.150 HD
ENDBRANCH  21  26
ENDBRANCH  20  21
ENDBRANCH   1  20
TORSDOF 8
ENDMDL
MODEL 7
REMARK VINA RESULT:      -6.3      4.357      9.621
REMARK  8 active torsions:
REMARK  status: ('A' for Active; 'I' for Inactive)
REMARK    1  A    between atoms: C_1  and  C_10 
REMARK    2  A    between atoms: C_4  and  O_14 
REMARK    3  A    between atoms: C_9  and  C_7 
REMARK    4  A    between atoms: O_12  and  C_7 
REMARK    5  A    between atoms: C_10  and  C_9 
REMARK    6  A    between atoms: C_9  and  N_11 
REMARK    7  A    between atoms: O_14  and  C_17 
REMARK    8  A    between atoms: C_21  and  O_15 
ROOT
HETATM    1  C   UNK N   1      31.972  17.197   6.591  0.00  0.00    -0.053 A 
HETATM    2  C   UNK N   1      31.091  17.517   7.616  0.00  0.00     0.028 A 
HETATM    3  C   UNK N   1      29.750  17.151   7.527  0.00  0.00     0.042 A 
HETATM    4  C   UNK N   1      29.257  16.444   6.409  0.00  0.00     0.109 A 
HETATM    5  C   UNK N   1      30.162  16.148   5.340  0.00  0.00     0.042 A 
HETATM    6  C   UNK N   1      31.504  16.527   5.461  0.00  0.00     0.028 A 
HETATM    7  I   UNK N   1      28.461  17.700   9.112  0.00  0.00    -0.042 I 
HETATM    8  I   UNK N   1      29.704  15.308   3.446  0.00  0.00    -0.042 I 
ENDROOT
BRANCH   4   9
HETATM    9  O   UNK N   1      27.927  16.142   6.435  0.00  0.00    -0.308 OA
BRANCH   9  10
HETATM   10  C   UNK N   1      26.835  16.678   5.830  0.00  0.00     0.078 A 
HETATM   11  C   UNK N   1      25.631  15.971   5.919  0.00  0.00     0.058 A 
HETATM   12  C   UNK N   1      24.475  16.435   5.286  0.00  0.00     0.043 A 
HETATM   13  I   UNK N   1      22.706  15.289   5.423  0.00  0.00    -0.042 I 
HETATM   14  C   UNK N   1      24.508  17.637   4.569  0.00  0.00     0.098 A 
HETATM   15  C   UNK N   1      25.709  18.352   4.469  0.00  0.00     0.043 A 
HETATM   16  C   UNK N   1      26.870  17.856   5.075  0.00  0.00     0.058 A 
HETATM   17  I   UNK N   1      25.797  20.187   3.429  0.00  0.00    -0.042 I 
BRANCH  14  18
HETATM   18  O   UNK N   1      23.393  18.100   3.976  0.00  0.00    -0.358 OA
HETATM   19  H   UNK N   1      22.678  18.424   4.487  0.00  0.00     0.217 HD
ENDBRANCH  14  18
ENDBRANCH   9  10
ENDBRANCH   4   9
BRANCH   1  20
HETATM   20  C   UNK N   1      33.410  17.576   6.694  0.00  0.00     0.074 C 
BRANCH  20  21
HETATM   21  C   UNK N   1      34.058  16.878   7.882  0.00  0.00     0.177 C 
BRANCH  21  22
HETATM   22  C   UNK N   1      34.798  17.870   8.728  0.00  0.00     0.163 C 
HETATM   23  O   UNK N   1      35.251  17.524   9.808  0.00  0.00    -0.648 OA
BRANCH  22  24
HETATM   24  O   UNK N   1      34.988  19.134   8.301  0.00  0.00    -0.775 OA
HETATM   25  H   UNK N   1      35.106  19.833   8.913  0.00  0.00     0.167 HD
ENDBRANCH  22  24
ENDBRANCH  21  22
BRANCH  21  26
HETATM   26  N   UNK N   1      34.941  15.825   7.406  0.00  0.00    -0.417 N 
HETATM   27  H   UNK N   1      35.758  15.496   7.923  0.00  0.00     0.150 HD
HETATM   28  H   UNK N   1      34.734  15.392   6.507  0.00  0.00     0.150 HD
ENDBRANCH  21  26
ENDBRANCH  20  21
ENDBRANCH   1  20
TORSDOF 8
ENDMDL
MODEL 8
REMARK VINA RESULT:      -6.3      5.212     10.421
REMARK  8 active torsions:
REMARK  status: ('A' for Active; 'I' for Inactive)
REMARK    1  A    between atoms: C_1  and  C_10 
REMARK    2  A    between atoms: C_4  and  O_14 
REMARK    3  A    between atoms: C_9  and  C_7 
REMARK    4  A    between atoms: O_12  and  C_7 
REMARK    5  A    between atoms: C_10  and  C_9 
REMARK    6  A    between atoms: C_9  and  N_11 
REMARK    7  A    between atoms: O_14  and  C_17 
REMARK    8  A    between atoms: C_21  and  O_15 
ROOT
HETATM    1  C   UNK N   1      32.988  15.822   8.227  0.00  0.00    -0.053 A 
HETATM    2  C   UNK N   1      31.906  16.307   8.949  0.00  0.00     0.028 A 
HETATM    3  C   UNK N   1      30.892  17.011   8.303  0.00  0.00     0.042 A 
HETATM    4  C   UNK N   1      30.932  17.239   6.910  0.00  0.00     0.109 A 
HETATM    5  C   UNK N   1      32.068  16.766   6.178  0.00  0.00     0.042 A 
HETATM    6  C   UNK N   1      33.068  16.061   6.856  0.00  0.00     0.028 A 
HETATM    7  I   UNK N   1      29.290  17.746   9.472  0.00  0.00    -0.042 I 
HETATM    8  I   UNK N   1      32.542  17.129   4.142  0.00  0.00    -0.042 I 
ENDROOT
BRANCH   4   9
HETATM    9  O   UNK N   1      29.883  17.939   6.391  0.00  0.00    -0.308 OA
BRANCH   9  10
HETATM   10  C   UNK N   1      28.838  17.599   5.591  0.00  0.00     0.078 A 
HETATM   11  C   UNK N   1      28.697  16.251   5.246  0.00  0.00     0.058 A 
HETATM   12  C   UNK N   1      27.675  15.830   4.393  0.00  0.00     0.043 A 
HETATM   13  I   UNK N   1      27.553  13.786   3.875  0.00  0.00    -0.042 I 
HETATM   14  C   UNK N   1      26.759  16.762   3.889  0.00  0.00     0.098 A 
HETATM   15  C   UNK N   1      26.892  18.116   4.225  0.00  0.00     0.043 A 
HETATM   16  C   UNK N   1      27.944  18.531   5.050  0.00  0.00     0.058 A 
HETATM   17  I   UNK N   1      25.513  19.551   3.519  0.00  0.00    -0.042 I 
BRANCH  14  18
HETATM   18  O   UNK N   1      25.759  16.360   3.084  0.00  0.00    -0.358 OA
HETATM   19  H   UNK N   1      25.842  15.580   2.571  0.00  0.00     0.217 HD
ENDBRANCH  14  18
ENDBRANCH   9  10
ENDBRANCH   4   9
BRANCH   1  20
HETATM   20  C   UNK N   1      34.065  15.056   8.918  0.00  0.00     0.074 C 
BRANCH  20  21
HETATM   21  C   UNK N   1      34.266  15.581  10.332  0.00  0.00     0.177 C 
BRANCH  21  22
HETATM   22  C   UNK N   1      35.463  16.483  10.387  0.00  0.00     0.163 C 
HETATM   23  O   UNK N   1      35.357  17.650  10.046  0.00  0.00    -0.648 OA
BRANCH  22  24
HETATM   24  O   UNK N   1      36.650  16.025  10.830  0.00  0.00    -0.775 OA
HETATM   25  H   UNK N   1      37.070  15.299  10.411  0.00  0.00     0.167 HD
ENDBRANCH  22  24
ENDBRANCH  21  22
BRANCH  21  26
HETATM   26  N   UNK N   1      34.402  14.464  11.252  0.00  0.00    -0.417 N 
HETATM   27  H   UNK N   1      34.473  13.491  10.953  0.00  0.00     0.150 HD
HETATM   28  H   UNK N   1      34.427  14.663  12.252  0.00  0.00     0.150 HD
ENDBRANCH  21  26
ENDBRANCH  20  21
ENDBRANCH   1  20
TORSDOF 8
ENDMDL
MODEL 9
REMARK VINA RESULT:      -6.3      6.504      9.854
REMARK  8 active torsions:
REMARK  status: ('A' for Active; 'I' for Inactive)
REMARK    1  A    between atoms: C_1  and  C_10 
REMARK    2  A    between atoms: C_4  and  O_14 
REMARK    3  A    between atoms: C_9  and  C_7 
REMARK    4  A    between atoms: O_12  and  C_7 
REMARK    5  A    between atoms: C_10  and  C_9 
REMARK    6  A    between atoms: C_9  and  N_11 
REMARK    7  A    between atoms: O_14  and  C_17 
REMARK    8  A    between atoms: C_21  and  O_15 
ROOT
HETATM    1  C   UNK N   1      22.236  12.600   8.780  0.00  0.00    -0.053 A 
HETATM    2  C   UNK N   1      21.838  11.820   7.703  0.00  0.00     0.028 A 
HETATM    3  C   UNK N   1      20.979  12.343   6.738  0.00  0.00     0.042 A 
HETATM    4  C   UNK N   1      20.503  13.669   6.824  0.00  0.00     0.109 A 
HETATM    5  C   UNK N   1      20.888  14.456   7.957  0.00  0.00     0.042 A 
HETATM    6  C   UNK N   1      21.754  13.902   8.906  0.00  0.00     0.028 A 
HETATM    7  I   UNK N   1      20.392  11.087   5.141  0.00  0.00    -0.042 I 
HETATM    8  I   UNK N   1      20.183  16.382   8.500  0.00  0.00    -0.042 I 
ENDROOT
BRANCH   4   9
HETATM    9  O   UNK N   1      19.669  14.069   5.822  0.00  0.00    -0.308 OA
BRANCH   9  10
HETATM   10  C   UNK N   1      19.843  14.831   4.710  0.00  0.00     0.078 A 
HETATM   11  C   UNK N   1      19.423  14.299   3.487  0.00  0.00     0.058 A 
HETATM   12  C   UNK N   1      19.608  15.003   2.295  0.00  0.00     0.043 A 
HETATM   13  I   UNK N   1      18.995  14.116   0.479  0.00  0.00    -0.042 I 
HETATM   14  C   UNK N   1      20.201  16.272   2.319  0.00  0.00     0.098 A 
HETATM   15  C   UNK N   1      20.629  16.814   3.539  0.00  0.00     0.043 A 
HETATM   16  C   UNK N   1      20.473  16.081   4.721  0.00  0.00     0.058 A 
HETATM   17  I   UNK N   1      21.493  18.738   3.629  0.00  0.00    -0.042 I 
BRANCH  14  18
HETATM   18  O   UNK N   1      20.362  16.965   1.177  0.00  0.00    -0.358 OA
HETATM   19  H   UNK N   1      20.997  17.651   1.119  0.00  0.00     0.217 HD
ENDBRANCH  14  18
ENDBRANCH   9  10
ENDBRANCH   4   9
BRANCH   1  20
HETATM   20  C   UNK N   1      23.167  12.043   9.803  0.00  0.00     0.074 C 
BRANCH  20  21
HETATM   21  C   UNK N   1      22.708  12.428  11.203  0.00  0.00     0.177 C 
BRANCH  21  22
HETATM   22  C   UNK N   1      23.820  12.227  12.188  0.00  0.00     0.163 C 
HETATM   23  O   UNK N   1      23.557  11.974  13.353  0.00  0.00    -0.648 OA
BRANCH  22  24
HETATM   24  O   UNK N   1      25.108  12.302  11.798  0.00  0.00    -0.775 OA
HETATM   25  H   UNK N   1      25.328  12.473  10.904  0.00  0.00     0.167 HD
ENDBRANCH  22  24
ENDBRANCH  21  22
BRANCH  21  26
HETATM   26  N   UNK N   1      21.535  11.648  11.563  0.00  0.00    -0.417 N 
HETATM   27  H   UNK N   1      20.636  11.727  11.087  0.00  0.00     0.150 HD
HETATM   28  H   UNK N   1      21.615  10.986  12.334  0.00  0.00     0.150 HD
ENDBRANCH  21  26
ENDBRANCH  20  21
ENDBRANCH   1  20
TORSDOF 8
ENDMDL
