MODEL 1
REMARK VINA RESULT:      -6.1      0.000      0.000
REMARK  8 active torsions:
REMARK  status: ('A' for Active; 'I' for Inactive)
REMARK    1  A    between atoms: C_10  and  C_8 
REMARK    2  A    between atoms: N_14  and  C_8 
REMARK    3  A    between atoms: C_10  and  C_9 
REMARK    4  A    between atoms: O_22  and  C_9 
REMARK    5  A    between atoms: C_10  and  O_20 
REMARK    6  A    between atoms: N_19  and  C_11 
REMARK    7  A    between atoms: O_22  and  C_12 
REMARK    8  A    between atoms: N_14  and  C_13 
ROOT
HETATM    1  C   UNK N   1      36.851  13.185  12.464  0.00  0.00     0.163 A 
HETATM    2  C   UNK N   1      36.699  14.370  11.636  0.00  0.00     0.195 A 
HETATM    3  N   UNK N   1      37.786  12.294  12.016  0.00  0.00    -0.295 N 
ATOM      4  HN  UNK N   1      38.068  11.403  12.423  1.00  0.00     0.177 HD
HETATM    5  N   UNK N   1      37.502  14.419  10.533  0.00  0.00    -0.290 N 
ATOM      6  HN  UNK N   1      37.565  15.143   9.817  1.00  0.00     0.178 HD
HETATM    7  S   UNK N   1      38.337  13.021  10.659  0.00  0.00     0.070 SA
ENDROOT
BRANCH   2   8
HETATM    8  O   UNK N   1      35.820  15.349  11.939  0.00  0.00    -0.330 OA
BRANCH   8   9
HETATM    9  C   UNK N   1      35.143  16.108  11.013  0.00  0.00     0.210 C 
BRANCH   9  10
HETATM   10  C   UNK N   1      34.106  15.254  10.273  0.00  0.00     0.159 C 
BRANCH  10  11
HETATM   11  C   UNK N   1      33.560  15.996   9.062  0.00  0.00     0.148 C 
BRANCH  11  12
HETATM   12  N   UNK N   1      32.109  16.179   9.112  0.00  0.00    -0.411 N 
HETATM   13  H   UNK N   1      31.498  15.694   9.769  0.00  0.00     0.154 HD
BRANCH  12  14
HETATM   14  C   UNK N   1      31.631  17.141   8.107  0.00  0.00     0.014 C 
HETATM   15  C   UNK N   1      30.870  18.236   8.824  0.00  0.00     0.037 C 
HETATM   16  C   UNK N   1      32.808  17.772   7.389  0.00  0.00     0.037 C 
HETATM   17  C   UNK N   1      30.683  16.518   7.085  0.00  0.00     0.037 C 
ENDBRANCH  12  14
ENDBRANCH  11  12
ENDBRANCH  10  11
BRANCH  10  18
HETATM   18  O   UNK N   1      33.020  14.960  11.105  0.00  0.00    -0.392 OA
HETATM   19  H   UNK N   1      33.068  14.836  12.065  0.00  0.00     0.210 HD
ENDBRANCH  10  18
ENDBRANCH   9  10
ENDBRANCH   8   9
ENDBRANCH   2   8
BRANCH   1  20
HETATM   20  N   UNK N   1      36.094  12.936  13.652  0.00  0.00    -0.359 N 
HETATM   21  C   UNK N   1      34.892  12.115  13.556  0.00  0.00     0.151 C 
HETATM   22  C   UNK N   1      34.217  11.901  14.911  0.00  0.00     0.187 C 
HETATM   23  O   UNK N   1      34.268  13.084  15.655  0.00  0.00    -0.388 OA
HETATM   24  C   UNK N   1      35.596  13.158  16.083  0.00  0.00     0.187 C 
HETATM   25  C   UNK N   1      36.488  13.563  14.911  0.00  0.00     0.151 C 
ENDBRANCH   1  20
TORSDOF 8
ENDMDL
MODEL 2
REMARK VINA RESULT:      -5.7      6.339      8.371
REMARK  8 active torsions:
REMARK  status: ('A' for Active; 'I' for Inactive)
REMARK    1  A    between atoms: C_10  and  C_8 
REMARK    2  A    between atoms: N_14  and  C_8 
REMARK    3  A    between atoms: C_10  and  C_9 
REMARK    4  A    between atoms: O_22  and  C_9 
REMARK    5  A    between atoms: C_10  and  O_20 
REMARK    6  A    between atoms: N_19  and  C_11 
REMARK    7  A    between atoms: O_22  and  C_12 
REMARK    8  A    between atoms: N_14  and  C_13 
ROOT
HETATM    1  C   UNK N   1      32.846  16.950   6.732  0.00  0.00     0.163 A 
HETATM    2  C   UNK N   1      31.970  17.274   7.846  0.00  0.00     0.195 A 
HETATM    3  N   UNK N   1      34.180  17.074   7.003  0.00  0.00    -0.295 N 
ATOM      4  HN  UNK N   1      34.976  16.902   6.389  1.00  0.00     0.177 HD
HETATM    5  N   UNK N   1      32.602  17.657   8.993  0.00  0.00    -0.290 N 
ATOM      6  HN  UNK N   1      32.197  17.930   9.890  1.00  0.00     0.178 HD
HETATM    7  S   UNK N   1      34.175  17.566   8.562  0.00  0.00     0.070 SA
ENDROOT
BRANCH   2   8
HETATM    8  O   UNK N   1      30.626  17.201   7.747  0.00  0.00    -0.330 OA
BRANCH   8   9
HETATM    9  C   UNK N   1      29.754  17.356   8.799  0.00  0.00     0.210 C 
BRANCH   9  10
HETATM   10  C   UNK N   1      28.326  17.584   8.286  0.00  0.00     0.159 C 
BRANCH  10  11
HETATM   11  C   UNK N   1      28.336  18.436   7.025  0.00  0.00     0.148 C 
BRANCH  11  12
HETATM   12  N   UNK N   1      27.019  18.537   6.395  0.00  0.00    -0.411 N 
HETATM   13  H   UNK N   1      26.297  17.821   6.471  0.00  0.00     0.154 HD
BRANCH  12  14
HETATM   14  C   UNK N   1      26.854  19.788   5.640  0.00  0.00     0.014 C 
HETATM   15  C   UNK N   1      26.847  20.939   6.625  0.00  0.00     0.037 C 
HETATM   16  C   UNK N   1      28.020  19.982   4.691  0.00  0.00     0.037 C 
HETATM   17  C   UNK N   1      25.543  19.848   4.859  0.00  0.00     0.037 C 
ENDBRANCH  12  14
ENDBRANCH  11  12
ENDBRANCH  10  11
BRANCH  10  18
HETATM   18  O   UNK N   1      27.558  18.261   9.239  0.00  0.00    -0.392 OA
HETATM   19  H   UNK N   1      26.596  18.190   9.336  0.00  0.00     0.210 HD
ENDBRANCH  10  18
ENDBRANCH   9  10
ENDBRANCH   8   9
ENDBRANCH   2   8
BRANCH   1  20
HETATM   20  N   UNK N   1      32.383  16.542   5.441  0.00  0.00    -0.359 N 
HETATM   21  C   UNK N   1      31.924  15.169   5.265  0.00  0.00     0.151 C 
HETATM   22  C   UNK N   1      31.420  14.895   3.848  0.00  0.00     0.187 C 
HETATM   23  O   UNK N   1      32.243  15.544   2.921  0.00  0.00    -0.388 OA
HETATM   24  C   UNK N   1      31.878  16.888   3.026  0.00  0.00     0.187 C 
HETATM   25  C   UNK N   1      32.449  17.473   4.317  0.00  0.00     0.151 C 
ENDBRANCH   1  20
TORSDOF 8
ENDMDL
MODEL 3
REMARK VINA RESULT:      -5.7      5.200      7.610
REMARK  8 active torsions:
REMARK  status: ('A' for Active; 'I' for Inactive)
REMARK    1  A    between atoms: C_10  and  C_8 
REMARK    2  A    between atoms: N_14  and  C_8 
REMARK    3  A    between atoms: C_10  and  C_9 
REMARK    4  A    between atoms: O_22  and  C_9 
REMARK    5  A    between atoms: C_10  and  O_20 
REMARK    6  A    between atoms: N_19  and  C_11 
REMARK    7  A    between atoms: O_22  and  C_12 
REMARK    8  A    between atoms: N_14  and  C_13 
ROOT
HETATM    1  C   UNK N   1      31.854  15.722   6.680  0.00  0.00     0.163 A 
HETATM    2  C   UNK N   1      30.536  16.312   6.516  0.00  0.00     0.195 A 
HETATM    3  N   UNK N   1      32.040  14.548   6.006  0.00  0.00    -0.295 N 
ATOM      4  HN  UNK N   1      32.870  13.957   5.967  1.00  0.00     0.177 HD
HETATM    5  N   UNK N   1      29.677  15.610   5.721  0.00  0.00    -0.290 N 
ATOM      6  HN  UNK N   1      28.713  15.828   5.468  1.00  0.00     0.178 HD
HETATM    7  S   UNK N   1      30.593  14.332   5.278  0.00  0.00     0.070 SA
ENDROOT
BRANCH   2   8
HETATM    8  O   UNK N   1      30.189  17.473   7.112  0.00  0.00    -0.330 OA
BRANCH   8   9
HETATM    9  C   UNK N   1      29.584  17.570   8.343  0.00  0.00     0.210 C 
BRANCH   9  10
HETATM   10  C   UNK N   1      28.102  17.933   8.186  0.00  0.00     0.159 C 
BRANCH  10  11
HETATM   11  C   UNK N   1      27.939  19.180   7.331  0.00  0.00     0.148 C 
BRANCH  11  12
HETATM   12  N   UNK N   1      27.728  18.878   5.915  0.00  0.00    -0.411 N 
HETATM   13  H   UNK N   1      28.105  18.052   5.449  0.00  0.00     0.154 HD
BRANCH  12  14
HETATM   14  C   UNK N   1      26.912  19.898   5.239  0.00  0.00     0.014 C 
HETATM   15  C   UNK N   1      27.416  20.043   3.818  0.00  0.00     0.037 C 
HETATM   16  C   UNK N   1      25.463  19.454   5.187  0.00  0.00     0.037 C 
HETATM   17  C   UNK N   1      27.003  21.272   5.899  0.00  0.00     0.037 C 
ENDBRANCH  12  14
ENDBRANCH  11  12
ENDBRANCH  10  11
BRANCH  10  18
HETATM   18  O   UNK N   1      27.523  18.203   9.431  0.00  0.00    -0.392 OA
HETATM   19  H   UNK N   1      26.900  17.623   9.896  0.00  0.00     0.210 HD
ENDBRANCH  10  18
ENDBRANCH   9  10
ENDBRANCH   8   9
ENDBRANCH   2   8
BRANCH   1  20
HETATM   20  N   UNK N   1      32.892  16.292   7.483  0.00  0.00    -0.359 N 
HETATM   21  C   UNK N   1      33.298  15.596   8.699  0.00  0.00     0.151 C 
HETATM   22  C   UNK N   1      34.444  16.302   9.425  0.00  0.00     0.187 C 
HETATM   23  O   UNK N   1      34.254  17.686   9.373  0.00  0.00    -0.388 OA
HETATM   24  C   UNK N   1      34.587  18.025   8.059  0.00  0.00     0.187 C 
HETATM   25  C   UNK N   1      33.468  17.585   7.118  0.00  0.00     0.151 C 
ENDBRANCH   1  20
TORSDOF 8
ENDMDL
MODEL 4
REMARK VINA RESULT:      -5.6      6.776      8.697
REMARK  8 active torsions:
REMARK  status: ('A' for Active; 'I' for Inactive)
REMARK    1  A    between atoms: C_10  and  C_8 
REMARK    2  A    between atoms: N_14  and  C_8 
REMARK    3  A    between atoms: C_10  and  C_9 
REMARK    4  A    between atoms: O_22  and  C_9 
REMARK    5  A    between atoms: C_10  and  O_20 
REMARK    6  A    between atoms: N_19  and  C_11 
REMARK    7  A    between atoms: O_22  and  C_12 
REMARK    8  A    between atoms: N_14  and  C_13 
ROOT
HETATM    1  C   UNK N   1      30.917  17.347   7.873  0.00  0.00     0.163 A 
HETATM    2  C   UNK N   1      29.581  17.618   7.367  0.00  0.00     0.195 A 
HETATM    3  N   UNK N   1      31.160  17.834   9.126  0.00  0.00    -0.295 N 
ATOM      4  HN  UNK N   1      32.011  17.769   9.684  1.00  0.00     0.177 HD
HETATM    5  N   UNK N   1      28.770  18.321   8.209  0.00  0.00    -0.290 N 
ATOM      6  HN  UNK N   1      27.805  18.624   8.068  1.00  0.00     0.178 HD
HETATM    7  S   UNK N   1      29.740  18.550   9.503  0.00  0.00     0.070 SA
ENDROOT
BRANCH   2   8
HETATM    8  O   UNK N   1      29.178  17.204   6.147  0.00  0.00    -0.330 OA
BRANCH   8   9
HETATM    9  C   UNK N   1      28.518  16.022   5.901  0.00  0.00     0.210 C 
BRANCH   9  10
HETATM   10  C   UNK N   1      27.010  16.266   5.767  0.00  0.00     0.159 C 
BRANCH  10  11
HETATM   11  C   UNK N   1      26.736  17.524   4.957  0.00  0.00     0.148 C 
BRANCH  11  12
HETATM   12  N   UNK N   1      26.278  18.645   5.780  0.00  0.00    -0.411 N 
HETATM   13  H   UNK N   1      25.811  18.534   6.680  0.00  0.00     0.154 HD
BRANCH  12  14
HETATM   14  C   UNK N   1      26.568  19.948   5.164  0.00  0.00     0.014 C 
HETATM   15  C   UNK N   1      27.866  19.831   4.393  0.00  0.00     0.037 C 
HETATM   16  C   UNK N   1      25.468  20.319   4.188  0.00  0.00     0.037 C 
HETATM   17  C   UNK N   1      26.743  21.069   6.186  0.00  0.00     0.037 C 
ENDBRANCH  12  14
ENDBRANCH  11  12
ENDBRANCH  10  11
BRANCH  10  18
HETATM   18  O   UNK N   1      26.422  16.445   7.024  0.00  0.00    -0.392 OA
HETATM   19  H   UNK N   1      25.503  16.233   7.249  0.00  0.00     0.210 HD
ENDBRANCH  10  18
ENDBRANCH   9  10
ENDBRANCH   8   9
ENDBRANCH   2   8
BRANCH   1  20
HETATM   20  N   UNK N   1      31.922  16.639   7.141  0.00  0.00    -0.359 N 
HETATM   21  C   UNK N   1      32.845  17.400   6.306  0.00  0.00     0.151 C 
HETATM   22  C   UNK N   1      33.886  16.513   5.622  0.00  0.00     0.187 C 
HETATM   23  O   UNK N   1      33.287  15.323   5.198  0.00  0.00    -0.388 OA
HETATM   24  C   UNK N   1      33.116  14.591   6.375  0.00  0.00     0.187 C 
HETATM   25  C   UNK N   1      31.958  15.179   7.179  0.00  0.00     0.151 C 
ENDBRANCH   1  20
TORSDOF 8
ENDMDL
MODEL 5
REMARK VINA RESULT:      -5.6      6.331     10.259
REMARK  8 active torsions:
REMARK  status: ('A' for Active; 'I' for Inactive)
REMARK    1  A    between atoms: C_10  and  C_8 
REMARK    2  A    between atoms: N_14  and  C_8 
REMARK    3  A    between atoms: C_10  and  C_9 
REMARK    4  A    between atoms: O_22  and  C_9 
REMARK    5  A    between atoms: C_10  and  O_20 
REMARK    6  A    between atoms: N_19  and  C_11 
REMARK    7  A    between atoms: O_22  and  C_12 
REMARK    8  A    between atoms: N_14  and  C_13 
ROOT
HETATM    1  C   UNK N   1      28.067  19.039   5.190  0.00  0.00     0.163 A 
HETATM    2  C   UNK N   1      27.731  19.035   6.604  0.00  0.00     0.195 A 
HETATM    3  N   UNK N   1      27.698  20.171   4.520  0.00  0.00    -0.295 N 
ATOM      4  HN  UNK N   1      27.827  20.403   3.536  1.00  0.00     0.177 HD
HETATM    5  N   UNK N   1      27.095  20.155   7.055  0.00  0.00    -0.290 N 
ATOM      6  HN  UNK N   1      26.766  20.371   7.997  1.00  0.00     0.178 HD
HETATM    7  S   UNK N   1      26.997  21.060   5.699  0.00  0.00     0.070 SA
ENDROOT
BRANCH   2   8
HETATM    8  O   UNK N   1      28.029  17.994   7.410  0.00  0.00    -0.330 OA
BRANCH   8   9
HETATM    9  C   UNK N   1      28.207  18.083   8.771  0.00  0.00     0.210 C 
BRANCH   9  10
HETATM   10  C   UNK N   1      29.629  18.555   9.098  0.00  0.00     0.159 C 
BRANCH  10  11
HETATM   11  C   UNK N   1      30.661  17.590   8.533  0.00  0.00     0.148 C 
BRANCH  11  12
HETATM   12  N   UNK N   1      32.020  17.873   8.996  0.00  0.00    -0.411 N 
HETATM   13  H   UNK N   1      32.245  18.580   9.697  0.00  0.00     0.154 HD
BRANCH  12  14
HETATM   14  C   UNK N   1      33.025  17.026   8.337  0.00  0.00     0.014 C 
HETATM   15  C   UNK N   1      34.316  17.123   9.121  0.00  0.00     0.037 C 
HETATM   16  C   UNK N   1      32.571  15.579   8.345  0.00  0.00     0.037 C 
HETATM   17  C   UNK N   1      33.326  17.457   6.903  0.00  0.00     0.037 C 
ENDBRANCH  12  14
ENDBRANCH  11  12
ENDBRANCH  10  11
BRANCH  10  18
HETATM   18  O   UNK N   1      29.827  18.614  10.481  0.00  0.00    -0.392 OA
HETATM   19  H   UNK N   1      30.025  19.418  10.985  0.00  0.00     0.210 HD
ENDBRANCH  10  18
ENDBRANCH   9  10
ENDBRANCH   8   9
ENDBRANCH   2   8
BRANCH   1  20
HETATM   20  N   UNK N   1      28.722  17.957   4.519  0.00  0.00    -0.359 N 
HETATM   21  C   UNK N   1      30.139  17.729   4.779  0.00  0.00     0.151 C 
HETATM   22  C   UNK N   1      30.686  16.516   4.027  0.00  0.00     0.187 C 
HETATM   23  O   UNK N   1      30.135  16.469   2.743  0.00  0.00    -0.388 OA
HETATM   24  C   UNK N   1      28.827  16.025   2.951  0.00  0.00     0.187 C 
HETATM   25  C   UNK N   1      27.990  17.158   3.539  0.00  0.00     0.151 C 
ENDBRANCH   1  20
TORSDOF 8
ENDMDL
MODEL 6
REMARK VINA RESULT:      -5.6      5.447      8.072
REMARK  8 active torsions:
REMARK  status: ('A' for Active; 'I' for Inactive)
REMARK    1  A    between atoms: C_10  and  C_8 
REMARK    2  A    between atoms: N_14  and  C_8 
REMARK    3  A    between atoms: C_10  and  C_9 
REMARK    4  A    between atoms: O_22  and  C_9 
REMARK    5  A    between atoms: C_10  and  O_20 
REMARK    6  A    between atoms: N_19  and  C_11 
REMARK    7  A    between atoms: O_22  and  C_12 
REMARK    8  A    between atoms: N_14  and  C_13 
ROOT
HETATM    1  C   UNK N   1      30.742  17.493   8.504  0.00  0.00     0.163 A 
HETATM    2  C   UNK N   1      29.869  17.274   7.363  0.00  0.00     0.195 A 
HETATM    3  N   UNK N   1      30.118  18.004   9.607  0.00  0.00    -0.295 N 
ATOM      4  HN  UNK N   1      30.516  18.237  10.517  1.00  0.00     0.177 HD
HETATM    5  N   UNK N   1      28.561  17.614   7.554  0.00  0.00    -0.290 N 
ATOM      6  HN  UNK N   1      27.779  17.550   6.902  1.00  0.00     0.178 HD
HETATM    7  S   UNK N   1      28.572  18.147   9.098  0.00  0.00     0.070 SA
ENDROOT
BRANCH   2   8
HETATM    8  O   UNK N   1      30.325  16.772   6.196  0.00  0.00    -0.330 OA
BRANCH   8   9
HETATM    9  C   UNK N   1      30.245  17.414   4.982  0.00  0.00     0.210 C 
BRANCH   9  10
HETATM   10  C   UNK N   1      29.266  16.685   4.052  0.00  0.00     0.159 C 
BRANCH  10  11
HETATM   11  C   UNK N   1      27.976  17.477   3.899  0.00  0.00     0.148 C 
BRANCH  11  12
HETATM   12  N   UNK N   1      28.199  18.923   3.836  0.00  0.00    -0.411 N 
HETATM   13  H   UNK N   1      29.041  19.351   3.451  0.00  0.00     0.154 HD
BRANCH  12  14
HETATM   14  C   UNK N   1      27.071  19.688   4.389  0.00  0.00     0.014 C 
HETATM   15  C   UNK N   1      26.084  18.711   4.992  0.00  0.00     0.037 C 
HETATM   16  C   UNK N   1      27.559  20.611   5.489  0.00  0.00     0.037 C 
HETATM   17  C   UNK N   1      26.323  20.501   3.334  0.00  0.00     0.037 C 
ENDBRANCH  12  14
ENDBRANCH  11  12
ENDBRANCH  10  11
BRANCH  10  18
HETATM   18  O   UNK N   1      28.926  15.432   4.573  0.00  0.00    -0.392 OA
HETATM   19  H   UNK N   1      29.087  14.582   4.136  0.00  0.00     0.210 HD
ENDBRANCH  10  18
ENDBRANCH   9  10
ENDBRANCH   8   9
ENDBRANCH   2   8
BRANCH   1  20
HETATM   20  N   UNK N   1      32.146  17.216   8.503  0.00  0.00    -0.359 N 
HETATM   21  C   UNK N   1      32.601  15.910   8.969  0.00  0.00     0.151 C 
HETATM   22  C   UNK N   1      34.118  15.747   8.868  0.00  0.00     0.187 C 
HETATM   23  O   UNK N   1      34.746  16.942   9.233  0.00  0.00    -0.388 OA
HETATM   24  C   UNK N   1      34.544  17.781   8.134  0.00  0.00     0.187 C 
HETATM   25  C   UNK N   1      33.093  18.258   8.116  0.00  0.00     0.151 C 
ENDBRANCH   1  20
TORSDOF 8
ENDMDL
MODEL 7
REMARK VINA RESULT:      -5.4      3.196      6.718
REMARK  8 active torsions:
REMARK  status: ('A' for Active; 'I' for Inactive)
REMARK    1  A    between atoms: C_10  and  C_8 
REMARK    2  A    between atoms: N_14  and  C_8 
REMARK    3  A    between atoms: C_10  and  C_9 
REMARK    4  A    between atoms: O_22  and  C_9 
REMARK    5  A    between atoms: C_10  and  O_20 
REMARK    6  A    between atoms: N_19  and  C_11 
REMARK    7  A    between atoms: O_22  and  C_12 
REMARK    8  A    between atoms: N_14  and  C_13 
ROOT
HETATM    1  C   UNK N   1      35.519  15.144   9.224  0.00  0.00     0.163 A 
HETATM    2  C   UNK N   1      35.544  15.843  10.498  0.00  0.00     0.195 A 
HETATM    3  N   UNK N   1      34.871  15.812   8.223  0.00  0.00    -0.295 N 
ATOM      4  HN  UNK N   1      34.726  15.528   7.254  1.00  0.00     0.177 HD
HETATM    5  N   UNK N   1      34.917  17.055  10.512  0.00  0.00    -0.290 N 
ATOM      6  HN  UNK N   1      34.808  17.713  11.285  1.00  0.00     0.178 HD
HETATM    7  S   UNK N   1      34.387  17.181   8.973  0.00  0.00     0.070 SA
ENDROOT
BRANCH   2   8
HETATM    8  O   UNK N   1      36.146  15.324  11.590  0.00  0.00    -0.330 OA
BRANCH   8   9
HETATM    9  C   UNK N   1      35.551  14.454  12.473  0.00  0.00     0.210 C 
BRANCH   9  10
HETATM   10  C   UNK N   1      36.471  13.259  12.752  0.00  0.00     0.159 C 
BRANCH  10  11
HETATM   11  C   UNK N   1      36.900  13.237  14.211  0.00  0.00     0.148 C 
BRANCH  11  12
HETATM   12  N   UNK N   1      35.803  13.530  15.133  0.00  0.00    -0.411 N 
HETATM   13  H   UNK N   1      35.392  14.457  15.250  0.00  0.00     0.154 HD
BRANCH  12  14
HETATM   14  C   UNK N   1      35.357  12.340  15.872  0.00  0.00     0.014 C 
HETATM   15  C   UNK N   1      35.036  12.755  17.292  0.00  0.00     0.037 C 
HETATM   16  C   UNK N   1      34.096  11.779  15.243  0.00  0.00     0.037 C 
HETATM   17  C   UNK N   1      36.421  11.247  15.945  0.00  0.00     0.037 C 
ENDBRANCH  12  14
ENDBRANCH  11  12
ENDBRANCH  10  11
BRANCH  10  18
HETATM   18  O   UNK N   1      37.633  13.335  11.977  0.00  0.00    -0.392 OA
HETATM   19  H   UNK N   1      37.977  12.626  11.410  0.00  0.00     0.210 HD
ENDBRANCH  10  18
ENDBRANCH   9  10
ENDBRANCH   8   9
ENDBRANCH   2   8
BRANCH   1  20
HETATM   20  N   UNK N   1      36.105  13.858   9.004  0.00  0.00    -0.359 N 
HETATM   21  C   UNK N   1      35.307  12.669   9.282  0.00  0.00     0.151 C 
HETATM   22  C   UNK N   1      36.051  11.373   8.959  0.00  0.00     0.187 C 
HETATM   23  O   UNK N   1      37.392  11.491   9.339  0.00  0.00    -0.388 OA
HETATM   24  C   UNK N   1      37.951  12.315   8.359  0.00  0.00     0.187 C 
HETATM   25  C   UNK N   1      37.501  13.756   8.585  0.00  0.00     0.151 C 
ENDBRANCH   1  20
TORSDOF 8
ENDMDL
MODEL 8
REMARK VINA RESULT:      -5.4      4.256      5.698
REMARK  8 active torsions:
REMARK  status: ('A' for Active; 'I' for Inactive)
REMARK    1  A    between atoms: C_10  and  C_8 
REMARK    2  A    between atoms: N_14  and  C_8 
REMARK    3  A    between atoms: C_10  and  C_9 
REMARK    4  A    between atoms: O_22  and  C_9 
REMARK    5  A    between atoms: C_10  and  O_20 
REMARK    6  A    between atoms: N_19  and  C_11 
REMARK    7  A    between atoms: O_22  and  C_12 
REMARK    8  A    between atoms: N_14  and  C_13 
ROOT
HETATM    1  C   UNK N   1      34.999  15.322   8.985  0.00  0.00     0.163 A 
HETATM    2  C   UNK N   1      34.599  16.704   9.191  0.00  0.00     0.195 A 
HETATM    3  N   UNK N   1      35.638  14.751  10.050  0.00  0.00    -0.295 N 
ATOM      4  HN  UNK N   1      36.006  13.804  10.142  1.00  0.00     0.177 HD
HETATM    5  N   UNK N   1      34.922  17.230  10.409  0.00  0.00    -0.290 N 
ATOM      6  HN  UNK N   1      34.745  18.168  10.770  1.00  0.00     0.178 HD
HETATM    7  S   UNK N   1      35.662  15.970  11.138  0.00  0.00     0.070 SA
ENDROOT
BRANCH   2   8
HETATM    8  O   UNK N   1      33.955  17.414   8.241  0.00  0.00    -0.330 OA
BRANCH   8   9
HETATM    9  C   UNK N   1      32.642  17.817   8.319  0.00  0.00     0.210 C 
BRANCH   9  10
HETATM   10  C   UNK N   1      31.723  16.611   8.550  0.00  0.00     0.159 C 
BRANCH  10  11
HETATM   11  C   UNK N   1      31.150  16.110   7.233  0.00  0.00     0.148 C 
BRANCH  11  12
HETATM   12  N   UNK N   1      32.077  16.265   6.111  0.00  0.00    -0.411 N 
HETATM   13  H   UNK N   1      33.075  16.061   6.167  0.00  0.00     0.154 HD
BRANCH  12  14
HETATM   14  C   UNK N   1      31.408  16.748   4.894  0.00  0.00     0.014 C 
HETATM   15  C   UNK N   1      31.069  15.551   4.031  0.00  0.00     0.037 C 
HETATM   16  C   UNK N   1      30.116  17.455   5.256  0.00  0.00     0.037 C 
HETATM   17  C   UNK N   1      32.283  17.680   4.059  0.00  0.00     0.037 C 
ENDBRANCH  12  14
ENDBRANCH  11  12
ENDBRANCH  10  11
BRANCH  10  18
HETATM   18  O   UNK N   1      30.643  16.960   9.368  0.00  0.00    -0.392 OA
HETATM   19  H   UNK N   1      29.950  17.598   9.139  0.00  0.00     0.210 HD
ENDBRANCH  10  18
ENDBRANCH   9  10
ENDBRANCH   8   9
ENDBRANCH   2   8
BRANCH   1  20
HETATM   20  N   UNK N   1      34.768  14.593   7.776  0.00  0.00    -0.359 N 
HETATM   21  C   UNK N   1      35.490  14.989   6.572  0.00  0.00     0.151 C 
HETATM   22  C   UNK N   1      35.173  14.092   5.375  0.00  0.00     0.187 C 
HETATM   23  O   UNK N   1      33.810  13.775   5.372  0.00  0.00    -0.388 OA
HETATM   24  C   UNK N   1      33.678  12.831   6.393  0.00  0.00     0.187 C 
HETATM   25  C   UNK N   1      33.767  13.529   7.748  0.00  0.00     0.151 C 
ENDBRANCH   1  20
TORSDOF 8
ENDMDL
MODEL 9
REMARK VINA RESULT:      -5.4     19.106     21.412
REMARK  8 active torsions:
REMARK  status: ('A' for Active; 'I' for Inactive)
REMARK    1  A    between atoms: C_10  and  C_8 
REMARK    2  A    between atoms: N_14  and  C_8 
REMARK    3  A    between atoms: C_10  and  C_9 
REMARK    4  A    between atoms: O_22  and  C_9 
REMARK    5  A    between atoms: C_10  and  O_20 
REMARK    6  A    between atoms: N_19  and  C_11 
REMARK    7  A    between atoms: O_22  and  C_12 
REMARK    8  A    between atoms: N_14  and  C_13 
ROOT
HETATM    1  C   UNK N   1      28.914  22.497  -6.450  0.00  0.00     0.163 A 
HETATM    2  C   UNK N   1      29.614  23.134  -5.347  0.00  0.00     0.195 A 
HETATM    3  N   UNK N   1      29.327  21.224  -6.727  0.00  0.00    -0.295 N 
ATOM      4  HN  UNK N   1      28.989  20.583  -7.444  1.00  0.00     0.177 HD
HETATM    5  N   UNK N   1      30.581  22.375  -4.753  0.00  0.00    -0.290 N 
ATOM      6  HN  UNK N   1      31.194  22.613  -3.973  1.00  0.00     0.178 HD
HETATM    7  S   UNK N   1      30.502  20.990  -5.614  0.00  0.00     0.070 SA
ENDROOT
BRANCH   2   8
HETATM    8  O   UNK N   1      29.326  24.390  -4.943  0.00  0.00    -0.330 OA
BRANCH   8   9
HETATM    9  C   UNK N   1      28.766  24.712  -3.729  0.00  0.00     0.210 C 
BRANCH   9  10
HETATM   10  C   UNK N   1      27.384  24.064  -3.585  0.00  0.00     0.159 C 
BRANCH  10  11
HETATM   11  C   UNK N   1      26.291  25.012  -4.057  0.00  0.00     0.148 C 
BRANCH  11  12
HETATM   12  N   UNK N   1      26.734  25.902  -5.131  0.00  0.00    -0.411 N 
HETATM   13  H   UNK N   1      27.407  25.634  -5.849  0.00  0.00     0.154 HD
BRANCH  12  14
HETATM   14  C   UNK N   1      26.097  27.226  -5.060  0.00  0.00     0.014 C 
HETATM   15  C   UNK N   1      24.740  27.136  -5.725  0.00  0.00     0.037 C 
HETATM   16  C   UNK N   1      25.892  27.627  -3.612  0.00  0.00     0.037 C 
HETATM   17  C   UNK N   1      26.890  28.312  -5.784  0.00  0.00     0.037 C 
ENDBRANCH  12  14
ENDBRANCH  11  12
ENDBRANCH  10  11
BRANCH  10  18
HETATM   18  O   UNK N   1      27.117  23.755  -2.247  0.00  0.00    -0.392 OA
HETATM   19  H   UNK N   1      26.742  24.367  -1.594  0.00  0.00     0.210 HD
ENDBRANCH  10  18
ENDBRANCH   9  10
ENDBRANCH   8   9
ENDBRANCH   2   8
BRANCH   1  20
HETATM   20  N   UNK N   1      27.879  23.126  -7.212  0.00  0.00    -0.359 N 
HETATM   21  C   UNK N   1      28.244  24.188  -8.144  0.00  0.00     0.151 C 
HETATM   22  C   UNK N   1      27.041  24.732  -8.915  0.00  0.00     0.187 C 
HETATM   23  O   UNK N   1      25.935  24.818  -8.064  0.00  0.00    -0.388 OA
HETATM   24  C   UNK N   1      25.517  23.494  -7.914  0.00  0.00     0.187 C 
HETATM   25  C   UNK N   1      26.484  22.755  -6.991  0.00  0.00     0.151 C 
ENDBRANCH   1  20
TORSDOF 8
ENDMDL
