MODEL 1
REMARK VINA RESULT:      -9.3      0.000      0.000
REMARK  9 active torsions:
REMARK  status: ('A' for Active; 'I' for Inactive)
REMARK    1  A    between atoms: C_13  and  C_18 
REMARK    2  A    between atoms: C_16  and  C_21 
REMARK    3  A    between atoms: C_18  and  C_16 
REMARK    4  A    between atoms: C_23  and  O_61 
REMARK    5  A    between atoms: C_24  and  O_62 
REMARK    6  A    between atoms: C_28  and  O_64 
REMARK    7  A    between atoms: C_34  and  O_35 
REMARK    8  A    between atoms: C_46  and  O_49 
REMARK    9  A    between atoms: C_47  and  O_48 
ROOT
HETATM    1  C   UNK N   1      27.532  18.736   5.465  0.00  0.00     0.035 C 
HETATM    2  C   UNK N   1      26.865  18.316   4.157  0.00  0.00     0.187 C 
HETATM    3  C   UNK N   1      27.463  20.263   5.669  0.00  0.00     0.004 C 
HETATM    4  N   UNK N   1      25.598  19.048   4.014  0.00  0.00    -0.331 N 
HETATM    5  C   UNK N   1      27.033  21.029   4.405  0.00  0.00     0.020 C 
HETATM    6  C   UNK N   1      25.699  20.490   3.855  0.00  0.00     0.127 C 
HETATM    7  C   UNK N   1      26.820  16.828   3.907  0.00  0.00     0.282 C 
HETATM    8  O   UNK N   1      26.407  16.420   2.827  0.00  0.00    -0.263 OA
HETATM    9  O   UNK N   1      24.286  17.263   4.413  0.00  0.00    -0.264 OA
HETATM   10  C   UNK N   1      24.366  18.426   4.059  0.00  0.00     0.296 C 
HETATM   11  C   UNK N   1      23.098  19.106   3.630  0.00  0.00     0.278 C 
HETATM   12  O   UNK N   1      23.106  20.266   3.249  0.00  0.00    -0.281 OA
HETATM   13  C   UNK N   1      27.851  14.735   4.449  0.00  0.00     0.142 C 
HETATM   14  C   UNK N   1      26.817  13.604   4.469  0.00  0.00     0.112 C 
HETATM   15  O   UNK N   1      27.308  15.955   4.821  0.00  0.00    -0.314 OA
HETATM   16  O   UNK N   1      26.064  14.056   6.669  0.00  0.00    -0.297 OA
HETATM   17  C   UNK N   1      25.760  13.767   5.522  0.00  0.00     0.136 C 
HETATM   18  O   UNK N   1      22.211  17.094   2.783  0.00  0.00    -0.343 OA
HETATM   19  C   UNK N   1      21.832  18.265   3.511  0.00  0.00     0.238 C 
HETATM   20  C   UNK N   1      21.152  16.198   2.476  0.00  0.00     0.128 C 
HETATM   21  C   UNK N   1      20.035  16.902   1.706  0.00  0.00     0.033 C 
HETATM   22  C   UNK N   1      20.706  19.025   2.761  0.00  0.00     0.053 C 
HETATM   23  C   UNK N   1      19.533  18.101   2.488  0.00  0.00     0.013 C 
HETATM   24  C   UNK N   1      20.646  15.453   3.715  0.00  0.00     0.068 C 
HETATM   25  C   UNK N   1      19.576  14.390   3.412  0.00  0.00     0.151 C 
HETATM   26  C   UNK N   1      21.595  12.819   2.838  0.00  0.00     0.046 C 
HETATM   27  C   UNK N   1      20.141  13.007   3.085  0.00  0.00    -0.055 C 
HETATM   28  C   UNK N   1      19.375  11.905   3.009  0.00  0.00     0.005 C 
HETATM   29  C   UNK N   1      20.211  20.256   3.506  0.00  0.00     0.016 C 
HETATM   30  C   UNK N   1      24.331  13.522   5.189  0.00  0.00     0.074 C 
HETATM   31  C   UNK N   1      23.865  14.353   4.005  0.00  0.00     0.022 C 
HETATM   32  C   UNK N   1      24.090  12.043   5.083  0.00  0.00    -0.010 C 
HETATM   33  C   UNK N   1      24.352  11.242   4.034  0.00  0.00    -0.056 C 
HETATM   34  C   UNK N   1      24.907  11.765   2.748  0.00  0.00     0.046 C 
HETATM   35  C   UNK N   1      24.217   9.756   4.196  0.00  0.00     0.183 C 
HETATM   36  C   UNK N   1      22.989   9.331   5.018  0.00  0.00     0.223 C 
HETATM   37  C   UNK N   1      22.872   7.823   5.074  0.00  0.00     0.162 C 
HETATM   38  C   UNK N   1      17.919  11.905   3.213  0.00  0.00     0.000 C 
HETATM   39  C   UNK N   1      17.186  10.813   3.488  0.00  0.00    -0.000 C 
HETATM   40  C   UNK N   1      21.724   7.106   4.403  0.00  0.00     0.055 C 
HETATM   41  C   UNK N   1      20.383   7.518   4.987  0.00  0.00     0.020 C 
HETATM   42  O   UNK N   1      23.745   7.181   5.643  0.00  0.00    -0.295 OA
HETATM   43  C   UNK N   1      17.660   9.420   3.692  0.00  0.00    -0.004 C 
HETATM   44  C   UNK N   1      18.937   9.022   3.636  0.00  0.00    -0.022 C 
HETATM   45  C   UNK N   1      19.353   7.587   3.876  0.00  0.00     0.005 C 
HETATM   46  C   UNK N   1      21.858   5.590   4.467  0.00  0.00     0.018 C 
HETATM   47  C   UNK N   1      18.197   6.651   4.198  0.00  0.00     0.014 C 
ENDROOT
BRANCH  13  48
HETATM   48  C   UNK N   1      29.106  14.424   5.278  0.00  0.00     0.012 C 
HETATM   49  C   UNK N   1      30.074  13.442   4.644  0.00  0.00     0.012 C 
BRANCH  48  50
HETATM   50  C   UNK N   1      29.774  15.552   6.061  0.00  0.00     0.011 C 
BRANCH  50  51
HETATM   51  C   UNK N   1      31.188  15.718   5.505  0.00  0.00    -0.012 C 
HETATM   52  C   UNK N   1      32.258  15.396   6.547  0.00  0.00     0.039 C 
HETATM   53  C   UNK N   1      33.659  15.537   5.923  0.00  0.00     0.150 C 
HETATM   54  C   UNK N   1      33.869  16.937   5.323  0.00  0.00     0.147 C 
HETATM   55  C   UNK N   1      32.750  17.298   4.345  0.00  0.00     0.035 C 
HETATM   56  C   UNK N   1      31.384  17.153   5.008  0.00  0.00     0.007 C 
BRANCH  53  57
HETATM   57  O   UNK N   1      33.852  14.560   4.941  0.00  0.00    -0.388 OA
HETATM   58  C   UNK N   1      35.227  14.328   4.929  0.00  0.00     0.202 C 
ENDBRANCH  53  57
BRANCH  54  59
HETATM   59  O   UNK N   1      33.942  17.894   6.337  0.00  0.00    -0.393 OA
HETATM   60  H   UNK N   1      33.491  18.735   6.509  0.00  0.00     0.210 HD
ENDBRANCH  54  59
ENDBRANCH  50  51
ENDBRANCH  48  50
ENDBRANCH  13  48
BRANCH  35  61
HETATM   61  O   UNK N   1      25.381   9.269   4.794  0.00  0.00    -0.388 OA
HETATM   62  H   UNK N   1      25.354   8.713   5.588  0.00  0.00     0.210 HD
ENDBRANCH  35  61
BRANCH  19  63
HETATM   63  O   UNK N   1      21.415  17.922   4.803  0.00  0.00    -0.359 OA
HETATM   64  H   UNK N   1      21.353  17.930   5.771  0.00  0.00     0.213 HD
ENDBRANCH  19  63
BRANCH  36  65
HETATM   65  O   UNK N   1      21.832   9.926   4.505  0.00  0.00    -0.380 OA
HETATM   66  C   UNK N   1      21.225  10.530   5.612  0.00  0.00     0.202 C 
ENDBRANCH  36  65
BRANCH  25  67
HETATM   67  O   UNK N   1      18.702  14.338   4.499  0.00  0.00    -0.386 OA
HETATM   68  C   UNK N   1      18.827  15.593   5.104  0.00  0.00     0.202 C 
ENDBRANCH  25  67
TORSDOF 9
ENDMDL
MODEL 2
REMARK VINA RESULT:      -9.2      8.035     14.485
REMARK  9 active torsions:
REMARK  status: ('A' for Active; 'I' for Inactive)
REMARK    1  A    between atoms: C_13  and  C_18 
REMARK    2  A    between atoms: C_16  and  C_21 
REMARK    3  A    between atoms: C_18  and  C_16 
REMARK    4  A    between atoms: C_23  and  O_61 
REMARK    5  A    between atoms: C_24  and  O_62 
REMARK    6  A    between atoms: C_28  and  O_64 
REMARK    7  A    between atoms: C_34  and  O_35 
REMARK    8  A    between atoms: C_46  and  O_49 
REMARK    9  A    between atoms: C_47  and  O_48 
ROOT
HETATM    1  C   UNK N   1      33.827  14.391   3.508  0.00  0.00     0.035 C 
HETATM    2  C   UNK N   1      35.152  13.817   4.003  0.00  0.00     0.187 C 
HETATM    3  C   UNK N   1      33.553  13.996   2.042  0.00  0.00     0.004 C 
HETATM    4  N   UNK N   1      35.260  12.420   3.557  0.00  0.00    -0.331 N 
HETATM    5  C   UNK N   1      34.781  13.398   1.331  0.00  0.00     0.020 C 
HETATM    6  C   UNK N   1      35.354  12.206   2.121  0.00  0.00     0.127 C 
HETATM    7  C   UNK N   1      35.469  14.091   5.453  0.00  0.00     0.282 C 
HETATM    8  O   UNK N   1      36.567  13.764   5.893  0.00  0.00    -0.263 OA
HETATM    9  O   UNK N   1      34.942  11.528   5.598  0.00  0.00    -0.264 OA
HETATM   10  C   UNK N   1      35.243  11.352   4.432  0.00  0.00     0.296 C 
HETATM   11  C   UNK N   1      35.640   9.963   4.023  0.00  0.00     0.278 C 
HETATM   12  O   UNK N   1      35.968   9.717   2.873  0.00  0.00    -0.281 OA
HETATM   13  C   UNK N   1      35.024  15.555   7.297  0.00  0.00     0.142 C 
HETATM   14  C   UNK N   1      35.055  14.789   8.623  0.00  0.00     0.112 C 
HETATM   15  O   UNK N   1      34.596  14.766   6.240  0.00  0.00    -0.314 OA
HETATM   16  O   UNK N   1      32.836  13.980   8.443  0.00  0.00    -0.297 OA
HETATM   17  C   UNK N   1      33.994  13.733   8.739  0.00  0.00     0.136 C 
HETATM   18  O   UNK N   1      36.577   9.522   6.139  0.00  0.00    -0.343 OA
HETATM   19  C   UNK N   1      35.797   8.906   5.111  0.00  0.00     0.238 C 
HETATM   20  C   UNK N   1      36.924   8.678   7.228  0.00  0.00     0.128 C 
HETATM   21  C   UNK N   1      37.661   7.427   6.749  0.00  0.00     0.033 C 
HETATM   22  C   UNK N   1      36.510   7.636   4.580  0.00  0.00     0.053 C 
HETATM   23  C   UNK N   1      36.825   6.687   5.722  0.00  0.00     0.013 C 
HETATM   24  C   UNK N   1      35.720   8.357   8.119  0.00  0.00     0.068 C 
HETATM   25  C   UNK N   1      36.070   7.539   9.373  0.00  0.00     0.151 C 
HETATM   26  C   UNK N   1      36.716   9.843  10.445  0.00  0.00     0.046 C 
HETATM   27  C   UNK N   1      36.460   8.385  10.586  0.00  0.00    -0.055 C 
HETATM   28  C   UNK N   1      36.586   7.874  11.823  0.00  0.00     0.005 C 
HETATM   29  C   UNK N   1      35.710   6.895   3.519  0.00  0.00     0.016 C 
HETATM   30  C   UNK N   1      34.337  12.387   9.273  0.00  0.00     0.074 C 
HETATM   31  C   UNK N   1      35.482  11.741   8.510  0.00  0.00     0.022 C 
HETATM   32  C   UNK N   1      34.511  12.470  10.762  0.00  0.00    -0.010 C 
HETATM   33  C   UNK N   1      35.595  12.887  11.441  0.00  0.00    -0.056 C 
HETATM   34  C   UNK N   1      36.856  13.304  10.754  0.00  0.00     0.046 C 
HETATM   35  C   UNK N   1      35.500  13.078  12.926  0.00  0.00     0.183 C 
HETATM   36  C   UNK N   1      34.698  11.979  13.643  0.00  0.00     0.223 C 
HETATM   37  C   UNK N   1      34.710  12.190  15.141  0.00  0.00     0.162 C 
HETATM   38  C   UNK N   1      36.382   6.455  12.146  0.00  0.00     0.000 C 
HETATM   39  C   UNK N   1      36.156   5.978  13.382  0.00  0.00    -0.000 C 
HETATM   40  C   UNK N   1      35.413  11.217  16.058  0.00  0.00     0.055 C 
HETATM   41  C   UNK N   1      34.810   9.825  15.972  0.00  0.00     0.020 C 
HETATM   42  O   UNK N   1      34.172  13.187  15.603  0.00  0.00    -0.295 OA
HETATM   43  C   UNK N   1      36.015   6.743  14.647  0.00  0.00    -0.004 C 
HETATM   44  C   UNK N   1      36.090   8.075  14.757  0.00  0.00    -0.022 C 
HETATM   45  C   UNK N   1      35.917   8.792  16.078  0.00  0.00     0.005 C 
HETATM   46  C   UNK N   1      35.417  11.675  17.511  0.00  0.00     0.018 C 
HETATM   47  C   UNK N   1      35.636   7.870  17.255  0.00  0.00     0.014 C 
ENDROOT
BRANCH  13  48
HETATM   48  C   UNK N   1      34.210  16.855   7.365  0.00  0.00     0.012 C 
HETATM   49  C   UNK N   1      34.674  17.855   8.410  0.00  0.00     0.012 C 
BRANCH  48  50
HETATM   50  C   UNK N   1      33.710  17.486   6.067  0.00  0.00     0.011 C 
BRANCH  50  51
HETATM   51  C   UNK N   1      32.330  16.900   5.778  0.00  0.00    -0.012 C 
HETATM   52  C   UNK N   1      31.693  17.513   4.530  0.00  0.00     0.039 C 
HETATM   53  C   UNK N   1      30.326  16.858   4.261  0.00  0.00     0.150 C 
HETATM   54  C   UNK N   1      29.395  16.980   5.479  0.00  0.00     0.147 C 
HETATM   55  C   UNK N   1      30.062  16.447   6.747  0.00  0.00     0.035 C 
HETATM   56  C   UNK N   1      31.408  17.129   6.978  0.00  0.00     0.007 C 
BRANCH  53  57
HETATM   57  O   UNK N   1      30.494  15.513   3.917  0.00  0.00    -0.388 OA
HETATM   58  C   UNK N   1      29.673  15.321   2.806  0.00  0.00     0.202 C 
ENDBRANCH  53  57
BRANCH  54  59
HETATM   59  O   UNK N   1      29.011  18.309   5.666  0.00  0.00    -0.393 OA
HETATM   60  H   UNK N   1      28.851  18.865   6.444  0.00  0.00     0.210 HD
ENDBRANCH  54  59
ENDBRANCH  50  51
ENDBRANCH  48  50
ENDBRANCH  13  48
BRANCH  35  61
HETATM   61  O   UNK N   1      34.926  14.326  13.177  0.00  0.00    -0.388 OA
HETATM   62  H   UNK N   1      35.338  14.967  13.776  0.00  0.00     0.210 HD
ENDBRANCH  35  61
BRANCH  19  63
HETATM   63  O   UNK N   1      34.521   8.587   5.593  0.00  0.00    -0.359 OA
HETATM   64  H   UNK N   1      33.560   8.452   5.605  0.00  0.00     0.213 HD
ENDBRANCH  19  63
BRANCH  36  65
HETATM   65  O   UNK N   1      35.183  10.715  13.289  0.00  0.00    -0.380 OA
HETATM   66  C   UNK N   1      34.056  10.018  12.839  0.00  0.00     0.202 C 
ENDBRANCH  36  65
BRANCH  25  67
HETATM   67  O   UNK N   1      34.986   6.708   9.661  0.00  0.00    -0.386 OA
HETATM   68  C   UNK N   1      33.873   7.423   9.208  0.00  0.00     0.202 C 
ENDBRANCH  25  67
TORSDOF 9
ENDMDL
MODEL 3
REMARK VINA RESULT:      -8.9      3.814      7.545
REMARK  9 active torsions:
REMARK  status: ('A' for Active; 'I' for Inactive)
REMARK    1  A    between atoms: C_13  and  C_18 
REMARK    2  A    between atoms: C_16  and  C_21 
REMARK    3  A    between atoms: C_18  and  C_16 
REMARK    4  A    between atoms: C_23  and  O_61 
REMARK    5  A    between atoms: C_24  and  O_62 
REMARK    6  A    between atoms: C_28  and  O_64 
REMARK    7  A    between atoms: C_34  and  O_35 
REMARK    8  A    between atoms: C_46  and  O_49 
REMARK    9  A    between atoms: C_47  and  O_48 
ROOT
HETATM    1  C   UNK N   1      34.365  13.379   7.673  0.00  0.00     0.035 C 
HETATM    2  C   UNK N   1      33.895  14.468   6.711  0.00  0.00     0.187 C 
HETATM    3  C   UNK N   1      35.018  13.983   8.934  0.00  0.00     0.004 C 
HETATM    4  N   UNK N   1      33.229  15.528   7.483  0.00  0.00    -0.331 N 
HETATM    5  C   UNK N   1      35.326  15.485   8.802  0.00  0.00     0.020 C 
HETATM    6  C   UNK N   1      34.067  16.278   8.406  0.00  0.00     0.127 C 
HETATM    7  C   UNK N   1      33.176  13.972   5.481  0.00  0.00     0.282 C 
HETATM    8  O   UNK N   1      32.873  14.776   4.606  0.00  0.00    -0.263 OA
HETATM    9  O   UNK N   1      31.154  15.021   6.776  0.00  0.00    -0.264 OA
HETATM   10  C   UNK N   1      31.879  15.793   7.377  0.00  0.00     0.296 C 
HETATM   11  C   UNK N   1      31.252  17.040   7.930  0.00  0.00     0.278 C 
HETATM   12  O   UNK N   1      31.921  17.866   8.531  0.00  0.00    -0.281 OA
HETATM   13  C   UNK N   1      32.877  12.087   4.032  0.00  0.00     0.142 C 
HETATM   14  C   UNK N   1      31.445  12.036   3.490  0.00  0.00     0.112 C 
HETATM   15  O   UNK N   1      32.944  12.649   5.298  0.00  0.00    -0.314 OA
HETATM   16  O   UNK N   1      30.538  10.985   5.408  0.00  0.00    -0.297 OA
HETATM   17  C   UNK N   1      30.401  11.842   4.550  0.00  0.00     0.136 C 
HETATM   18  O   UNK N   1      29.703  17.143   6.157  0.00  0.00    -0.343 OA
HETATM   19  C   UNK N   1      29.801  17.340   7.570  0.00  0.00     0.238 C 
HETATM   20  C   UNK N   1      28.441  17.456   5.585  0.00  0.00     0.128 C 
HETATM   21  C   UNK N   1      28.030  18.894   5.898  0.00  0.00     0.033 C 
HETATM   22  C   UNK N   1      29.405  18.794   7.940  0.00  0.00     0.053 C 
HETATM   23  C   UNK N   1      28.026  19.123   7.398  0.00  0.00     0.013 C 
HETATM   24  C   UNK N   1      27.365  16.431   5.959  0.00  0.00     0.068 C 
HETATM   25  C   UNK N   1      26.010  16.668   5.270  0.00  0.00     0.151 C 
HETATM   26  C   UNK N   1      27.052  15.379   3.238  0.00  0.00     0.046 C 
HETATM   27  C   UNK N   1      25.871  15.984   3.908  0.00  0.00    -0.055 C 
HETATM   28  C   UNK N   1      24.700  15.889   3.256  0.00  0.00     0.005 C 
HETATM   29  C   UNK N   1      29.433  19.062   9.437  0.00  0.00     0.016 C 
HETATM   30  C   UNK N   1      29.157  12.659   4.531  0.00  0.00     0.074 C 
HETATM   31  C   UNK N   1      29.449  14.151   4.506  0.00  0.00     0.022 C 
HETATM   32  C   UNK N   1      28.246  12.155   3.448  0.00  0.00    -0.010 C 
HETATM   33  C   UNK N   1      28.306  12.426   2.132  0.00  0.00    -0.056 C 
HETATM   34  C   UNK N   1      29.324  13.357   1.554  0.00  0.00     0.046 C 
HETATM   35  C   UNK N   1      27.419  11.670   1.188  0.00  0.00     0.183 C 
HETATM   36  C   UNK N   1      25.992  11.452   1.717  0.00  0.00     0.223 C 
HETATM   37  C   UNK N   1      25.133  10.755   0.685  0.00  0.00     0.162 C 
HETATM   38  C   UNK N   1      23.434  16.438   3.763  0.00  0.00     0.000 C 
HETATM   39  C   UNK N   1      22.215  16.071   3.331  0.00  0.00    -0.000 C 
HETATM   40  C   UNK N   1      23.968  11.464   0.035  0.00  0.00     0.055 C 
HETATM   41  C   UNK N   1      22.916  11.871   1.053  0.00  0.00     0.020 C 
HETATM   42  O   UNK N   1      25.416   9.612   0.352  0.00  0.00    -0.295 OA
HETATM   43  C   UNK N   1      21.874  15.035   2.324  0.00  0.00    -0.004 C 
HETATM   44  C   UNK N   1      22.759  14.274   1.667  0.00  0.00    -0.022 C 
HETATM   45  C   UNK N   1      22.340  13.220   0.666  0.00  0.00     0.005 C 
HETATM   46  C   UNK N   1      23.312  10.636  -1.063  0.00  0.00     0.018 C 
HETATM   47  C   UNK N   1      20.834  13.095   0.488  0.00  0.00     0.014 C 
ENDROOT
BRANCH  13  48
HETATM   48  C   UNK N   1      33.585  10.725   4.006  0.00  0.00     0.012 C 
HETATM   49  C   UNK N   1      34.059  10.267   2.638  0.00  0.00     0.012 C 
BRANCH  48  50
HETATM   50  C   UNK N   1      34.522  10.355   5.154  0.00  0.00     0.011 C 
BRANCH  50  51
HETATM   51  C   UNK N   1      33.818   9.288   5.992  0.00  0.00    -0.012 C 
HETATM   52  C   UNK N   1      32.679   8.615   5.227  0.00  0.00     0.039 C 
HETATM   53  C   UNK N   1      32.034   7.522   6.100  0.00  0.00     0.150 C 
HETATM   54  C   UNK N   1      31.544   8.091   7.443  0.00  0.00     0.147 C 
HETATM   55  C   UNK N   1      32.660   8.842   8.170  0.00  0.00     0.035 C 
HETATM   56  C   UNK N   1      33.263   9.918   7.272  0.00  0.00     0.007 C 
BRANCH  53  57
HETATM   57  O   UNK N   1      32.941   6.482   6.321  0.00  0.00    -0.388 OA
HETATM   58  C   UNK N   1      32.161   5.409   6.752  0.00  0.00     0.202 C 
ENDBRANCH  53  57
BRANCH  54  59
HETATM   59  O   UNK N   1      30.453   8.937   7.243  0.00  0.00    -0.393 OA
HETATM   60  H   UNK N   1      29.983   9.580   7.797  0.00  0.00     0.210 HD
ENDBRANCH  54  59
ENDBRANCH  50  51
ENDBRANCH  48  50
ENDBRANCH  13  48
BRANCH  35  61
HETATM   61  O   UNK N   1      28.016  10.438   0.910  0.00  0.00    -0.388 OA
HETATM   62  H   UNK N   1      28.957  10.277   1.079  0.00  0.00     0.210 HD
ENDBRANCH  35  61
BRANCH  19  63
HETATM   63  O   UNK N   1      28.987  16.424   8.247  0.00  0.00    -0.359 OA
HETATM   64  H   UNK N   1      28.732  15.655   8.782  0.00  0.00     0.213 HD
ENDBRANCH  19  63
BRANCH  36  65
HETATM   65  O   UNK N   1      25.435  12.668   2.126  0.00  0.00    -0.380 OA
HETATM   66  C   UNK N   1      24.978  12.428   3.426  0.00  0.00     0.202 C 
ENDBRANCH  36  65
BRANCH  25  67
HETATM   67  O   UNK N   1      25.005  16.260   6.148  0.00  0.00    -0.386 OA
HETATM   68  C   UNK N   1      25.552  15.158   6.813  0.00  0.00     0.202 C 
ENDBRANCH  25  67
TORSDOF 9
ENDMDL
MODEL 4
REMARK VINA RESULT:      -8.9      3.162     11.380
REMARK  9 active torsions:
REMARK  status: ('A' for Active; 'I' for Inactive)
REMARK    1  A    between atoms: C_13  and  C_18 
REMARK    2  A    between atoms: C_16  and  C_21 
REMARK    3  A    between atoms: C_18  and  C_16 
REMARK    4  A    between atoms: C_23  and  O_61 
REMARK    5  A    between atoms: C_24  and  O_62 
REMARK    6  A    between atoms: C_28  and  O_64 
REMARK    7  A    between atoms: C_34  and  O_35 
REMARK    8  A    between atoms: C_46  and  O_49 
REMARK    9  A    between atoms: C_47  and  O_48 
ROOT
HETATM    1  C   UNK N   1      21.776  13.375   2.917  0.00  0.00     0.035 C 
HETATM    2  C   UNK N   1      22.886  13.624   1.897  0.00  0.00     0.187 C 
HETATM    3  C   UNK N   1      20.773  12.318   2.411  0.00  0.00     0.004 C 
HETATM    4  N   UNK N   1      23.342  12.331   1.368  0.00  0.00    -0.331 N 
HETATM    5  C   UNK N   1      20.930  11.992   0.915  0.00  0.00     0.020 C 
HETATM    6  C   UNK N   1      22.376  11.575   0.586  0.00  0.00     0.127 C 
HETATM    7  C   UNK N   1      23.957  14.592   2.337  0.00  0.00     0.282 C 
HETATM    8  O   UNK N   1      24.816  14.933   1.532  0.00  0.00    -0.263 OA
HETATM    9  O   UNK N   1      25.318  12.356   2.444  0.00  0.00    -0.264 OA
HETATM   10  C   UNK N   1      24.604  11.826   1.613  0.00  0.00     0.296 C 
HETATM   11  C   UNK N   1      25.175  10.666   0.851  0.00  0.00     0.278 C 
HETATM   12  O   UNK N   1      24.520  10.095  -0.008  0.00  0.00    -0.281 OA
HETATM   13  C   UNK N   1      24.442  16.412   3.819  0.00  0.00     0.142 C 
HETATM   14  C   UNK N   1      25.902  16.366   4.281  0.00  0.00     0.112 C 
HETATM   15  O   UNK N   1      23.925  15.149   3.573  0.00  0.00    -0.314 OA
HETATM   16  O   UNK N   1      25.523  14.779   5.998  0.00  0.00    -0.297 OA
HETATM   17  C   UNK N   1      26.246  15.147   5.086  0.00  0.00     0.136 C 
HETATM   18  O   UNK N   1      27.348  11.571   0.942  0.00  0.00    -0.343 OA
HETATM   19  C   UNK N   1      26.649  10.328   1.045  0.00  0.00     0.238 C 
HETATM   20  C   UNK N   1      28.764  11.481   1.006  0.00  0.00     0.128 C 
HETATM   21  C   UNK N   1      29.309  10.533  -0.062  0.00  0.00     0.033 C 
HETATM   22  C   UNK N   1      27.158   9.333  -0.031  0.00  0.00     0.053 C 
HETATM   23  C   UNK N   1      28.663   9.167   0.070  0.00  0.00     0.013 C 
HETATM   24  C   UNK N   1      29.260  11.141   2.415  0.00  0.00     0.068 C 
HETATM   25  C   UNK N   1      30.792  11.144   2.557  0.00  0.00     0.151 C 
HETATM   26  C   UNK N   1      30.552  13.736   2.868  0.00  0.00     0.046 C 
HETATM   27  C   UNK N   1      31.386  12.506   2.918  0.00  0.00    -0.055 C 
HETATM   28  C   UNK N   1      32.665  12.667   3.297  0.00  0.00     0.005 C 
HETATM   29  C   UNK N   1      26.496   7.965   0.054  0.00  0.00     0.016 C 
HETATM   30  C   UNK N   1      27.508  14.406   4.813  0.00  0.00     0.074 C 
HETATM   31  C   UNK N   1      27.626  13.987   3.357  0.00  0.00     0.022 C 
HETATM   32  C   UNK N   1      28.671  15.179   5.366  0.00  0.00    -0.010 C 
HETATM   33  C   UNK N   1      29.301  16.226   4.803  0.00  0.00    -0.056 C 
HETATM   34  C   UNK N   1      28.928  16.754   3.455  0.00  0.00     0.046 C 
HETATM   35  C   UNK N   1      30.319  16.984   5.605  0.00  0.00     0.183 C 
HETATM   36  C   UNK N   1      31.232  16.086   6.456  0.00  0.00     0.223 C 
HETATM   37  C   UNK N   1      32.281  16.907   7.174  0.00  0.00     0.162 C 
HETATM   38  C   UNK N   1      33.635  11.566   3.392  0.00  0.00     0.000 C 
HETATM   39  C   UNK N   1      34.787  11.620   4.083  0.00  0.00    -0.000 C 
HETATM   40  C   UNK N   1      33.746  16.773   6.827  0.00  0.00     0.055 C 
HETATM   41  C   UNK N   1      34.259  15.366   7.084  0.00  0.00     0.020 C 
HETATM   42  O   UNK N   1      31.924  17.715   8.020  0.00  0.00    -0.295 OA
HETATM   43  C   UNK N   1      35.302  12.736   4.916  0.00  0.00    -0.004 C 
HETATM   44  C   UNK N   1      34.677  13.902   5.120  0.00  0.00    -0.022 C 
HETATM   45  C   UNK N   1      35.252  14.990   6.001  0.00  0.00     0.005 C 
HETATM   46  C   UNK N   1      34.621  17.773   7.571  0.00  0.00     0.018 C 
HETATM   47  C   UNK N   1      36.586  14.633   6.639  0.00  0.00     0.014 C 
ENDROOT
BRANCH  13  48
HETATM   48  C   UNK N   1      23.528  17.195   4.772  0.00  0.00     0.012 C 
HETATM   49  C   UNK N   1      23.926  18.640   5.010  0.00  0.00     0.012 C 
BRANCH  48  50
HETATM   50  C   UNK N   1      22.020  16.957   4.714  0.00  0.00     0.011 C 
BRANCH  50  51
HETATM   51  C   UNK N   1      21.486  17.708   3.496  0.00  0.00    -0.012 C 
HETATM   52  C   UNK N   1      20.780  19.008   3.883  0.00  0.00     0.039 C 
HETATM   53  C   UNK N   1      20.301  19.743   2.618  0.00  0.00     0.150 C 
HETATM   54  C   UNK N   1      19.391  18.849   1.759  0.00  0.00     0.147 C 
HETATM   55  C   UNK N   1      20.061  17.512   1.442  0.00  0.00     0.035 C 
HETATM   56  C   UNK N   1      20.511  16.816   2.724  0.00  0.00     0.007 C 
BRANCH  53  57
HETATM   57  O   UNK N   1      21.398  20.177   1.867  0.00  0.00    -0.388 OA
HETATM   58  C   UNK N   1      20.846  20.899   0.808  0.00  0.00     0.202 C 
ENDBRANCH  53  57
BRANCH  54  59
HETATM   59  O   UNK N   1      18.174  18.631   2.405  0.00  0.00    -0.393 OA
HETATM   60  H   UNK N   1      17.919  18.417   3.316  0.00  0.00     0.210 HD
ENDBRANCH  54  59
ENDBRANCH  50  51
ENDBRANCH  48  50
ENDBRANCH  13  48
BRANCH  35  61
HETATM   61  O   UNK N   1      29.648  17.894   6.426  0.00  0.00    -0.388 OA
HETATM   62  H   UNK N   1      29.361  18.760   6.100  0.00  0.00     0.210 HD
ENDBRANCH  35  61
BRANCH  19  63
HETATM   63  O   UNK N   1      26.805   9.786   2.327  0.00  0.00    -0.359 OA
HETATM   64  H   UNK N   1      26.581   9.494   3.225  0.00  0.00     0.213 HD
ENDBRANCH  19  63
BRANCH  36  65
HETATM   65  O   UNK N   1      31.804  15.085   5.663  0.00  0.00    -0.380 OA
HETATM   66  C   UNK N   1      31.591  13.902   6.379  0.00  0.00     0.202 C 
ENDBRANCH  36  65
BRANCH  25  67
HETATM   67  O   UNK N   1      31.138  10.173   3.498  0.00  0.00    -0.386 OA
HETATM   68  C   UNK N   1      30.105  10.220   4.439  0.00  0.00     0.202 C 
ENDBRANCH  25  67
TORSDOF 9
ENDMDL
MODEL 5
REMARK VINA RESULT:      -8.7      3.223      5.248
REMARK  9 active torsions:
REMARK  status: ('A' for Active; 'I' for Inactive)
REMARK    1  A    between atoms: C_13  and  C_18 
REMARK    2  A    between atoms: C_16  and  C_21 
REMARK    3  A    between atoms: C_18  and  C_16 
REMARK    4  A    between atoms: C_23  and  O_61 
REMARK    5  A    between atoms: C_24  and  O_62 
REMARK    6  A    between atoms: C_28  and  O_64 
REMARK    7  A    between atoms: C_34  and  O_35 
REMARK    8  A    between atoms: C_46  and  O_49 
REMARK    9  A    between atoms: C_47  and  O_48 
ROOT
HETATM    1  C   UNK N   1      28.174  19.158   6.345  0.00  0.00     0.035 C 
HETATM    2  C   UNK N   1      27.785  18.830   4.905  0.00  0.00     0.187 C 
HETATM    3  C   UNK N   1      27.252  20.239   6.946  0.00  0.00     0.004 C 
HETATM    4  N   UNK N   1      26.322  18.716   4.823  0.00  0.00    -0.331 N 
HETATM    5  C   UNK N   1      26.378  20.949   5.896  0.00  0.00     0.020 C 
HETATM    6  C   UNK N   1      25.564  19.933   5.072  0.00  0.00     0.127 C 
HETATM    7  C   UNK N   1      28.587  17.727   4.258  0.00  0.00     0.282 C 
HETATM    8  O   UNK N   1      28.414  17.486   3.069  0.00  0.00    -0.263 OA
HETATM    9  O   UNK N   1      26.304  16.480   4.572  0.00  0.00    -0.264 OA
HETATM   10  C   UNK N   1      25.678  17.524   4.557  0.00  0.00     0.296 C 
HETATM   11  C   UNK N   1      24.225  17.452   4.187  0.00  0.00     0.278 C 
HETATM   12  O   UNK N   1      23.539  18.461   4.137  0.00  0.00    -0.281 OA
HETATM   13  C   UNK N   1      30.668  16.540   4.327  0.00  0.00     0.142 C 
HETATM   14  C   UNK N   1      30.475  15.075   3.923  0.00  0.00     0.112 C 
HETATM   15  O   UNK N   1      29.548  17.068   4.952  0.00  0.00    -0.314 OA
HETATM   16  O   UNK N   1      29.747  14.367   6.063  0.00  0.00    -0.297 OA
HETATM   17  C   UNK N   1      29.590  14.300   4.854  0.00  0.00     0.136 C 
HETATM   18  O   UNK N   1      24.602  15.638   2.732  0.00  0.00    -0.343 OA
HETATM   19  C   UNK N   1      23.667  16.118   3.702  0.00  0.00     0.238 C 
HETATM   20  C   UNK N   1      24.233  14.433   2.076  0.00  0.00     0.128 C 
HETATM   21  C   UNK N   1      22.867  14.562   1.403  0.00  0.00     0.033 C 
HETATM   22  C   UNK N   1      22.263  16.281   3.063  0.00  0.00     0.053 C 
HETATM   23  C   UNK N   1      21.820  14.979   2.418  0.00  0.00     0.013 C 
HETATM   24  C   UNK N   1      24.331  13.216   3.002  0.00  0.00     0.068 C 
HETATM   25  C   UNK N   1      24.049  11.875   2.303  0.00  0.00     0.151 C 
HETATM   26  C   UNK N   1      26.562  11.971   1.559  0.00  0.00     0.046 C 
HETATM   27  C   UNK N   1      25.284  11.221   1.681  0.00  0.00    -0.055 C 
HETATM   28  C   UNK N   1      25.288   9.957   1.222  0.00  0.00     0.005 C 
HETATM   29  C   UNK N   1      21.201  16.737   4.052  0.00  0.00     0.016 C 
HETATM   30  C   UNK N   1      28.543  13.394   4.307  0.00  0.00     0.074 C 
HETATM   31  C   UNK N   1      27.607  14.110   3.347  0.00  0.00     0.022 C 
HETATM   32  C   UNK N   1      29.190  12.146   3.778  0.00  0.00    -0.010 C 
HETATM   33  C   UNK N   1      29.795  11.976   2.588  0.00  0.00    -0.056 C 
HETATM   34  C   UNK N   1      29.863  13.063   1.563  0.00  0.00     0.046 C 
HETATM   35  C   UNK N   1      30.550  10.706   2.326  0.00  0.00     0.183 C 
HETATM   36  C   UNK N   1      29.847   9.446   2.857  0.00  0.00     0.223 C 
HETATM   37  C   UNK N   1      30.623   8.199   2.489  0.00  0.00     0.162 C 
HETATM   38  C   UNK N   1      24.114   9.073   1.251  0.00  0.00     0.000 C 
HETATM   39  C   UNK N   1      24.163   7.735   1.136  0.00  0.00    -0.000 C 
HETATM   40  C   UNK N   1      30.055   7.186   1.523  0.00  0.00     0.055 C 
HETATM   41  C   UNK N   1      28.763   6.576   2.041  0.00  0.00     0.020 C 
HETATM   42  O   UNK N   1      31.741   8.036   2.959  0.00  0.00    -0.295 OA
HETATM   43  C   UNK N   1      25.363   6.870   1.008  0.00  0.00    -0.004 C 
HETATM   44  C   UNK N   1      26.630   7.303   0.992  0.00  0.00    -0.022 C 
HETATM   45  C   UNK N   1      27.810   6.363   0.880  0.00  0.00     0.005 C 
HETATM   46  C   UNK N   1      31.039   6.073   1.190  0.00  0.00     0.018 C 
HETATM   47  C   UNK N   1      27.427   4.892   0.804  0.00  0.00     0.014 C 
ENDROOT
BRANCH  13  48
HETATM   48  C   UNK N   1      31.924  16.775   5.178  0.00  0.00     0.012 C 
HETATM   49  C   UNK N   1      33.076  17.455   4.460  0.00  0.00     0.012 C 
BRANCH  48  50
HETATM   50  C   UNK N   1      31.762  17.188   6.640  0.00  0.00     0.011 C 
BRANCH  50  51
HETATM   51  C   UNK N   1      32.908  16.550   7.424  0.00  0.00    -0.012 C 
HETATM   52  C   UNK N   1      32.600  15.108   7.825  0.00  0.00     0.039 C 
HETATM   53  C   UNK N   1      33.802  14.502   8.573  0.00  0.00     0.150 C 
HETATM   54  C   UNK N   1      34.189  15.350   9.796  0.00  0.00     0.147 C 
HETATM   55  C   UNK N   1      34.413  16.813   9.412  0.00  0.00     0.035 C 
HETATM   56  C   UNK N   1      33.195  17.373   8.683  0.00  0.00     0.007 C 
BRANCH  53  57
HETATM   57  O   UNK N   1      34.895  14.376   7.709  0.00  0.00    -0.388 OA
HETATM   58  C   UNK N   1      35.779  13.522   8.369  0.00  0.00     0.202 C 
ENDBRANCH  53  57
BRANCH  54  59
HETATM   59  O   UNK N   1      33.203  15.261  10.780  0.00  0.00    -0.393 OA
HETATM   60  H   UNK N   1      32.935  14.574  11.410  0.00  0.00     0.210 HD
ENDBRANCH  54  59
ENDBRANCH  50  51
ENDBRANCH  48  50
ENDBRANCH  13  48
BRANCH  35  61
HETATM   61  O   UNK N   1      31.820  10.820   2.898  0.00  0.00    -0.388 OA
HETATM   62  H   UNK N   1      31.990  11.404   3.652  0.00  0.00     0.210 HD
ENDBRANCH  35  61
BRANCH  19  63
HETATM   63  O   UNK N   1      23.610  15.247   4.797  0.00  0.00    -0.359 OA
HETATM   64  H   UNK N   1      23.304  14.528   5.372  0.00  0.00     0.213 HD
ENDBRANCH  19  63
BRANCH  36  65
HETATM   65  O   UNK N   1      28.528   9.395   2.396  0.00  0.00    -0.380 OA
HETATM   66  C   UNK N   1      27.759   9.200   3.548  0.00  0.00     0.202 C 
ENDBRANCH  36  65
BRANCH  25  67
HETATM   67  O   UNK N   1      23.438  11.028   3.229  0.00  0.00    -0.386 OA
HETATM   68  C   UNK N   1      23.978  11.413   4.460  0.00  0.00     0.202 C 
ENDBRANCH  25  67
TORSDOF 9
ENDMDL
MODEL 6
REMARK VINA RESULT:      -8.6      3.326     11.252
REMARK  9 active torsions:
REMARK  status: ('A' for Active; 'I' for Inactive)
REMARK    1  A    between atoms: C_13  and  C_18 
REMARK    2  A    between atoms: C_16  and  C_21 
REMARK    3  A    between atoms: C_18  and  C_16 
REMARK    4  A    between atoms: C_23  and  O_61 
REMARK    5  A    between atoms: C_24  and  O_62 
REMARK    6  A    between atoms: C_28  and  O_64 
REMARK    7  A    between atoms: C_34  and  O_35 
REMARK    8  A    between atoms: C_46  and  O_49 
REMARK    9  A    between atoms: C_47  and  O_48 
ROOT
HETATM    1  C   UNK N   1      21.727  13.329   2.920  0.00  0.00     0.035 C 
HETATM    2  C   UNK N   1      22.834  13.587   1.900  0.00  0.00     0.187 C 
HETATM    3  C   UNK N   1      20.734  12.261   2.416  0.00  0.00     0.004 C 
HETATM    4  N   UNK N   1      23.304  12.298   1.373  0.00  0.00    -0.331 N 
HETATM    5  C   UNK N   1      20.895  11.935   0.920  0.00  0.00     0.020 C 
HETATM    6  C   UNK N   1      22.345  11.532   0.592  0.00  0.00     0.127 C 
HETATM    7  C   UNK N   1      23.895  14.567   2.339  0.00  0.00     0.282 C 
HETATM    8  O   UNK N   1      24.751  14.915   1.533  0.00  0.00    -0.263 OA
HETATM    9  O   UNK N   1      25.279  12.345   2.450  0.00  0.00    -0.264 OA
HETATM   10  C   UNK N   1      24.570  11.806   1.619  0.00  0.00     0.296 C 
HETATM   11  C   UNK N   1      25.153  10.650   0.859  0.00  0.00     0.278 C 
HETATM   12  O   UNK N   1      24.504  10.072   0.001  0.00  0.00    -0.281 OA
HETATM   13  C   UNK N   1      24.362  16.393   3.818  0.00  0.00     0.142 C 
HETATM   14  C   UNK N   1      25.823  16.363   4.281  0.00  0.00     0.112 C 
HETATM   15  O   UNK N   1      23.858  15.125   3.574  0.00  0.00    -0.314 OA
HETATM   16  O   UNK N   1      25.459  14.775   6.000  0.00  0.00    -0.297 OA
HETATM   17  C   UNK N   1      26.179  15.149   5.088  0.00  0.00     0.136 C 
HETATM   18  O   UNK N   1      27.317  11.578   0.949  0.00  0.00    -0.343 OA
HETATM   19  C   UNK N   1      26.630  10.328   1.054  0.00  0.00     0.238 C 
HETATM   20  C   UNK N   1      28.734  11.501   1.014  0.00  0.00     0.128 C 
HETATM   21  C   UNK N   1      29.289  10.557  -0.053  0.00  0.00     0.033 C 
HETATM   22  C   UNK N   1      27.149   9.336  -0.020  0.00  0.00     0.053 C 
HETATM   23  C   UNK N   1      28.656   9.185   0.081  0.00  0.00     0.013 C 
HETATM   24  C   UNK N   1      29.233  11.168   2.424  0.00  0.00     0.068 C 
HETATM   25  C   UNK N   1      30.764  11.186   2.566  0.00  0.00     0.151 C 
HETATM   26  C   UNK N   1      30.499  13.777   2.873  0.00  0.00     0.046 C 
HETATM   27  C   UNK N   1      31.345  12.555   2.925  0.00  0.00    -0.055 C 
HETATM   28  C   UNK N   1      32.622  12.729   3.304  0.00  0.00     0.005 C 
HETATM   29  C   UNK N   1      26.501   7.962   0.067  0.00  0.00     0.016 C 
HETATM   30  C   UNK N   1      27.447  14.419   4.816  0.00  0.00     0.074 C 
HETATM   31  C   UNK N   1      27.570  13.999   3.361  0.00  0.00     0.022 C 
HETATM   32  C   UNK N   1      28.602  15.205   5.368  0.00  0.00    -0.010 C 
HETATM   33  C   UNK N   1      29.223  16.258   4.804  0.00  0.00    -0.056 C 
HETATM   34  C   UNK N   1      28.845  16.779   3.455  0.00  0.00     0.046 C 
HETATM   35  C   UNK N   1      30.233  17.026   5.605  0.00  0.00     0.183 C 
HETATM   36  C   UNK N   1      31.155  16.139   6.457  0.00  0.00     0.223 C 
HETATM   37  C   UNK N   1      32.195  16.971   7.174  0.00  0.00     0.162 C 
HETATM   38  C   UNK N   1      33.603  11.638   3.401  0.00  0.00     0.000 C 
HETATM   39  C   UNK N   1      34.754  11.705   4.092  0.00  0.00    -0.000 C 
HETATM   40  C   UNK N   1      33.661  16.851   6.828  0.00  0.00     0.055 C 
HETATM   41  C   UNK N   1      34.188  15.450   7.088  0.00  0.00     0.020 C 
HETATM   42  O   UNK N   1      31.830  17.777   8.020  0.00  0.00    -0.295 OA
HETATM   43  C   UNK N   1      35.258  12.827   4.924  0.00  0.00    -0.004 C 
HETATM   44  C   UNK N   1      34.621  13.987   5.126  0.00  0.00    -0.022 C 
HETATM   45  C   UNK N   1      35.185  15.082   6.005  0.00  0.00     0.005 C 
HETATM   46  C   UNK N   1      34.526  17.861   7.571  0.00  0.00     0.018 C 
HETATM   47  C   UNK N   1      36.523  14.739   6.644  0.00  0.00     0.014 C 
ENDROOT
BRANCH  13  48
HETATM   48  C   UNK N   1      23.440  17.169   4.770  0.00  0.00     0.012 C 
HETATM   49  C   UNK N   1      23.763  18.644   4.926  0.00  0.00     0.012 C 
BRANCH  48  50
HETATM   50  C   UNK N   1      21.947  16.845   4.782  0.00  0.00     0.011 C 
BRANCH  50  51
HETATM   51  C   UNK N   1      21.557  16.544   6.228  0.00  0.00    -0.012 C 
HETATM   52  C   UNK N   1      20.805  15.220   6.359  0.00  0.00     0.039 C 
HETATM   53  C   UNK N   1      20.475  14.946   7.838  0.00  0.00     0.150 C 
HETATM   54  C   UNK N   1      19.677  16.104   8.460  0.00  0.00     0.147 C 
HETATM   55  C   UNK N   1      20.385  17.443   8.254  0.00  0.00     0.035 C 
HETATM   56  C   UNK N   1      20.684  17.676   6.776  0.00  0.00     0.007 C 
BRANCH  53  57
HETATM   57  O   UNK N   1      21.651  14.728   8.563  0.00  0.00    -0.388 OA
HETATM   58  C   UNK N   1      21.244  14.056   9.716  0.00  0.00     0.202 C 
ENDBRANCH  53  57
BRANCH  54  59
HETATM   59  O   UNK N   1      18.393  16.155   7.916  0.00  0.00    -0.393 OA
HETATM   60  H   UNK N   1      17.980  16.664   7.201  0.00  0.00     0.210 HD
ENDBRANCH  54  59
ENDBRANCH  50  51
ENDBRANCH  48  50
ENDBRANCH  13  48
BRANCH  35  61
HETATM   61  O   UNK N   1      29.553  17.931   6.424  0.00  0.00    -0.388 OA
HETATM   62  H   UNK N   1      29.933  18.253   7.255  0.00  0.00     0.210 HD
ENDBRANCH  35  61
BRANCH  19  63
HETATM   63  O   UNK N   1      26.791   9.789   2.337  0.00  0.00    -0.359 OA
HETATM   64  H   UNK N   1      27.131   9.672   3.238  0.00  0.00     0.213 HD
ENDBRANCH  19  63
BRANCH  36  65
HETATM   65  O   UNK N   1      31.736  15.142   5.666  0.00  0.00    -0.380 OA
HETATM   66  C   UNK N   1      31.542  13.960   6.388  0.00  0.00     0.202 C 
ENDBRANCH  36  65
BRANCH  25  67
HETATM   67  O   UNK N   1      31.119  10.220   3.508  0.00  0.00    -0.386 OA
HETATM   68  C   UNK N   1      30.067  10.232   4.430  0.00  0.00     0.202 C 
ENDBRANCH  25  67
TORSDOF 9
ENDMDL
MODEL 7
REMARK VINA RESULT:      -8.4      9.696     16.468
REMARK  9 active torsions:
REMARK  status: ('A' for Active; 'I' for Inactive)
REMARK    1  A    between atoms: C_13  and  C_18 
REMARK    2  A    between atoms: C_16  and  C_21 
REMARK    3  A    between atoms: C_18  and  C_16 
REMARK    4  A    between atoms: C_23  and  O_61 
REMARK    5  A    between atoms: C_24  and  O_62 
REMARK    6  A    between atoms: C_28  and  O_64 
REMARK    7  A    between atoms: C_34  and  O_35 
REMARK    8  A    between atoms: C_46  and  O_49 
REMARK    9  A    between atoms: C_47  and  O_48 
ROOT
HETATM    1  C   UNK N   1      39.177   9.398  14.281  0.00  0.00     0.035 C 
HETATM    2  C   UNK N   1      38.339   8.704  13.209  0.00  0.00     0.187 C 
HETATM    3  C   UNK N   1      40.479   8.621  14.569  0.00  0.00     0.004 C 
HETATM    4  N   UNK N   1      39.225   8.271  12.119  0.00  0.00    -0.331 N 
HETATM    5  C   UNK N   1      40.492   7.206  13.964  0.00  0.00     0.020 C 
HETATM    6  C   UNK N   1      40.203   7.246  12.451  0.00  0.00     0.127 C 
HETATM    7  C   UNK N   1      37.079   9.432  12.808  0.00  0.00     0.282 C 
HETATM    8  O   UNK N   1      36.295   8.884  12.041  0.00  0.00    -0.263 OA
HETATM    9  O   UNK N   1      38.512   9.817  10.648  0.00  0.00    -0.264 OA
HETATM   10  C   UNK N   1      39.174   8.815  10.852  0.00  0.00     0.296 C 
HETATM   11  C   UNK N   1      39.861   8.190   9.672  0.00  0.00     0.278 C 
HETATM   12  O   UNK N   1      40.528   7.175   9.800  0.00  0.00    -0.281 OA
HETATM   13  C   UNK N   1      35.454  11.042  13.521  0.00  0.00     0.142 C 
HETATM   14  C   UNK N   1      34.938  11.861  12.333  0.00  0.00     0.112 C 
HETATM   15  O   UNK N   1      36.768  10.635  13.351  0.00  0.00    -0.314 OA
HETATM   16  O   UNK N   1      36.758  13.375  12.322  0.00  0.00    -0.297 OA
HETATM   17  C   UNK N   1      35.993  12.690  11.662  0.00  0.00     0.136 C 
HETATM   18  O   UNK N   1      38.138   8.861   8.212  0.00  0.00    -0.343 OA
HETATM   19  C   UNK N   1      39.561   8.745   8.284  0.00  0.00     0.238 C 
HETATM   20  C   UNK N   1      37.625   9.283   6.956  0.00  0.00     0.128 C 
HETATM   21  C   UNK N   1      38.089   8.361   5.828  0.00  0.00     0.033 C 
HETATM   22  C   UNK N   1      40.083   7.806   7.165  0.00  0.00     0.053 C 
HETATM   23  C   UNK N   1      39.604   8.283   5.805  0.00  0.00     0.013 C 
HETATM   24  C   UNK N   1      37.915  10.761   6.677  0.00  0.00     0.068 C 
HETATM   25  C   UNK N   1      37.280  11.289   5.380  0.00  0.00     0.151 C 
HETATM   26  C   UNK N   1      35.109  11.606   6.816  0.00  0.00     0.046 C 
HETATM   27  C   UNK N   1      35.860  11.831   5.552  0.00  0.00    -0.055 C 
HETATM   28  C   UNK N   1      35.224  12.529   4.596  0.00  0.00     0.005 C 
HETATM   29  C   UNK N   1      41.599   7.677   7.145  0.00  0.00     0.016 C 
HETATM   30  C   UNK N   1      36.081  12.727  10.177  0.00  0.00     0.074 C 
HETATM   31  C   UNK N   1      36.200  11.338   9.573  0.00  0.00     0.022 C 
HETATM   32  C   UNK N   1      34.971  13.582   9.634  0.00  0.00    -0.010 C 
HETATM   33  C   UNK N   1      33.688  13.231   9.434  0.00  0.00    -0.056 C 
HETATM   34  C   UNK N   1      33.186  11.849   9.702  0.00  0.00     0.046 C 
HETATM   35  C   UNK N   1      32.690  14.289   9.063  0.00  0.00     0.183 C 
HETATM   36  C   UNK N   1      33.223  15.317   8.052  0.00  0.00     0.223 C 
HETATM   37  C   UNK N   1      32.143  16.304   7.664  0.00  0.00     0.162 C 
HETATM   38  C   UNK N   1      35.808  12.837   3.282  0.00  0.00     0.000 C 
HETATM   39  C   UNK N   1      35.366  13.800   2.456  0.00  0.00    -0.000 C 
HETATM   40  C   UNK N   1      31.590  16.340   6.259  0.00  0.00     0.055 C 
HETATM   41  C   UNK N   1      32.665  16.678   5.239  0.00  0.00     0.020 C 
HETATM   42  O   UNK N   1      31.691  17.055   8.518  0.00  0.00    -0.295 OA
HETATM   43  C   UNK N   1      34.267  14.771   2.688  0.00  0.00    -0.004 C 
HETATM   44  C   UNK N   1      33.519  14.843   3.797  0.00  0.00    -0.022 C 
HETATM   45  C   UNK N   1      32.426  15.873   3.975  0.00  0.00     0.005 C 
HETATM   46  C   UNK N   1      30.428  17.312   6.107  0.00  0.00     0.018 C 
HETATM   47  C   UNK N   1      32.266  16.821   2.795  0.00  0.00     0.014 C 
ENDROOT
BRANCH  13  48
HETATM   48  C   UNK N   1      35.278  11.753  14.871  0.00  0.00     0.012 C 
HETATM   49  C   UNK N   1      33.849  11.839  15.375  0.00  0.00     0.012 C 
BRANCH  48  50
HETATM   50  C   UNK N   1      36.321  11.535  15.965  0.00  0.00     0.011 C 
BRANCH  50  51
HETATM   51  C   UNK N   1      35.826  10.388  16.845  0.00  0.00    -0.012 C 
HETATM   52  C   UNK N   1      35.651  10.814  18.302  0.00  0.00     0.039 C 
HETATM   53  C   UNK N   1      35.112   9.635  19.133  0.00  0.00     0.150 C 
HETATM   54  C   UNK N   1      36.023   8.402  19.018  0.00  0.00     0.147 C 
HETATM   55  C   UNK N   1      36.271   8.025  17.557  0.00  0.00     0.035 C 
HETATM   56  C   UNK N   1      36.812   9.219  16.775  0.00  0.00     0.007 C 
BRANCH  53  57
HETATM   57  O   UNK N   1      33.813   9.313  18.728  0.00  0.00    -0.388 OA
HETATM   58  C   UNK N   1      33.281   8.567  19.781  0.00  0.00     0.202 C 
ENDBRANCH  53  57
BRANCH  54  59
HETATM   59  O   UNK N   1      37.239   8.634  19.662  0.00  0.00    -0.393 OA
HETATM   60  H   UNK N   1      38.139   8.289  19.557  0.00  0.00     0.210 HD
ENDBRANCH  54  59
ENDBRANCH  50  51
ENDBRANCH  48  50
ENDBRANCH  13  48
BRANCH  35  61
HETATM   61  O   UNK N   1      32.278  14.938  10.229  0.00  0.00    -0.388 OA
HETATM   62  H   UNK N   1      31.356  15.201  10.369  0.00  0.00     0.210 HD
ENDBRANCH  35  61
BRANCH  19  63
HETATM   63  O   UNK N   1      40.159  10.007   8.182  0.00  0.00    -0.359 OA
HETATM   64  H   UNK N   1      40.244  10.967   8.067  0.00  0.00     0.213 HD
ENDBRANCH  19  63
BRANCH  36  65
HETATM   65  O   UNK N   1      33.762  14.668   6.937  0.00  0.00    -0.380 OA
HETATM   66  C   UNK N   1      35.034  15.229   6.782  0.00  0.00     0.202 C 
ENDBRANCH  36  65
BRANCH  25  67
HETATM   67  O   UNK N   1      38.132  12.258   4.849  0.00  0.00    -0.386 OA
HETATM   68  C   UNK N   1      38.712  12.862   5.969  0.00  0.00     0.202 C 
ENDBRANCH  25  67
TORSDOF 9
ENDMDL
MODEL 8
REMARK VINA RESULT:      -8.4      3.830      9.807
REMARK  9 active torsions:
REMARK  status: ('A' for Active; 'I' for Inactive)
REMARK    1  A    between atoms: C_13  and  C_18 
REMARK    2  A    between atoms: C_16  and  C_21 
REMARK    3  A    between atoms: C_18  and  C_16 
REMARK    4  A    between atoms: C_23  and  O_61 
REMARK    5  A    between atoms: C_24  and  O_62 
REMARK    6  A    between atoms: C_28  and  O_64 
REMARK    7  A    between atoms: C_34  and  O_35 
REMARK    8  A    between atoms: C_46  and  O_49 
REMARK    9  A    between atoms: C_47  and  O_48 
ROOT
HETATM    1  C   UNK N   1      26.400  18.888   5.173  0.00  0.00     0.035 C 
HETATM    2  C   UNK N   1      26.868  17.702   6.014  0.00  0.00     0.187 C 
HETATM    3  C   UNK N   1      26.898  20.226   5.758  0.00  0.00     0.004 C 
HETATM    4  N   UNK N   1      28.281  17.900   6.369  0.00  0.00    -0.331 N 
HETATM    5  C   UNK N   1      27.468  20.095   7.182  0.00  0.00     0.020 C 
HETATM    6  C   UNK N   1      28.575  19.027   7.242  0.00  0.00     0.127 C 
HETATM    7  C   UNK N   1      26.490  16.344   5.475  0.00  0.00     0.282 C 
HETATM    8  O   UNK N   1      26.726  15.350   6.153  0.00  0.00    -0.263 OA
HETATM    9  O   UNK N   1      29.064  16.303   4.992  0.00  0.00    -0.264 OA
HETATM   10  C   UNK N   1      29.293  17.095   5.888  0.00  0.00     0.296 C 
HETATM   11  C   UNK N   1      30.680  17.104   6.463  0.00  0.00     0.278 C 
HETATM   12  O   UNK N   1      30.976  17.861   7.375  0.00  0.00    -0.281 OA
HETATM   13  C   UNK N   1      24.944  15.173   4.067  0.00  0.00     0.142 C 
HETATM   14  C   UNK N   1      25.626  13.990   3.372  0.00  0.00     0.112 C 
HETATM   15  O   UNK N   1      25.819  16.223   4.304  0.00  0.00    -0.314 OA
HETATM   16  O   UNK N   1      26.568  15.291   1.632  0.00  0.00    -0.297 OA
HETATM   17  C   UNK N   1      26.731  14.389   2.438  0.00  0.00     0.136 C 
HETATM   18  O   UNK N   1      30.939  14.793   6.085  0.00  0.00    -0.343 OA
HETATM   19  C   UNK N   1      31.658  16.026   6.009  0.00  0.00     0.238 C 
HETATM   20  C   UNK N   1      31.695  13.628   5.786  0.00  0.00     0.128 C 
HETATM   21  C   UNK N   1      32.928  13.520   6.682  0.00  0.00     0.033 C 
HETATM   22  C   UNK N   1      32.917  15.973   6.915  0.00  0.00     0.053 C 
HETATM   23  C   UNK N   1      33.776  14.773   6.560  0.00  0.00     0.013 C 
HETATM   24  C   UNK N   1      32.029  13.520   4.294  0.00  0.00     0.068 C 
HETATM   25  C   UNK N   1      32.749  12.218   3.907  0.00  0.00     0.151 C 
HETATM   26  C   UNK N   1      30.351  11.160   3.823  0.00  0.00     0.046 C 
HETATM   27  C   UNK N   1      31.810  11.064   3.552  0.00  0.00    -0.055 C 
HETATM   28  C   UNK N   1      32.237   9.924   2.982  0.00  0.00     0.005 C 
HETATM   29  C   UNK N   1      33.764  17.235   6.842  0.00  0.00     0.016 C 
HETATM   30  C   UNK N   1      28.021  13.647   2.450  0.00  0.00     0.074 C 
HETATM   31  C   UNK N   1      28.646  13.601   3.834  0.00  0.00     0.022 C 
HETATM   32  C   UNK N   1      27.839  12.319   1.772  0.00  0.00    -0.010 C 
HETATM   33  C   UNK N   1      27.321  11.194   2.297  0.00  0.00    -0.056 C 
HETATM   34  C   UNK N   1      26.876  11.108   3.722  0.00  0.00     0.046 C 
HETATM   35  C   UNK N   1      27.046  10.025   1.396  0.00  0.00     0.183 C 
HETATM   36  C   UNK N   1      28.144   9.779   0.347  0.00  0.00     0.223 C 
HETATM   37  C   UNK N   1      27.841   8.543  -0.471  0.00  0.00     0.162 C 
HETATM   38  C   UNK N   1      33.644   9.651   2.653  0.00  0.00     0.000 C 
HETATM   39  C   UNK N   1      34.058   8.707   1.791  0.00  0.00    -0.000 C 
HETATM   40  C   UNK N   1      28.716   7.314  -0.377  0.00  0.00     0.055 C 
HETATM   41  C   UNK N   1      30.143   7.604  -0.813  0.00  0.00     0.020 C 
HETATM   42  O   UNK N   1      26.851   8.535  -1.189  0.00  0.00    -0.295 OA
HETATM   43  C   UNK N   1      33.226   7.794   0.965  0.00  0.00    -0.004 C 
HETATM   44  C   UNK N   1      31.888   7.770   0.949  0.00  0.00    -0.022 C 
HETATM   45  C   UNK N   1      31.103   6.825   0.066  0.00  0.00     0.005 C 
HETATM   46  C   UNK N   1      28.172   6.141  -1.180  0.00  0.00     0.018 C 
HETATM   47  C   UNK N   1      31.968   5.924  -0.804  0.00  0.00     0.014 C 
ENDROOT
BRANCH  13  48
HETATM   48  C   UNK N   1      23.690  15.668   3.333  0.00  0.00     0.012 C 
HETATM   49  C   UNK N   1      23.099  14.692   2.331  0.00  0.00     0.012 C 
BRANCH  48  50
HETATM   50  C   UNK N   1      22.655  16.486   4.103  0.00  0.00     0.011 C 
BRANCH  50  51
HETATM   51  C   UNK N   1      22.397  17.763   3.304  0.00  0.00    -0.012 C 
HETATM   52  C   UNK N   1      22.829  19.016   4.066  0.00  0.00     0.039 C 
HETATM   53  C   UNK N   1      22.586  20.266   3.201  0.00  0.00     0.150 C 
HETATM   54  C   UNK N   1      21.118  20.364   2.753  0.00  0.00     0.147 C 
HETATM   55  C   UNK N   1      20.657  19.077   2.068  0.00  0.00     0.035 C 
HETATM   56  C   UNK N   1      20.908  17.868   2.963  0.00  0.00     0.007 C 
BRANCH  53  57
HETATM   57  O   UNK N   1      23.429  20.253   2.085  0.00  0.00    -0.388 OA
HETATM   58  C   UNK N   1      24.688  20.594   2.581  0.00  0.00     0.202 C 
ENDBRANCH  53  57
BRANCH  54  59
HETATM   59  O   UNK N   1      20.295  20.644   3.844  0.00  0.00    -0.393 OA
HETATM   60  H   UNK N   1      20.132  20.214   4.698  0.00  0.00     0.210 HD
ENDBRANCH  54  59
ENDBRANCH  50  51
ENDBRANCH  48  50
ENDBRANCH  13  48
BRANCH  35  61
HETATM   61  O   UNK N   1      25.820  10.233   0.762  0.00  0.00    -0.388 OA
HETATM   62  H   UNK N   1      25.574  11.097   0.396  0.00  0.00     0.210 HD
ENDBRANCH  35  61
BRANCH  19  63
HETATM   63  O   UNK N   1      32.020  16.299   4.684  0.00  0.00    -0.359 OA
HETATM   64  H   UNK N   1      32.477  16.705   3.930  0.00  0.00     0.213 HD
ENDBRANCH  19  63
BRANCH  36  65
HETATM   65  O   UNK N   1      29.397   9.705   0.964  0.00  0.00    -0.380 OA
HETATM   66  C   UNK N   1      30.194  10.610   0.255  0.00  0.00     0.202 C 
ENDBRANCH  36  65
BRANCH  25  67
HETATM   67  O   UNK N   1      33.621  12.506   2.856  0.00  0.00    -0.386 OA
HETATM   68  C   UNK N   1      33.120  13.689   2.305  0.00  0.00     0.202 C 
ENDBRANCH  25  67
TORSDOF 9
ENDMDL
MODEL 9
REMARK VINA RESULT:      -8.4      3.118      7.017
REMARK  9 active torsions:
REMARK  status: ('A' for Active; 'I' for Inactive)
REMARK    1  A    between atoms: C_13  and  C_18 
REMARK    2  A    between atoms: C_16  and  C_21 
REMARK    3  A    between atoms: C_18  and  C_16 
REMARK    4  A    between atoms: C_23  and  O_61 
REMARK    5  A    between atoms: C_24  and  O_62 
REMARK    6  A    between atoms: C_28  and  O_64 
REMARK    7  A    between atoms: C_34  and  O_35 
REMARK    8  A    between atoms: C_46  and  O_49 
REMARK    9  A    between atoms: C_47  and  O_48 
ROOT
HETATM    1  C   UNK N   1      23.169  18.340   5.434  0.00  0.00     0.035 C 
HETATM    2  C   UNK N   1      23.605  17.969   4.018  0.00  0.00     0.187 C 
HETATM    3  C   UNK N   1      21.662  18.662   5.494  0.00  0.00     0.004 C 
HETATM    4  N   UNK N   1      22.607  17.059   3.438  0.00  0.00    -0.331 N 
HETATM    5  C   UNK N   1      21.019  18.840   4.107  0.00  0.00     0.020 C 
HETATM    6  C   UNK N   1      21.281  17.614   3.212  0.00  0.00     0.127 C 
HETATM    7  C   UNK N   1      25.053  17.566   3.876  0.00  0.00     0.282 C 
HETATM    8  O   UNK N   1      25.506  17.369   2.754  0.00  0.00    -0.263 OA
HETATM    9  O   UNK N   1      23.914  15.230   3.540  0.00  0.00    -0.264 OA
HETATM   10  C   UNK N   1      22.881  15.738   3.145  0.00  0.00     0.296 C 
HETATM   11  C   UNK N   1      21.976  14.892   2.296  0.00  0.00     0.278 C 
HETATM   12  O   UNK N   1      20.931  15.340   1.852  0.00  0.00    -0.281 OA
HETATM   13  C   UNK N   1      27.228  17.755   4.862  0.00  0.00     0.142 C 
HETATM   14  C   UNK N   1      28.041  16.475   4.644  0.00  0.00     0.112 C 
HETATM   15  O   UNK N   1      25.867  17.509   4.958  0.00  0.00    -0.314 OA
HETATM   16  O   UNK N   1      27.074  15.308   6.464  0.00  0.00    -0.297 OA
HETATM   17  C   UNK N   1      27.452  15.263   5.304  0.00  0.00     0.136 C 
HETATM   18  O   UNK N   1      23.804  13.731   1.365  0.00  0.00    -0.343 OA
HETATM   19  C   UNK N   1      22.476  13.521   1.852  0.00  0.00     0.238 C 
HETATM   20  C   UNK N   1      24.438  12.586   0.813  0.00  0.00     0.128 C 
HETATM   21  C   UNK N   1      23.603  11.979  -0.315  0.00  0.00     0.033 C 
HETATM   22  C   UNK N   1      21.582  12.916   0.738  0.00  0.00     0.053 C 
HETATM   23  C   UNK N   1      22.208  11.650   0.184  0.00  0.00     0.013 C 
HETATM   24  C   UNK N   1      24.826  11.564   1.885  0.00  0.00     0.068 C 
HETATM   25  C   UNK N   1      25.616  10.360   1.345  0.00  0.00     0.151 C 
HETATM   26  C   UNK N   1      27.719  11.914   1.540  0.00  0.00     0.046 C 
HETATM   27  C   UNK N   1      27.131  10.568   1.311  0.00  0.00    -0.055 C 
HETATM   28  C   UNK N   1      28.000   9.568   1.082  0.00  0.00     0.005 C 
HETATM   29  C   UNK N   1      20.164  12.614   1.201  0.00  0.00     0.016 C 
HETATM   30  C   UNK N   1      27.375  13.974   4.564  0.00  0.00     0.074 C 
HETATM   31  C   UNK N   1      26.649  14.115   3.236  0.00  0.00     0.022 C 
HETATM   32  C   UNK N   1      28.742  13.355   4.497  0.00  0.00    -0.010 C 
HETATM   33  C   UNK N   1      29.737  13.653   3.642  0.00  0.00    -0.056 C 
HETATM   34  C   UNK N   1      29.581  14.669   2.556  0.00  0.00     0.046 C 
HETATM   35  C   UNK N   1      31.096  13.054   3.863  0.00  0.00     0.183 C 
HETATM   36  C   UNK N   1      31.061  11.579   4.293  0.00  0.00     0.223 C 
HETATM   37  C   UNK N   1      32.461  11.020   4.421  0.00  0.00     0.162 C 
HETATM   38  C   UNK N   1      27.598   8.177   0.825  0.00  0.00     0.000 C 
HETATM   39  C   UNK N   1      28.411   7.114   0.939  0.00  0.00    -0.000 C 
HETATM   40  C   UNK N   1      32.959   9.946   3.481  0.00  0.00     0.055 C 
HETATM   41  C   UNK N   1      32.133   8.675   3.590  0.00  0.00     0.020 C 
HETATM   42  O   UNK N   1      33.206  11.477   5.277  0.00  0.00    -0.295 OA
HETATM   43  C   UNK N   1      29.829   7.089   1.381  0.00  0.00    -0.004 C 
HETATM   44  C   UNK N   1      30.542   8.159   1.752  0.00  0.00    -0.022 C 
HETATM   45  C   UNK N   1      31.980   8.058   2.213  0.00  0.00     0.005 C 
HETATM   46  C   UNK N   1      34.429   9.612   3.695  0.00  0.00     0.018 C 
HETATM   47  C   UNK N   1      32.529   6.639   2.230  0.00  0.00     0.014 C 
ENDROOT
BRANCH  13  48
HETATM   48  C   UNK N   1      27.713  18.586   6.059  0.00  0.00     0.012 C 
HETATM   49  C   UNK N   1      26.930  19.859   6.324  0.00  0.00     0.012 C 
BRANCH  48  50
HETATM   50  C   UNK N   1      28.188  17.863   7.318  0.00  0.00     0.011 C 
BRANCH  50  51
HETATM   51  C   UNK N   1      29.714  17.918   7.329  0.00  0.00    -0.012 C 
HETATM   52  C   UNK N   1      30.342  16.563   7.002  0.00  0.00     0.039 C 
HETATM   53  C   UNK N   1      31.877  16.685   6.984  0.00  0.00     0.150 C 
HETATM   54  C   UNK N   1      32.412  17.242   8.314  0.00  0.00     0.147 C 
HETATM   55  C   UNK N   1      31.723  18.554   8.687  0.00  0.00     0.035 C 
HETATM   56  C   UNK N   1      30.207  18.384   8.701  0.00  0.00     0.007 C 
BRANCH  53  57
HETATM   57  O   UNK N   1      32.284  17.500   5.923  0.00  0.00    -0.388 OA
HETATM   58  C   UNK N   1      33.629  17.188   5.725  0.00  0.00     0.202 C 
ENDBRANCH  53  57
BRANCH  54  59
HETATM   59  O   UNK N   1      32.241  16.306   9.335  0.00  0.00    -0.393 OA
HETATM   60  H   UNK N   1      32.359  16.325  10.298  0.00  0.00     0.210 HD
ENDBRANCH  54  59
ENDBRANCH  50  51
ENDBRANCH  48  50
ENDBRANCH  13  48
BRANCH  35  61
HETATM   61  O   UNK N   1      31.763  13.815   4.825  0.00  0.00    -0.388 OA
HETATM   62  H   UNK N   1      32.678  13.625   5.083  0.00  0.00     0.210 HD
ENDBRANCH  35  61
BRANCH  19  63
HETATM   63  O   UNK N   1      22.495  12.682   2.974  0.00  0.00    -0.359 OA
HETATM   64  H   UNK N   1      22.194  12.234   3.780  0.00  0.00     0.213 HD
ENDBRANCH  19  63
BRANCH  36  65
HETATM   65  O   UNK N   1      30.279  10.833   3.405  0.00  0.00    -0.380 OA
HETATM   66  C   UNK N   1      29.370  10.151   4.222  0.00  0.00     0.202 C 
ENDBRANCH  36  65
BRANCH  25  67
HETATM   67  O   UNK N   1      25.273   9.243   2.109  0.00  0.00    -0.386 OA
HETATM   68  C   UNK N   1      25.023   9.760   3.384  0.00  0.00     0.202 C 
ENDBRANCH  25  67
TORSDOF 9
ENDMDL
