MODEL 1
REMARK VINA RESULT:      -6.1      0.000      0.000
REMARK WARNING: 32 MAX_TORS EXCEEDED!!!
REMARK  45 active torsions:
REMARK  status: ('A' for Active; 'I' for Inactive)
REMARK    1  A    between atoms: C_29  and  C_9 
REMARK    2  A    between atoms: C_11  and  C_10 
REMARK    3  A    between atoms: C_12  and  C_10 
REMARK    4  A    between atoms: C_29  and  C_11 
REMARK    5  A    between atoms: C_40  and  C_12 
REMARK    6  A    between atoms: C_19  and  C_13 
REMARK    7  A    between atoms: C_32  and  C_13 
REMARK    8  A    between atoms: C_20  and  C_14 
REMARK    9  A    between atoms: C_33  and  C_14 
REMARK   10  A    between atoms: C_21  and  C_15 
REMARK   11  A    between atoms: C_34  and  C_15 
REMARK   12  A    between atoms: C_22  and  C_16 
REMARK   13  A    between atoms: C_35  and  C_16 
REMARK   14  A    between atoms: C_23  and  C_17 
REMARK   15  A    between atoms: C_36  and  C_17 
REMARK   16  A    between atoms: N_53  and  C_19 
REMARK   17  A    between atoms: N_54  and  C_20 
REMARK   18  A    between atoms: N_55  and  C_21 
REMARK   19  A    between atoms: N_56  and  C_22 
REMARK   20  A    between atoms: N_57  and  C_23 
REMARK   21  A    between atoms: C_27  and  C_25 
REMARK   22  A    between atoms: C_38  and  C_25 
REMARK   23  A    between atoms: C_28  and  C_26 
REMARK   24  A    between atoms: C_39  and  C_26 
REMARK   25  A    between atoms: C_41  and  C_30 
REMARK   26  A    between atoms: C_30  and  O_80 
REMARK   27  A    between atoms: C_42  and  C_31 
REMARK   28  A    between atoms: C_31  and  O_81 
REMARK   29  A    between atoms: C_47  and  C_32 
REMARK   30  A    between atoms: C_32  and  N_60 
REMARK   31  A    between atoms: C_44  and  C_35 
REMARK   32  A    between atoms: C_35  and  N_70 
REMARK   33  A    between atoms: C_37  and  N_68 
REMARK   34  A    between atoms: C_52  and  C_42 
REMARK   35  A    between atoms: C_42  and  N_78 
REMARK   36  A    between atoms: C_43  and  O_83 
REMARK   37  A    between atoms: C_44  and  O_84 
REMARK   38  A    between atoms: O_85  and  C_45 
REMARK   39  A    between atoms: C_46  and  O_86 
REMARK   40  A    between atoms: C_47  and  O_87 
REMARK   41  A    between atoms: O_88  and  C_48 
REMARK   42  A    between atoms: C_49  and  O_89 
REMARK   43  A    between atoms: C_50  and  O_90 
REMARK   44  A    between atoms: O_91  and  C_51 
REMARK   45  A    between atoms: C_52  and  O_92 
ROOT
HETATM    1  C   UNK N   1      20.766  15.445   7.621  0.00  0.00     0.111 C 
HETATM    2  N   UNK N   1      20.121  14.523   6.991  0.00  0.00    -0.362 N 
ATOM      3  HN  UNK N   1      19.676  13.799   7.555  1.00  0.00     0.162 HD
HETATM    4  O   UNK N   1      21.288  16.506   6.980  0.00  0.00    -0.350 OA
HETATM    5  H   UNK N   1      21.599  17.308   6.609  0.00  0.00     0.219 HD
ENDROOT
BRANCH   1   6
HETATM    6  C   UNK N   1      21.029  15.274   9.080  0.00  0.00     0.083 C 
BRANCH   6   7
HETATM    7  C   UNK N   1      20.201  14.150   9.739  0.00  0.00     0.008 C 
BRANCH   7   8
HETATM    8  C   UNK N   1      20.961  12.977  10.381  0.00  0.00     0.005 C 
BRANCH   8   9
HETATM    9  C   UNK N   1      22.426  12.910   9.938  0.00  0.00    -0.019 C 
HETATM   10  C   UNK N   1      22.502  12.080   8.668  0.00  0.00     0.010 C 
BRANCH   9  11
HETATM   11  C   UNK N   1      23.292  12.270  11.017  0.00  0.00    -0.000 C 
HETATM   12  C   UNK N   1      24.773  12.304  10.672  0.00  0.00     0.005 C 
ENDBRANCH   9  11
ENDBRANCH   8   9
ENDBRANCH   7   8
ENDBRANCH   6   7
ENDBRANCH   1   6
BRANCH   2  13
HETATM   13  C   UNK N   1      19.969  14.424   5.549  0.00  0.00     0.159 C 
BRANCH  13  14
HETATM   14  C   UNK N   1      19.594  12.974   5.246  0.00  0.00     0.052 C 
BRANCH  14  15
HETATM   15  C   UNK N   1      20.756  11.994   5.409  0.00  0.00     0.113 C 
BRANCH  15  16
HETATM   16  N   UNK N   1      21.230  11.524   4.119  0.00  0.00    -0.430 N 
HETATM   17  H   UNK N   1      21.902  11.695   3.371  0.00  0.00     0.149 HD
HETATM   18  H   UNK N   1      20.674  10.709   3.861  0.00  0.00     0.149 HD
ENDBRANCH  15  16
ENDBRANCH  14  15
ENDBRANCH  13  14
BRANCH  13  19
HETATM   19  C   UNK N   1      19.146  15.540   4.873  0.00  0.00     0.135 C 
HETATM   20  N   UNK N   1      19.450  16.160   3.770  0.00  0.00    -0.358 N 
ATOM     21  HN  UNK N   1      18.894  16.993   3.574  1.00  0.00     0.162 HD
BRANCH  20  22
HETATM   22  C   UNK N   1      20.460  15.845   2.773  0.00  0.00     0.186 C 
BRANCH  22  23
HETATM   23  C   UNK N   1      20.184  14.449   2.188  0.00  0.00     0.144 C 
HETATM   24  C   UNK N   1      20.841  14.287   0.823  0.00  0.00     0.042 C 
BRANCH  23  25
HETATM   25  O   UNK N   1      18.809  14.264   2.045  0.00  0.00    -0.393 OA
HETATM   26  H   UNK N   1      18.108  14.930   1.964  0.00  0.00     0.210 HD
ENDBRANCH  23  25
ENDBRANCH  22  23
BRANCH  22  27
HETATM   27  C   UNK N   1      21.772  15.842   3.488  0.00  0.00     0.138 C 
HETATM   28  N   UNK N   1      22.492  14.767   3.445  0.00  0.00    -0.361 N 
ATOM     29  HN  UNK N   1      22.167  14.010   2.844  1.00  0.00     0.162 HD
BRANCH  28  30
HETATM   30  C   UNK N   1      23.720  14.551   4.180  0.00  0.00     0.159 C 
BRANCH  30  31
HETATM   31  C   UNK N   1      23.476  14.266   5.666  0.00  0.00     0.052 C 
BRANCH  31  32
HETATM   32  C   UNK N   1      24.403  15.036   6.615  0.00  0.00     0.113 C 
BRANCH  32  33
HETATM   33  N   UNK N   1      25.670  14.352   6.832  0.00  0.00    -0.430 N 
HETATM   34  H   UNK N   1      26.621  14.137   6.531  0.00  0.00     0.149 HD
HETATM   35  H   UNK N   1      25.548  13.840   7.706  0.00  0.00     0.149 HD
ENDBRANCH  32  33
ENDBRANCH  31  32
ENDBRANCH  30  31
BRANCH  30  36
HETATM   36  C   UNK N   1      24.474  13.442   3.504  0.00  0.00     0.135 C 
HETATM   37  N   UNK N   1      25.699  13.538   3.141  0.00  0.00    -0.361 N 
ATOM     38  HN  UNK N   1      26.032  12.749   2.587  1.00  0.00     0.162 HD
BRANCH  37  39
HETATM   39  C   UNK N   1      26.701  14.565   3.375  0.00  0.00     0.159 C 
HETATM   40  C   UNK N   1      26.755  15.593   2.244  0.00  0.00     0.053 C 
HETATM   41  C   UNK N   1      27.169  16.937   2.803  0.00  0.00     0.124 C 
HETATM   42  N   UNK N   1      25.985  17.492   3.399  0.00  0.00    -0.373 N 
HETATM   43  C   UNK N   1      25.801  17.812   4.635  0.00  0.00     0.137 C 
ATOM     44  HN  UNK N   1      25.198  17.651   2.771  1.00  0.00     0.161 HD
HETATM   45  C   UNK N   1      26.853  17.745   5.762  0.00  0.00     0.186 C 
HETATM   46  N   UNK N   1      28.037  16.953   5.384  0.00  0.00    -0.358 N 
HETATM   47  C   UNK N   1      29.125  16.566   5.984  0.00  0.00     0.135 C 
ATOM     48  HN  UNK N   1      27.993  16.629   4.417  1.00  0.00     0.162 HD
HETATM   49  C   UNK N   1      29.542  16.822   7.457  0.00  0.00     0.159 C 
HETATM   50  N   UNK N   1      30.845  16.215   7.755  0.00  0.00    -0.361 N 
HETATM   51  C   UNK N   1      31.987  16.596   7.242  0.00  0.00     0.135 C 
ATOM     52  HN  UNK N   1      30.860  15.436   8.412  1.00  0.00     0.162 HD
HETATM   53  C   UNK N   1      33.271  15.886   7.598  0.00  0.00     0.159 C 
HETATM   54  N   UNK N   1      33.252  14.640   6.871  0.00  0.00    -0.361 N 
HETATM   55  C   UNK N   1      34.245  13.827   6.738  0.00  0.00     0.135 C 
ATOM     56  HN  UNK N   1      32.375  14.378   6.422  1.00  0.00     0.162 HD
HETATM   57  C   UNK N   1      34.101  12.715   5.737  0.00  0.00     0.158 C 
HETATM   58  N   UNK N   1      33.604  13.373   4.546  0.00  0.00    -0.361 N 
HETATM   59  C   UNK N   1      32.464  13.315   3.934  0.00  0.00     0.135 C 
ATOM     60  HN  UNK N   1      34.279  13.999   4.106  1.00  0.00     0.162 HD
HETATM   61  C   UNK N   1      31.267  12.418   4.251  0.00  0.00     0.158 C 
HETATM   62  N   UNK N   1      30.805  11.933   2.967  0.00  0.00    -0.361 N 
HETATM   63  C   UNK N   1      29.635  11.463   2.701  0.00  0.00     0.135 C 
ATOM     64  HN  UNK N   1      31.473  11.968   2.196  1.00  0.00     0.162 HD
HETATM   65  C   UNK N   1      28.532  11.386   3.750  0.00  0.00     0.159 C 
HETATM   66  N   UNK N   1      27.871  12.635   4.025  0.00  0.00    -0.361 N 
HETATM   67  C   UNK N   1      27.963  13.765   3.400  0.00  0.00     0.135 C 
ATOM     68  HN  UNK N   1      27.239  12.629   4.825  1.00  0.00     0.162 HD
BRANCH  43  69
HETATM   69  O   UNK N   1      24.590  18.305   4.964  0.00  0.00    -0.348 OA
HETATM   70  H   UNK N   1      24.405  19.156   5.309  0.00  0.00     0.219 HD
ENDBRANCH  43  69
BRANCH  45  71
HETATM   71  C   UNK N   1      27.192  19.218   6.081  0.00  0.00     0.144 C 
HETATM   72  C   UNK N   1      27.765  19.919   4.856  0.00  0.00     0.042 C 
BRANCH  71  73
HETATM   73  O   UNK N   1      26.076  19.932   6.525  0.00  0.00    -0.393 OA
HETATM   74  H   UNK N   1      26.106  20.888   6.686  0.00  0.00     0.210 HD
ENDBRANCH  71  73
ENDBRANCH  45  71
BRANCH  47  75
HETATM   75  O   UNK N   1      29.968  15.794   5.261  0.00  0.00    -0.348 OA
HETATM   76  H   UNK N   1      30.532  15.097   5.532  0.00  0.00     0.219 HD
ENDBRANCH  47  75
BRANCH  49  77
HETATM   77  C   UNK N   1      29.546  18.265   7.992  0.00  0.00     0.052 C 
BRANCH  77  78
HETATM   78  C   UNK N   1      28.907  18.495   9.355  0.00  0.00     0.113 C 
BRANCH  78  79
HETATM   79  N   UNK N   1      27.463  18.440   9.240  0.00  0.00    -0.430 N 
HETATM   80  H   UNK N   1      26.865  18.660  10.037  0.00  0.00     0.149 HD
HETATM   81  H   UNK N   1      27.037  18.179   8.350  0.00  0.00     0.149 HD
ENDBRANCH  78  79
ENDBRANCH  77  78
ENDBRANCH  49  77
BRANCH  51  82
HETATM   82  O   UNK N   1      32.030  17.576   6.317  0.00  0.00    -0.348 OA
HETATM   83  H   UNK N   1      32.211  17.815   5.430  0.00  0.00     0.219 HD
ENDBRANCH  51  82
BRANCH  53  84
HETATM   84  C   UNK N   1      34.474  16.720   7.105  0.00  0.00     0.052 C 
BRANCH  84  85
HETATM   85  C   UNK N   1      34.755  17.930   7.981  0.00  0.00     0.113 C 
BRANCH  85  86
HETATM   86  N   UNK N   1      34.750  17.524   9.376  0.00  0.00    -0.430 N 
HETATM   87  H   UNK N   1      34.213  17.874  10.169  0.00  0.00     0.149 HD
HETATM   88  H   UNK N   1      35.389  16.760   9.598  0.00  0.00     0.149 HD
ENDBRANCH  85  86
ENDBRANCH  84  85
ENDBRANCH  53  84
BRANCH  55  89
HETATM   89  O   UNK N   1      35.431  14.068   7.346  0.00  0.00    -0.348 OA
HETATM   90  H   UNK N   1      35.467  14.624   8.101  0.00  0.00     0.219 HD
ENDBRANCH  55  89
BRANCH  57  91
HETATM   91  C   UNK N   1      35.468  12.108   5.387  0.00  0.00     0.037 C 
BRANCH  91  92
HETATM   92  C   UNK N   1      36.109  12.520   4.065  0.00  0.00    -0.020 C 
HETATM   93  C   UNK N   1      36.451  11.302   3.235  0.00  0.00     0.009 C 
HETATM   94  C   UNK N   1      37.304  13.442   4.219  0.00  0.00     0.009 C 
ENDBRANCH  91  92
ENDBRANCH  57  91
BRANCH  59  95
HETATM   95  O   UNK N   1      32.279  14.192   2.925  0.00  0.00    -0.348 OA
HETATM   96  H   UNK N   1      32.709  14.714   2.277  0.00  0.00     0.219 HD
ENDBRANCH  59  95
BRANCH  61  97
HETATM   97  C   UNK N   1      31.361  11.264   5.271  0.00  0.00     0.037 C 
BRANCH  97  98
HETATM   98  C   UNK N   1      31.669   9.870   4.713  0.00  0.00    -0.020 C 
HETATM   99  C   UNK N   1      30.669   8.836   5.203  0.00  0.00     0.009 C 
HETATM  100  C   UNK N   1      33.028   9.443   5.227  0.00  0.00     0.009 C 
ENDBRANCH  97  98
ENDBRANCH  61  97
BRANCH  63 101
HETATM  101  O   UNK N   1      29.391  11.047   1.444  0.00  0.00    -0.348 OA
HETATM  102  H   UNK N   1      28.817  11.303   0.748  0.00  0.00     0.219 HD
ENDBRANCH  63 101
BRANCH  65 103
HETATM  103  C   UNK N   1      27.355  10.538   3.251  0.00  0.00     0.052 C 
BRANCH 103 104
HETATM  104  C   UNK N   1      26.481   9.945   4.331  0.00  0.00     0.113 C 
BRANCH 104 105
HETATM  105  N   UNK N   1      25.156   9.713   3.783  0.00  0.00    -0.430 N 
HETATM  106  H   UNK N   1      24.230  10.119   3.648  0.00  0.00     0.149 HD
HETATM  107  H   UNK N   1      25.149   8.780   3.370  0.00  0.00     0.149 HD
ENDBRANCH 104 105
ENDBRANCH 103 104
ENDBRANCH  65 103
BRANCH  67 108
HETATM  108  O   UNK N   1      28.961  14.033   2.530  0.00  0.00    -0.348 OA
HETATM  109  H   UNK N   1      29.610  13.818   1.889  0.00  0.00     0.219 HD
ENDBRANCH  67 108
ENDBRANCH  37  39
BRANCH  36 110
HETATM  110  O   UNK N   1      23.846  12.278   3.261  0.00  0.00    -0.348 OA
HETATM  111  H   UNK N   1      23.247  12.129   2.556  0.00  0.00     0.219 HD
ENDBRANCH  36 110
ENDBRANCH  30  36
ENDBRANCH  28  30
BRANCH  27 112
HETATM  112  O   UNK N   1      22.165  16.932   4.185  0.00  0.00    -0.348 OA
HETATM  113  H   UNK N   1      22.637  17.699   4.442  0.00  0.00     0.219 HD
ENDBRANCH  27 112
ENDBRANCH  22  27
ENDBRANCH  20  22
BRANCH  19 114
HETATM  114  O   UNK N   1      18.053  15.969   5.532  0.00  0.00    -0.348 OA
HETATM  115  H   UNK N   1      17.593  16.570   6.084  0.00  0.00     0.219 HD
ENDBRANCH  19 114
ENDBRANCH  13  19
ENDBRANCH   2  13
TORSDOF 45
ENDMDL
MODEL 2
REMARK VINA RESULT:      -6.1      3.788      7.097
REMARK WARNING: 32 MAX_TORS EXCEEDED!!!
REMARK  45 active torsions:
REMARK  status: ('A' for Active; 'I' for Inactive)
REMARK    1  A    between atoms: C_29  and  C_9 
REMARK    2  A    between atoms: C_11  and  C_10 
REMARK    3  A    between atoms: C_12  and  C_10 
REMARK    4  A    between atoms: C_29  and  C_11 
REMARK    5  A    between atoms: C_40  and  C_12 
REMARK    6  A    between atoms: C_19  and  C_13 
REMARK    7  A    between atoms: C_32  and  C_13 
REMARK    8  A    between atoms: C_20  and  C_14 
REMARK    9  A    between atoms: C_33  and  C_14 
REMARK   10  A    between atoms: C_21  and  C_15 
REMARK   11  A    between atoms: C_34  and  C_15 
REMARK   12  A    between atoms: C_22  and  C_16 
REMARK   13  A    between atoms: C_35  and  C_16 
REMARK   14  A    between atoms: C_23  and  C_17 
REMARK   15  A    between atoms: C_36  and  C_17 
REMARK   16  A    between atoms: N_53  and  C_19 
REMARK   17  A    between atoms: N_54  and  C_20 
REMARK   18  A    between atoms: N_55  and  C_21 
REMARK   19  A    between atoms: N_56  and  C_22 
REMARK   20  A    between atoms: N_57  and  C_23 
REMARK   21  A    between atoms: C_27  and  C_25 
REMARK   22  A    between atoms: C_38  and  C_25 
REMARK   23  A    between atoms: C_28  and  C_26 
REMARK   24  A    between atoms: C_39  and  C_26 
REMARK   25  A    between atoms: C_41  and  C_30 
REMARK   26  A    between atoms: C_30  and  O_80 
REMARK   27  A    between atoms: C_42  and  C_31 
REMARK   28  A    between atoms: C_31  and  O_81 
REMARK   29  A    between atoms: C_47  and  C_32 
REMARK   30  A    between atoms: C_32  and  N_60 
REMARK   31  A    between atoms: C_44  and  C_35 
REMARK   32  A    between atoms: C_35  and  N_70 
REMARK   33  A    between atoms: C_37  and  N_68 
REMARK   34  A    between atoms: C_52  and  C_42 
REMARK   35  A    between atoms: C_42  and  N_78 
REMARK   36  A    between atoms: C_43  and  O_83 
REMARK   37  A    between atoms: C_44  and  O_84 
REMARK   38  A    between atoms: O_85  and  C_45 
REMARK   39  A    between atoms: C_46  and  O_86 
REMARK   40  A    between atoms: C_47  and  O_87 
REMARK   41  A    between atoms: O_88  and  C_48 
REMARK   42  A    between atoms: C_49  and  O_89 
REMARK   43  A    between atoms: C_50  and  O_90 
REMARK   44  A    between atoms: O_91  and  C_51 
REMARK   45  A    between atoms: C_52  and  O_92 
ROOT
HETATM    1  C   UNK N   1      27.867  19.321   6.148  0.00  0.00     0.111 C 
HETATM    2  N   UNK N   1      27.183  18.529   6.901  0.00  0.00    -0.362 N 
ATOM      3  HN  UNK N   1      26.301  18.884   7.268  1.00  0.00     0.162 HD
HETATM    4  O   UNK N   1      28.984  18.910   5.520  0.00  0.00    -0.350 OA
HETATM    5  H   UNK N   1      29.716  18.665   4.989  0.00  0.00     0.219 HD
ENDROOT
BRANCH   1   6
HETATM    6  C   UNK N   1      27.468  20.756   6.056  0.00  0.00     0.083 C 
BRANCH   6   7
HETATM    7  C   UNK N   1      26.282  21.016   5.102  0.00  0.00     0.008 C 
BRANCH   7   8
HETATM    8  C   UNK N   1      26.281  20.297   3.742  0.00  0.00     0.005 C 
BRANCH   8   9
HETATM    9  C   UNK N   1      24.943  19.615   3.438  0.00  0.00    -0.019 C 
HETATM   10  C   UNK N   1      24.014  20.643   2.815  0.00  0.00     0.010 C 
BRANCH   9  11
HETATM   11  C   UNK N   1      24.312  19.062   4.711  0.00  0.00    -0.000 C 
HETATM   12  C   UNK N   1      22.960  18.413   4.458  0.00  0.00     0.005 C 
ENDBRANCH   9  11
ENDBRANCH   8   9
ENDBRANCH   7   8
ENDBRANCH   6   7
ENDBRANCH   1   6
BRANCH   2  13
HETATM   13  C   UNK N   1      27.555  17.174   7.272  0.00  0.00     0.159 C 
BRANCH  13  14
HETATM   14  C   UNK N   1      27.812  17.187   8.779  0.00  0.00     0.052 C 
BRANCH  14  15
HETATM   15  C   UNK N   1      28.743  18.313   9.231  0.00  0.00     0.113 C 
BRANCH  15  16
HETATM   16  N   UNK N   1      29.963  17.781   9.813  0.00  0.00    -0.430 N 
HETATM   17  H   UNK N   1      30.499  17.691  10.676  0.00  0.00     0.149 HD
HETATM   18  H   UNK N   1      30.488  17.320   9.069  0.00  0.00     0.149 HD
ENDBRANCH  15  16
ENDBRANCH  14  15
ENDBRANCH  13  14
BRANCH  13  19
HETATM   19  C   UNK N   1      26.675  16.045   6.698  0.00  0.00     0.135 C 
HETATM   20  N   UNK N   1      26.354  15.878   5.448  0.00  0.00    -0.358 N 
ATOM     21  HN  UNK N   1      25.616  15.194   5.278  1.00  0.00     0.162 HD
BRANCH  20  22
HETATM   22  C   UNK N   1      26.890  16.515   4.257  0.00  0.00     0.186 C 
BRANCH  22  23
HETATM   23  C   UNK N   1      25.964  16.227   3.062  0.00  0.00     0.144 C 
HETATM   24  C   UNK N   1      24.806  15.326   3.470  0.00  0.00     0.042 C 
BRANCH  23  25
HETATM   25  O   UNK N   1      26.687  15.593   2.052  0.00  0.00    -0.393 OA
HETATM   26  H   UNK N   1      27.642  15.609   1.882  0.00  0.00     0.210 HD
ENDBRANCH  23  25
ENDBRANCH  22  23
BRANCH  22  27
HETATM   27  C   UNK N   1      28.230  15.903   4.016  0.00  0.00     0.138 C 
HETATM   28  N   UNK N   1      28.348  14.618   4.129  0.00  0.00    -0.361 N 
ATOM     29  HN  UNK N   1      27.494  14.082   4.283  1.00  0.00     0.162 HD
BRANCH  28  30
HETATM   30  C   UNK N   1      29.591  13.881   4.054  0.00  0.00     0.159 C 
BRANCH  30  31
HETATM   31  C   UNK N   1      29.454  12.442   4.562  0.00  0.00     0.052 C 
BRANCH  31  32
HETATM   32  C   UNK N   1      30.766  11.646   4.562  0.00  0.00     0.113 C 
BRANCH  32  33
HETATM   33  N   UNK N   1      31.754  12.201   5.477  0.00  0.00    -0.430 N 
HETATM   34  H   UNK N   1      32.616  12.100   6.014  0.00  0.00     0.149 HD
HETATM   35  H   UNK N   1      31.426  13.146   5.678  0.00  0.00     0.149 HD
ENDBRANCH  32  33
ENDBRANCH  31  32
ENDBRANCH  30  31
BRANCH  30  36
HETATM   36  C   UNK N   1      30.078  13.939   2.635  0.00  0.00     0.135 C 
HETATM   37  N   UNK N   1      31.227  14.398   2.300  0.00  0.00    -0.361 N 
ATOM     38  HN  UNK N   1      31.363  14.485   1.293  1.00  0.00     0.162 HD
BRANCH  37  39
HETATM   39  C   UNK N   1      32.373  14.813   3.093  0.00  0.00     0.159 C 
HETATM   40  C   UNK N   1      32.695  16.298   2.915  0.00  0.00     0.053 C 
HETATM   41  C   UNK N   1      33.294  16.841   4.194  0.00  0.00     0.124 C 
HETATM   42  N   UNK N   1      32.183  17.074   5.076  0.00  0.00    -0.373 N 
HETATM   43  C   UNK N   1      31.962  16.533   6.225  0.00  0.00     0.137 C 
ATOM     44  HN  UNK N   1      31.488  17.747   4.754  1.00  0.00     0.161 HD
HETATM   45  C   UNK N   1      32.896  15.553   6.967  0.00  0.00     0.186 C 
HETATM   46  N   UNK N   1      33.948  15.003   6.094  0.00  0.00    -0.358 N 
HETATM   47  C   UNK N   1      34.901  14.127   6.227  0.00  0.00     0.135 C 
ATOM     48  HN  UNK N   1      33.922  15.407   5.157  1.00  0.00     0.162 HD
HETATM   49  C   UNK N   1      35.241  13.273   7.478  0.00  0.00     0.159 C 
HETATM   50  N   UNK N   1      36.389  12.394   7.228  0.00  0.00    -0.361 N 
HETATM   51  C   UNK N   1      37.617  12.800   7.026  0.00  0.00     0.135 C 
ATOM     52  HN  UNK N   1      36.216  11.390   7.208  1.00  0.00     0.162 HD
HETATM   53  C   UNK N   1      38.724  11.811   6.752  0.00  0.00     0.159 C 
HETATM   54  N   UNK N   1      38.543  11.378   5.388  0.00  0.00    -0.361 N 
HETATM   55  C   UNK N   1      39.385  10.687   4.697  0.00  0.00     0.135 C 
ATOM     56  HN  UNK N   1      37.671  11.640   4.929  1.00  0.00     0.162 HD
HETATM   57  C   UNK N   1      39.126  10.554   3.222  0.00  0.00     0.158 C 
HETATM   58  N   UNK N   1      38.847  11.908   2.787  0.00  0.00    -0.361 N 
HETATM   59  C   UNK N   1      37.766  12.475   2.356  0.00  0.00     0.135 C 
ATOM     60  HN  UNK N   1      39.653  12.531   2.829  1.00  0.00     0.162 HD
HETATM   61  C   UNK N   1      36.408  11.829   2.075  0.00  0.00     0.158 C 
HETATM   62  N   UNK N   1      35.970  12.400   0.818  0.00  0.00    -0.361 N 
HETATM   63  C   UNK N   1      34.759  12.443   0.377  0.00  0.00     0.135 C 
ATOM     64  HN  UNK N   1      36.691  12.807   0.222  1.00  0.00     0.162 HD
HETATM   65  C   UNK N   1      33.582  11.901   1.179  0.00  0.00     0.159 C 
HETATM   66  N   UNK N   1      33.131  12.758   2.245  0.00  0.00    -0.361 N 
HETATM   67  C   UNK N   1      33.469  13.979   2.512  0.00  0.00     0.135 C 
ATOM     68  HN  UNK N   1      32.448  12.345   2.879  1.00  0.00     0.162 HD
BRANCH  43  69
HETATM   69  O   UNK N   1      30.835  16.901   6.867  0.00  0.00    -0.348 OA
HETATM   70  H   UNK N   1      30.446  16.478   7.606  0.00  0.00     0.219 HD
ENDBRANCH  43  69
BRANCH  45  71
HETATM   71  C   UNK N   1      33.463  16.362   8.155  0.00  0.00     0.144 C 
HETATM   72  C   UNK N   1      34.172  17.618   7.665  0.00  0.00     0.042 C 
BRANCH  71  73
HETATM   73  O   UNK N   1      32.468  16.733   9.062  0.00  0.00    -0.393 OA
HETATM   74  H   UNK N   1      32.014  16.085   9.623  0.00  0.00     0.210 HD
ENDBRANCH  71  73
ENDBRANCH  45  71
BRANCH  47  75
HETATM   75  O   UNK N   1      35.648  13.880   5.127  0.00  0.00    -0.348 OA
HETATM   76  H   UNK N   1      35.968  14.467   4.470  0.00  0.00     0.219 HD
ENDBRANCH  47  75
BRANCH  49  77
HETATM   77  C   UNK N   1      35.456  13.980   8.828  0.00  0.00     0.052 C 
BRANCH  77  78
HETATM   78  C   UNK N   1      34.661  13.453  10.015  0.00  0.00     0.113 C 
BRANCH  78  79
HETATM   79  N   UNK N   1      33.402  12.898   9.560  0.00  0.00    -0.430 N 
HETATM   80  H   UNK N   1      32.607  13.503   9.352  0.00  0.00     0.149 HD
HETATM   81  H   UNK N   1      33.308  11.888   9.445  0.00  0.00     0.149 HD
ENDBRANCH  78  79
ENDBRANCH  77  78
ENDBRANCH  49  77
BRANCH  51  82
HETATM   82  O   UNK N   1      37.903  14.116   6.972  0.00  0.00    -0.348 OA
HETATM   83  H   UNK N   1      38.499  14.804   7.196  0.00  0.00     0.219 HD
ENDBRANCH  51  82
BRANCH  53  84
HETATM   84  C   UNK N   1      40.090  12.525   6.860  0.00  0.00     0.052 C 
BRANCH  84  85
HETATM   85  C   UNK N   1      40.869  12.129   8.103  0.00  0.00     0.113 C 
BRANCH  85  86
HETATM   86  N   UNK N   1      40.774  10.692   8.291  0.00  0.00    -0.430 N 
HETATM   87  H   UNK N   1      40.901   9.924   7.633  0.00  0.00     0.149 HD
HETATM   88  H   UNK N   1      40.543  10.403   9.242  0.00  0.00     0.149 HD
ENDBRANCH  85  86
ENDBRANCH  84  85
ENDBRANCH  53  84
BRANCH  55  89
HETATM   89  O   UNK N   1      40.544  10.248   5.243  0.00  0.00    -0.348 OA
HETATM   90  H   UNK N   1      40.726   9.329   5.281  0.00  0.00     0.219 HD
ENDBRANCH  55  89
BRANCH  57  91
HETATM   91  C   UNK N   1      40.388  10.088   2.480  0.00  0.00     0.037 C 
BRANCH  91  92
HETATM   92  C   UNK N   1      40.216   9.059   1.366  0.00  0.00    -0.020 C 
HETATM   93  C   UNK N   1      39.928   9.742   0.047  0.00  0.00     0.009 C 
HETATM   94  C   UNK N   1      39.189   7.984   1.672  0.00  0.00     0.009 C 
ENDBRANCH  91  92
ENDBRANCH  57  91
BRANCH  59  95
HETATM   95  O   UNK N   1      37.816  13.813   2.185  0.00  0.00    -0.348 OA
HETATM   96  H   UNK N   1      37.408  14.627   2.404  0.00  0.00     0.219 HD
ENDBRANCH  59  95
BRANCH  61  97
HETATM   97  C   UNK N   1      36.218  10.298   2.077  0.00  0.00     0.037 C 
BRANCH  97  98
HETATM   98  C   UNK N   1      35.658   9.671   3.357  0.00  0.00    -0.020 C 
HETATM   99  C   UNK N   1      34.456   8.787   3.070  0.00  0.00     0.009 C 
HETATM  100  C   UNK N   1      35.175  10.787   4.260  0.00  0.00     0.009 C 
ENDBRANCH  97  98
ENDBRANCH  61  97
BRANCH  63 101
HETATM  101  O   UNK N   1      34.544  13.007  -0.827  0.00  0.00    -0.348 OA
HETATM  102  H   UNK N   1      34.755  13.822  -1.237  0.00  0.00     0.219 HD
ENDBRANCH  63 101
BRANCH  65 103
HETATM  103  C   UNK N   1      32.316  11.823   0.316  0.00  0.00     0.052 C 
BRANCH 103 104
HETATM  104  C   UNK N   1      31.573  10.509   0.374  0.00  0.00     0.113 C 
BRANCH 104 105
HETATM  105  N   UNK N   1      30.292  10.727   1.022  0.00  0.00    -0.430 N 
HETATM  106  H   UNK N   1      29.824  11.183   1.805  0.00  0.00     0.149 HD
HETATM  107  H   UNK N   1      29.582  10.230   0.484  0.00  0.00     0.149 HD
ENDBRANCH 104 105
ENDBRANCH 103 104
ENDBRANCH  65 103
BRANCH  67 108
HETATM  108  O   UNK N   1      34.563  14.562   1.976  0.00  0.00    -0.348 OA
HETATM  109  H   UNK N   1      35.299  15.141   1.969  0.00  0.00     0.219 HD
ENDBRANCH  67 108
ENDBRANCH  37  39
BRANCH  36 110
HETATM  110  O   UNK N   1      29.280  13.490   1.651  0.00  0.00    -0.348 OA
HETATM  111  H   UNK N   1      28.750  14.033   1.101  0.00  0.00     0.219 HD
ENDBRANCH  36 110
ENDBRANCH  30  36
ENDBRANCH  28  30
BRANCH  27 112
HETATM  112  O   UNK N   1      29.290  16.689   3.722  0.00  0.00    -0.348 OA
HETATM  113  H   UNK N   1      30.073  17.011   3.322  0.00  0.00     0.219 HD
ENDBRANCH  27 112
ENDBRANCH  22  27
ENDBRANCH  20  22
BRANCH  19 114
HETATM  114  O   UNK N   1      26.119  15.200   7.588  0.00  0.00    -0.348 OA
HETATM  115  H   UNK N   1      25.632  14.435   7.822  0.00  0.00     0.219 HD
ENDBRANCH  19 114
ENDBRANCH  13  19
ENDBRANCH   2  13
TORSDOF 45
ENDMDL
MODEL 3
REMARK VINA RESULT:      -6.0      3.585      6.731
REMARK WARNING: 32 MAX_TORS EXCEEDED!!!
REMARK  45 active torsions:
REMARK  status: ('A' for Active; 'I' for Inactive)
REMARK    1  A    between atoms: C_29  and  C_9 
REMARK    2  A    between atoms: C_11  and  C_10 
REMARK    3  A    between atoms: C_12  and  C_10 
REMARK    4  A    between atoms: C_29  and  C_11 
REMARK    5  A    between atoms: C_40  and  C_12 
REMARK    6  A    between atoms: C_19  and  C_13 
REMARK    7  A    between atoms: C_32  and  C_13 
REMARK    8  A    between atoms: C_20  and  C_14 
REMARK    9  A    between atoms: C_33  and  C_14 
REMARK   10  A    between atoms: C_21  and  C_15 
REMARK   11  A    between atoms: C_34  and  C_15 
REMARK   12  A    between atoms: C_22  and  C_16 
REMARK   13  A    between atoms: C_35  and  C_16 
REMARK   14  A    between atoms: C_23  and  C_17 
REMARK   15  A    between atoms: C_36  and  C_17 
REMARK   16  A    between atoms: N_53  and  C_19 
REMARK   17  A    between atoms: N_54  and  C_20 
REMARK   18  A    between atoms: N_55  and  C_21 
REMARK   19  A    between atoms: N_56  and  C_22 
REMARK   20  A    between atoms: N_57  and  C_23 
REMARK   21  A    between atoms: C_27  and  C_25 
REMARK   22  A    between atoms: C_38  and  C_25 
REMARK   23  A    between atoms: C_28  and  C_26 
REMARK   24  A    between atoms: C_39  and  C_26 
REMARK   25  A    between atoms: C_41  and  C_30 
REMARK   26  A    between atoms: C_30  and  O_80 
REMARK   27  A    between atoms: C_42  and  C_31 
REMARK   28  A    between atoms: C_31  and  O_81 
REMARK   29  A    between atoms: C_47  and  C_32 
REMARK   30  A    between atoms: C_32  and  N_60 
REMARK   31  A    between atoms: C_44  and  C_35 
REMARK   32  A    between atoms: C_35  and  N_70 
REMARK   33  A    between atoms: C_37  and  N_68 
REMARK   34  A    between atoms: C_52  and  C_42 
REMARK   35  A    between atoms: C_42  and  N_78 
REMARK   36  A    between atoms: C_43  and  O_83 
REMARK   37  A    between atoms: C_44  and  O_84 
REMARK   38  A    between atoms: O_85  and  C_45 
REMARK   39  A    between atoms: C_46  and  O_86 
REMARK   40  A    between atoms: C_47  and  O_87 
REMARK   41  A    between atoms: O_88  and  C_48 
REMARK   42  A    between atoms: C_49  and  O_89 
REMARK   43  A    between atoms: C_50  and  O_90 
REMARK   44  A    between atoms: O_91  and  C_51 
REMARK   45  A    between atoms: C_52  and  O_92 
ROOT
HETATM    1  C   UNK N   1      25.772  20.237   3.837  0.00  0.00     0.111 C 
HETATM    2  N   UNK N   1      25.917  19.914   5.077  0.00  0.00    -0.362 N 
ATOM      3  HN  UNK N   1      25.073  19.666   5.593  1.00  0.00     0.162 HD
HETATM    4  O   UNK N   1      26.831  20.467   3.039  0.00  0.00    -0.350 OA
HETATM    5  H   UNK N   1      27.522  20.555   2.413  0.00  0.00     0.219 HD
ENDROOT
BRANCH   1   6
HETATM    6  C   UNK N   1      24.397  20.464   3.305  0.00  0.00     0.083 C 
BRANCH   6   7
HETATM    7  C   UNK N   1      23.351  19.452   3.819  0.00  0.00     0.008 C 
BRANCH   7   8
HETATM    8  C   UNK N   1      21.979  19.416   3.124  0.00  0.00     0.005 C 
BRANCH   8   9
HETATM    9  C   UNK N   1      20.894  18.775   3.995  0.00  0.00    -0.019 C 
HETATM   10  C   UNK N   1      21.529  18.339   5.303  0.00  0.00     0.010 C 
BRANCH   9  11
HETATM   11  C   UNK N   1      20.281  17.566   3.297  0.00  0.00    -0.000 C 
HETATM   12  C   UNK N   1      19.603  16.614   4.271  0.00  0.00     0.005 C 
ENDBRANCH   9  11
ENDBRANCH   8   9
ENDBRANCH   7   8
ENDBRANCH   6   7
ENDBRANCH   1   6
BRANCH   2  13
HETATM   13  C   UNK N   1      27.174  19.869   5.805  0.00  0.00     0.159 C 
BRANCH  13  14
HETATM   14  C   UNK N   1      27.382  21.259   6.406  0.00  0.00     0.052 C 
BRANCH  14  15
HETATM   15  C   UNK N   1      26.111  21.864   7.004  0.00  0.00     0.113 C 
BRANCH  15  16
HETATM   16  N   UNK N   1      25.826  21.298   8.310  0.00  0.00    -0.430 N 
HETATM   17  H   UNK N   1      25.731  21.511   9.303  0.00  0.00     0.149 HD
HETATM   18  H   UNK N   1      25.655  20.299   8.187  0.00  0.00     0.149 HD
ENDBRANCH  15  16
ENDBRANCH  14  15
ENDBRANCH  13  14
BRANCH  13  19
HETATM   19  C   UNK N   1      27.388  18.646   6.720  0.00  0.00     0.135 C 
HETATM   20  N   UNK N   1      27.109  17.409   6.429  0.00  0.00    -0.358 N 
ATOM     21  HN  UNK N   1      27.138  16.761   7.218  1.00  0.00     0.162 HD
BRANCH  20  22
HETATM   22  C   UNK N   1      26.764  16.808   5.152  0.00  0.00     0.186 C 
BRANCH  22  23
HETATM   23  C   UNK N   1      25.632  15.785   5.356  0.00  0.00     0.144 C 
HETATM   24  C   UNK N   1      24.368  16.212   4.622  0.00  0.00     0.042 C 
BRANCH  23  25
HETATM   25  O   UNK N   1      25.341  15.673   6.716  0.00  0.00    -0.393 OA
HETATM   26  H   UNK N   1      24.538  15.935   7.192  0.00  0.00     0.210 HD
ENDBRANCH  23  25
ENDBRANCH  22  23
BRANCH  22  27
HETATM   27  C   UNK N   1      27.992  16.111   4.667  0.00  0.00     0.138 C 
HETATM   28  N   UNK N   1      27.983  14.818   4.610  0.00  0.00    -0.361 N 
ATOM     29  HN  UNK N   1      27.101  14.347   4.810  1.00  0.00     0.162 HD
BRANCH  28  30
HETATM   30  C   UNK N   1      29.121  13.985   4.287  0.00  0.00     0.159 C 
BRANCH  30  31
HETATM   31  C   UNK N   1      28.862  12.499   4.561  0.00  0.00     0.052 C 
BRANCH  31  32
HETATM   32  C   UNK N   1      30.124  11.627   4.551  0.00  0.00     0.113 C 
BRANCH  32  33
HETATM   33  N   UNK N   1      29.956  10.397   5.313  0.00  0.00    -0.430 N 
HETATM   34  H   UNK N   1      30.284   9.466   5.572  0.00  0.00     0.149 HD
HETATM   35  H   UNK N   1      29.096  10.531   5.845  0.00  0.00     0.149 HD
ENDBRANCH  32  33
ENDBRANCH  31  32
ENDBRANCH  30  31
BRANCH  30  36
HETATM   36  C   UNK N   1      29.492  14.243   2.856  0.00  0.00     0.135 C 
HETATM   37  N   UNK N   1      30.598  14.781   2.496  0.00  0.00    -0.361 N 
ATOM     38  HN  UNK N   1      30.651  15.004   1.502  1.00  0.00     0.162 HD
BRANCH  37  39
HETATM   39  C   UNK N   1      31.793  15.131   3.248  0.00  0.00     0.159 C 
HETATM   40  C   UNK N   1      32.239  16.572   2.991  0.00  0.00     0.053 C 
HETATM   41  C   UNK N   1      32.911  17.120   4.231  0.00  0.00     0.124 C 
HETATM   42  N   UNK N   1      31.845  17.491   5.120  0.00  0.00    -0.373 N 
HETATM   43  C   UNK N   1      31.603  17.027   6.299  0.00  0.00     0.137 C 
ATOM     44  HN  UNK N   1      31.204  18.207   4.778  1.00  0.00     0.161 HD
HETATM   45  C   UNK N   1      32.464  16.005   7.071  0.00  0.00     0.186 C 
HETATM   46  N   UNK N   1      33.444  15.323   6.207  0.00  0.00    -0.358 N 
HETATM   47  C   UNK N   1      34.320  14.374   6.366  0.00  0.00     0.135 C 
ATOM     48  HN  UNK N   1      33.434  15.683   5.252  1.00  0.00     0.162 HD
HETATM   49  C   UNK N   1      34.611  13.554   7.652  0.00  0.00     0.159 C 
HETATM   50  N   UNK N   1      35.672  12.566   7.424  0.00  0.00    -0.361 N 
HETATM   51  C   UNK N   1      36.926  12.852   7.181  0.00  0.00     0.135 C 
ATOM     52  HN  UNK N   1      35.412  11.580   7.458  1.00  0.00     0.162 HD
HETATM   53  C   UNK N   1      37.937  11.756   6.936  0.00  0.00     0.159 C 
HETATM   54  N   UNK N   1      37.688  11.277   5.599  0.00  0.00    -0.361 N 
HETATM   55  C   UNK N   1      38.451  10.482   4.927  0.00  0.00     0.135 C 
ATOM     56  HN  UNK N   1      36.832  11.593   5.144  1.00  0.00     0.162 HD
HETATM   57  C   UNK N   1      38.149  10.303   3.465  0.00  0.00     0.158 C 
HETATM   58  N   UNK N   1      37.979  11.654   2.970  0.00  0.00    -0.361 N 
HETATM   59  C   UNK N   1      36.943  12.293   2.531  0.00  0.00     0.135 C 
ATOM     60  HN  UNK N   1      38.838  12.204   2.967  1.00  0.00     0.162 HD
HETATM   61  C   UNK N   1      35.528  11.758   2.306  0.00  0.00     0.158 C 
HETATM   62  N   UNK N   1      35.114  12.305   1.030  0.00  0.00    -0.361 N 
HETATM   63  C   UNK N   1      33.903  12.434   0.609  0.00  0.00     0.135 C 
ATOM     64  HN  UNK N   1      35.855  12.618   0.403  1.00  0.00     0.162 HD
HETATM   65  C   UNK N   1      32.700  12.037   1.458  0.00  0.00     0.159 C 
HETATM   66  N   UNK N   1      32.350  12.980   2.488  0.00  0.00    -0.361 N 
HETATM   67  C   UNK N   1      32.798  14.177   2.689  0.00  0.00     0.135 C 
ATOM     68  HN  UNK N   1      31.647  12.659   3.154  1.00  0.00     0.162 HD
BRANCH  43  69
HETATM   69  O   UNK N   1      30.527  17.524   6.941  0.00  0.00    -0.348 OA
HETATM   70  H   UNK N   1      29.721  17.078   7.113  0.00  0.00     0.219 HD
ENDBRANCH  43  69
BRANCH  45  71
HETATM   71  C   UNK N   1      33.125  16.816   8.207  0.00  0.00     0.144 C 
HETATM   72  C   UNK N   1      33.996  17.930   7.641  0.00  0.00     0.042 C 
BRANCH  71  73
HETATM   73  O   UNK N   1      32.183  17.378   9.071  0.00  0.00    -0.393 OA
HETATM   74  H   UNK N   1      31.463  17.945   8.751  0.00  0.00     0.210 HD
ENDBRANCH  71  73
ENDBRANCH  45  71
BRANCH  47  75
HETATM   75  O   UNK N   1      35.018  14.010   5.267  0.00  0.00    -0.348 OA
HETATM   76  H   UNK N   1      34.733  13.579   4.485  0.00  0.00     0.219 HD
ENDBRANCH  47  75
BRANCH  49  77
HETATM   77  C   UNK N   1      34.917  14.301   8.961  0.00  0.00     0.052 C 
BRANCH  77  78
HETATM   78  C   UNK N   1      34.207  13.811  10.215  0.00  0.00     0.113 C 
BRANCH  78  79
HETATM   79  N   UNK N   1      33.528  14.917  10.863  0.00  0.00    -0.430 N 
HETATM   80  H   UNK N   1      33.511  14.997  11.880  0.00  0.00     0.149 HD
HETATM   81  H   UNK N   1      33.062  15.624  10.295  0.00  0.00     0.149 HD
ENDBRANCH  78  79
ENDBRANCH  77  78
ENDBRANCH  49  77
BRANCH  51  82
HETATM   82  O   UNK N   1      37.325  14.133   7.057  0.00  0.00    -0.348 OA
HETATM   83  H   UNK N   1      37.148  15.036   7.237  0.00  0.00     0.219 HD
ENDBRANCH  51  82
BRANCH  53  84
HETATM   84  C   UNK N   1      39.361  12.351   6.984  0.00  0.00     0.052 C 
BRANCH  84  85
HETATM   85  C   UNK N   1      40.121  11.969   8.244  0.00  0.00     0.113 C 
BRANCH  85  86
HETATM   86  N   UNK N   1      41.287  11.182   7.880  0.00  0.00    -0.430 N 
HETATM   87  H   UNK N   1      41.668  10.938   6.966  0.00  0.00     0.149 HD
HETATM   88  H   UNK N   1      41.813  10.812   8.673  0.00  0.00     0.149 HD
ENDBRANCH  85  86
ENDBRANCH  84  85
ENDBRANCH  53  84
BRANCH  55  89
HETATM   89  O   UNK N   1      39.579   9.969   5.474  0.00  0.00    -0.348 OA
HETATM   90  H   UNK N   1      39.931   9.163   5.150  0.00  0.00     0.219 HD
ENDBRANCH  55  89
BRANCH  57  91
HETATM   91  C   UNK N   1      39.348   9.692   2.726  0.00  0.00     0.037 C 
BRANCH  91  92
HETATM   92  C   UNK N   1      39.081   8.512   1.795  0.00  0.00    -0.020 C 
HETATM   93  C   UNK N   1      37.929   7.677   2.308  0.00  0.00     0.009 C 
HETATM   94  C   UNK N   1      40.305   7.660   1.513  0.00  0.00     0.009 C 
ENDBRANCH  91  92
ENDBRANCH  57  91
BRANCH  59  95
HETATM   95  O   UNK N   1      37.106  13.612   2.293  0.00  0.00    -0.348 OA
HETATM   96  H   UNK N   1      37.660  14.254   1.894  0.00  0.00     0.219 HD
ENDBRANCH  59  95
BRANCH  61  97
HETATM   97  C   UNK N   1      35.205  10.251   2.387  0.00  0.00     0.037 C 
BRANCH  97  98
HETATM   98  C   UNK N   1      34.334   9.791   3.559  0.00  0.00    -0.020 C 
HETATM   99  C   UNK N   1      34.240  10.853   4.640  0.00  0.00     0.009 C 
HETATM  100  C   UNK N   1      34.990   8.580   4.191  0.00  0.00     0.009 C 
ENDBRANCH  97  98
ENDBRANCH  61  97
BRANCH  63 101
HETATM  101  O   UNK N   1      33.711  12.957  -0.617  0.00  0.00    -0.348 OA
HETATM  102  H   UNK N   1      33.160  12.770  -1.351  0.00  0.00     0.219 HD
ENDBRANCH  63 101
BRANCH  65 103
HETATM  103  C   UNK N   1      31.414  12.030   0.622  0.00  0.00     0.052 C 
BRANCH 103 104
HETATM  104  C   UNK N   1      30.453  10.904   0.922  0.00  0.00     0.113 C 
BRANCH 104 105
HETATM  105  N   UNK N   1      29.108  11.336   0.583  0.00  0.00    -0.430 N 
HETATM  106  H   UNK N   1      28.319  11.907   0.883  0.00  0.00     0.149 HD
HETATM  107  H   UNK N   1      28.854  10.896  -0.302  0.00  0.00     0.149 HD
ENDBRANCH 104 105
ENDBRANCH 103 104
ENDBRANCH  65 103
BRANCH  67 108
HETATM  108  O   UNK N   1      33.927  14.635   2.106  0.00  0.00    -0.348 OA
HETATM  109  H   UNK N   1      34.854  14.706   1.987  0.00  0.00     0.219 HD
ENDBRANCH  67 108
ENDBRANCH  37  39
BRANCH  36 110
HETATM  110  O   UNK N   1      28.629  13.897   1.884  0.00  0.00    -0.348 OA
HETATM  111  H   UNK N   1      28.411  13.016   1.650  0.00  0.00     0.219 HD
ENDBRANCH  36 110
ENDBRANCH  30  36
ENDBRANCH  28  30
BRANCH  27 112
HETATM  112  O   UNK N   1      29.089  16.828   4.332  0.00  0.00    -0.348 OA
HETATM  113  H   UNK N   1      29.891  17.306   4.397  0.00  0.00     0.219 HD
ENDBRANCH  27 112
ENDBRANCH  22  27
ENDBRANCH  20  22
BRANCH  19 114
HETATM  114  O   UNK N   1      27.828  18.894   7.969  0.00  0.00    -0.348 OA
HETATM  115  H   UNK N   1      27.752  19.277   8.820  0.00  0.00     0.219 HD
ENDBRANCH  19 114
ENDBRANCH  13  19
ENDBRANCH   2  13
TORSDOF 45
ENDMDL
MODEL 4
REMARK VINA RESULT:      -5.9      3.943     12.197
REMARK WARNING: 32 MAX_TORS EXCEEDED!!!
REMARK  45 active torsions:
REMARK  status: ('A' for Active; 'I' for Inactive)
REMARK    1  A    between atoms: C_29  and  C_9 
REMARK    2  A    between atoms: C_11  and  C_10 
REMARK    3  A    between atoms: C_12  and  C_10 
REMARK    4  A    between atoms: C_29  and  C_11 
REMARK    5  A    between atoms: C_40  and  C_12 
REMARK    6  A    between atoms: C_19  and  C_13 
REMARK    7  A    between atoms: C_32  and  C_13 
REMARK    8  A    between atoms: C_20  and  C_14 
REMARK    9  A    between atoms: C_33  and  C_14 
REMARK   10  A    between atoms: C_21  and  C_15 
REMARK   11  A    between atoms: C_34  and  C_15 
REMARK   12  A    between atoms: C_22  and  C_16 
REMARK   13  A    between atoms: C_35  and  C_16 
REMARK   14  A    between atoms: C_23  and  C_17 
REMARK   15  A    between atoms: C_36  and  C_17 
REMARK   16  A    between atoms: N_53  and  C_19 
REMARK   17  A    between atoms: N_54  and  C_20 
REMARK   18  A    between atoms: N_55  and  C_21 
REMARK   19  A    between atoms: N_56  and  C_22 
REMARK   20  A    between atoms: N_57  and  C_23 
REMARK   21  A    between atoms: C_27  and  C_25 
REMARK   22  A    between atoms: C_38  and  C_25 
REMARK   23  A    between atoms: C_28  and  C_26 
REMARK   24  A    between atoms: C_39  and  C_26 
REMARK   25  A    between atoms: C_41  and  C_30 
REMARK   26  A    between atoms: C_30  and  O_80 
REMARK   27  A    between atoms: C_42  and  C_31 
REMARK   28  A    between atoms: C_31  and  O_81 
REMARK   29  A    between atoms: C_47  and  C_32 
REMARK   30  A    between atoms: C_32  and  N_60 
REMARK   31  A    between atoms: C_44  and  C_35 
REMARK   32  A    between atoms: C_35  and  N_70 
REMARK   33  A    between atoms: C_37  and  N_68 
REMARK   34  A    between atoms: C_52  and  C_42 
REMARK   35  A    between atoms: C_42  and  N_78 
REMARK   36  A    between atoms: C_43  and  O_83 
REMARK   37  A    between atoms: C_44  and  O_84 
REMARK   38  A    between atoms: O_85  and  C_45 
REMARK   39  A    between atoms: C_46  and  O_86 
REMARK   40  A    between atoms: C_47  and  O_87 
REMARK   41  A    between atoms: O_88  and  C_48 
REMARK   42  A    between atoms: C_49  and  O_89 
REMARK   43  A    between atoms: C_50  and  O_90 
REMARK   44  A    between atoms: O_91  and  C_51 
REMARK   45  A    between atoms: C_52  and  O_92 
ROOT
HETATM    1  C   UNK N   1      36.170  13.146  12.702  0.00  0.00     0.111 C 
HETATM    2  N   UNK N   1      36.406  12.736  11.503  0.00  0.00    -0.362 N 
ATOM      3  HN  UNK N   1      35.818  11.984  11.145  1.00  0.00     0.162 HD
HETATM    4  O   UNK N   1      36.809  14.209  13.224  0.00  0.00    -0.350 OA
HETATM    5  H   UNK N   1      37.153  14.988  13.614  0.00  0.00     0.219 HD
ENDROOT
BRANCH   1   6
HETATM    6  C   UNK N   1      35.242  12.359  13.566  0.00  0.00     0.083 C 
BRANCH   6   7
HETATM    7  C   UNK N   1      35.948  11.304  14.444  0.00  0.00     0.008 C 
BRANCH   7   8
HETATM    8  C   UNK N   1      36.418  11.730  15.846  0.00  0.00     0.005 C 
BRANCH   8   9
HETATM    9  C   UNK N   1      35.251  12.007  16.800  0.00  0.00    -0.019 C 
HETATM   10  C   UNK N   1      35.246  13.490  17.128  0.00  0.00     0.010 C 
BRANCH   9  11
HETATM   11  C   UNK N   1      35.397  11.201  18.085  0.00  0.00    -0.000 C 
HETATM   12  C   UNK N   1      35.358  12.076  19.330  0.00  0.00     0.005 C 
ENDBRANCH   9  11
ENDBRANCH   8   9
ENDBRANCH   7   8
ENDBRANCH   6   7
ENDBRANCH   1   6
BRANCH   2  13
HETATM   13  C   UNK N   1      37.434  13.251  10.614  0.00  0.00     0.159 C 
BRANCH  13  14
HETATM   14  C   UNK N   1      37.944  12.062   9.799  0.00  0.00     0.052 C 
BRANCH  14  15
HETATM   15  C   UNK N   1      39.386  12.224   9.318  0.00  0.00     0.113 C 
BRANCH  15  16
HETATM   16  N   UNK N   1      39.635  11.423   8.133  0.00  0.00    -0.430 N 
HETATM   17  H   UNK N   1      39.416  10.542   7.666  0.00  0.00     0.149 HD
HETATM   18  H   UNK N   1      40.280  11.941   7.536  0.00  0.00     0.149 HD
ENDBRANCH  15  16
ENDBRANCH  14  15
ENDBRANCH  13  14
BRANCH  13  19
HETATM   19  C   UNK N   1      37.092  14.552   9.859  0.00  0.00     0.135 C 
HETATM   20  N   UNK N   1      36.706  14.645   8.620  0.00  0.00    -0.358 N 
ATOM     21  HN  UNK N   1      36.708  15.590   8.235  1.00  0.00     0.162 HD
BRANCH  20  22
HETATM   22  C   UNK N   1      36.269  13.607   7.701  0.00  0.00     0.186 C 
BRANCH  22  23
HETATM   23  C   UNK N   1      36.668  13.993   6.266  0.00  0.00     0.144 C 
HETATM   24  C   UNK N   1      38.182  14.079   6.121  0.00  0.00     0.042 C 
BRANCH  23  25
HETATM   25  O   UNK N   1      36.118  15.234   5.944  0.00  0.00    -0.393 OA
HETATM   26  H   UNK N   1      35.185  15.490   5.877  0.00  0.00     0.210 HD
ENDBRANCH  23  25
ENDBRANCH  22  23
BRANCH  22  27
HETATM   27  C   UNK N   1      34.781  13.544   7.811  0.00  0.00     0.138 C 
HETATM   28  N   UNK N   1      34.118  14.657   7.831  0.00  0.00    -0.361 N 
ATOM     29  HN  UNK N   1      34.644  15.517   7.673  1.00  0.00     0.162 HD
BRANCH  28  30
HETATM   30  C   UNK N   1      32.695  14.780   8.058  0.00  0.00     0.159 C 
BRANCH  30  31
HETATM   31  C   UNK N   1      32.299  14.468   9.505  0.00  0.00     0.052 C 
BRANCH  31  32
HETATM   32  C   UNK N   1      33.469  14.487  10.497  0.00  0.00     0.113 C 
BRANCH  32  33
HETATM   33  N   UNK N   1      33.982  15.830  10.728  0.00  0.00    -0.430 N 
HETATM   34  H   UNK N   1      34.519  16.485  11.296  0.00  0.00     0.149 HD
HETATM   35  H   UNK N   1      33.637  16.382   9.943  0.00  0.00     0.149 HD
ENDBRANCH  32  33
ENDBRANCH  31  32
ENDBRANCH  30  31
BRANCH  30  36
HETATM   36  C   UNK N   1      32.278  16.161   7.640  0.00  0.00     0.135 C 
HETATM   37  N   UNK N   1      31.754  16.428   6.501  0.00  0.00    -0.361 N 
ATOM     38  HN  UNK N   1      31.640  17.424   6.317  1.00  0.00     0.162 HD
BRANCH  37  39
HETATM   39  C   UNK N   1      31.291  15.568   5.423  0.00  0.00     0.159 C 
HETATM   40  C   UNK N   1      32.117  15.739   4.148  0.00  0.00     0.053 C 
HETATM   41  C   UNK N   1      32.150  14.429   3.389  0.00  0.00     0.124 C 
HETATM   42  N   UNK N   1      33.136  13.621   4.052  0.00  0.00    -0.373 N 
HETATM   43  C   UNK N   1      32.962  12.483   4.633  0.00  0.00     0.137 C 
ATOM     44  HN  UNK N   1      34.086  13.991   4.064  1.00  0.00     0.161 HD
HETATM   45  C   UNK N   1      31.648  11.675   4.682  0.00  0.00     0.186 C 
HETATM   46  N   UNK N   1      30.477  12.476   4.283  0.00  0.00    -0.358 N 
HETATM   47  C   UNK N   1      29.192  12.276   4.222  0.00  0.00     0.135 C 
ATOM     48  HN  UNK N   1      30.736  13.416   3.982  1.00  0.00     0.162 HD
HETATM   49  C   UNK N   1      28.408  10.998   4.626  0.00  0.00     0.159 C 
HETATM   50  N   UNK N   1      26.966  11.168   4.414  0.00  0.00    -0.361 N 
HETATM   51  C   UNK N   1      26.388  11.296   3.246  0.00  0.00     0.135 C 
ATOM     52  HN  UNK N   1      26.369  11.189   5.239  1.00  0.00     0.162 HD
HETATM   53  C   UNK N   1      24.895  11.492   3.139  0.00  0.00     0.159 C 
HETATM   54  N   UNK N   1      24.643  12.860   3.519  0.00  0.00    -0.361 N 
HETATM   55  C   UNK N   1      23.528  13.491   3.376  0.00  0.00     0.135 C 
ATOM     56  HN  UNK N   1      25.417  13.375   3.939  1.00  0.00     0.162 HD
HETATM   57  C   UNK N   1      23.539  14.979   3.597  0.00  0.00     0.158 C 
HETATM   58  N   UNK N   1      24.679  15.441   2.832  0.00  0.00    -0.361 N 
HETATM   59  C   UNK N   1      25.818  15.944   3.188  0.00  0.00     0.135 C 
ATOM     60  HN  UNK N   1      24.563  15.355   1.822  1.00  0.00     0.162 HD
HETATM   61  C   UNK N   1      26.291  16.305   4.597  0.00  0.00     0.158 C 
HETATM   62  N   UNK N   1      26.941  17.592   4.462  0.00  0.00    -0.361 N 
HETATM   63  C   UNK N   1      27.795  18.108   5.277  0.00  0.00     0.135 C 
ATOM     64  HN  UNK N   1      26.698  18.145   3.639  1.00  0.00     0.162 HD
HETATM   65  C   UNK N   1      28.271  17.376   6.527  0.00  0.00     0.159 C 
HETATM   66  N   UNK N   1      29.251  16.348   6.289  0.00  0.00    -0.361 N 
HETATM   67  C   UNK N   1      29.901  16.071   5.204  0.00  0.00     0.135 C 
ATOM     68  HN  UNK N   1      29.466  15.755   7.090  1.00  0.00     0.162 HD
BRANCH  43  69
HETATM   69  O   UNK N   1      34.044  11.916   5.203  0.00  0.00    -0.348 OA
HETATM   70  H   UNK N   1      34.741  12.359   5.646  0.00  0.00     0.219 HD
ENDBRANCH  43  69
BRANCH  45  71
HETATM   71  C   UNK N   1      31.889  10.461   3.757  0.00  0.00     0.144 C 
HETATM   72  C   UNK N   1      32.399  10.912   2.394  0.00  0.00     0.042 C 
BRANCH  71  73
HETATM   73  O   UNK N   1      32.803   9.557   4.302  0.00  0.00    -0.393 OA
HETATM   74  H   UNK N   1      33.075   9.595   5.232  0.00  0.00     0.210 HD
ENDBRANCH  71  73
ENDBRANCH  45  71
BRANCH  47  75
HETATM   75  O   UNK N   1      28.439  13.324   3.820  0.00  0.00    -0.348 OA
HETATM   76  H   UNK N   1      28.144  13.563   2.963  0.00  0.00     0.219 HD
ENDBRANCH  47  75
BRANCH  49  77
HETATM   77  C   UNK N   1      28.830   9.644   4.030  0.00  0.00     0.052 C 
BRANCH  77  78
HETATM   78  C   UNK N   1      28.780   8.438   4.958  0.00  0.00     0.113 C 
BRANCH  78  79
HETATM   79  N   UNK N   1      29.962   8.412   5.799  0.00  0.00    -0.430 N 
HETATM   80  H   UNK N   1      30.274   9.250   6.289  0.00  0.00     0.149 HD
HETATM   81  H   UNK N   1      30.488   7.544   5.902  0.00  0.00     0.149 HD
ENDBRANCH  78  79
ENDBRANCH  77  78
ENDBRANCH  49  77
BRANCH  51  82
HETATM   82  O   UNK N   1      27.125  11.344   2.118  0.00  0.00    -0.348 OA
HETATM   83  H   UNK N   1      27.198  11.113   1.213  0.00  0.00     0.219 HD
ENDBRANCH  51  82
BRANCH  53  84
HETATM   84  C   UNK N   1      24.456  11.305   1.669  0.00  0.00     0.052 C 
BRANCH  84  85
HETATM   85  C   UNK N   1      23.509  10.132   1.478  0.00  0.00     0.113 C 
BRANCH  85  86
HETATM   86  N   UNK N   1      22.996   9.713   2.771  0.00  0.00    -0.430 N 
HETATM   87  H   UNK N   1      22.384   8.939   3.026  0.00  0.00     0.149 HD
HETATM   88  H   UNK N   1      23.301  10.290   3.556  0.00  0.00     0.149 HD
ENDBRANCH  85  86
ENDBRANCH  84  85
ENDBRANCH  53  84
BRANCH  55  89
HETATM   89  O   UNK N   1      22.432  12.870   2.878  0.00  0.00    -0.348 OA
HETATM   90  H   UNK N   1      21.628  12.881   3.359  0.00  0.00     0.219 HD
ENDBRANCH  55  89
BRANCH  57  91
HETATM   91  C   UNK N   1      22.288  15.635   2.996  0.00  0.00     0.037 C 
BRANCH  91  92
HETATM   92  C   UNK N   1      21.609  16.738   3.803  0.00  0.00    -0.020 C 
HETATM   93  C   UNK N   1      20.268  17.093   3.200  0.00  0.00     0.009 C 
HETATM   94  C   UNK N   1      22.470  17.971   4.011  0.00  0.00     0.009 C 
ENDBRANCH  91  92
ENDBRANCH  57  91
BRANCH  59  95
HETATM   95  O   UNK N   1      26.729  16.124   2.209  0.00  0.00    -0.348 OA
HETATM   96  H   UNK N   1      27.068  15.777   1.408  0.00  0.00     0.219 HD
ENDBRANCH  59  95
BRANCH  61  97
HETATM   97  C   UNK N   1      25.330  16.301   5.805  0.00  0.00     0.037 C 
BRANCH  97  98
HETATM   98  C   UNK N   1      25.498  15.166   6.821  0.00  0.00    -0.020 C 
HETATM   99  C   UNK N   1      26.366  14.046   6.273  0.00  0.00     0.009 C 
HETATM  100  C   UNK N   1      24.133  14.569   7.095  0.00  0.00     0.009 C 
ENDBRANCH  97  98
ENDBRANCH  61  97
BRANCH  63 101
HETATM  101  O   UNK N   1      28.288  19.328   4.989  0.00  0.00    -0.348 OA
HETATM  102  H   UNK N   1      28.210  19.937   4.282  0.00  0.00     0.219 HD
ENDBRANCH  63 101
BRANCH  65 103
HETATM  103  C   UNK N   1      29.056  18.316   7.451  0.00  0.00     0.052 C 
BRANCH 103 104
HETATM  104  C   UNK N   1      28.771  18.162   8.926  0.00  0.00     0.113 C 
BRANCH 104 105
HETATM  105  N   UNK N   1      29.995  18.413   9.666  0.00  0.00    -0.430 N 
HETATM  106  H   UNK N   1      31.013  18.384   9.622  0.00  0.00     0.149 HD
HETATM  107  H   UNK N   1      29.734  18.752  10.592  0.00  0.00     0.149 HD
ENDBRANCH 104 105
ENDBRANCH 103 104
ENDBRANCH  65 103
BRANCH  67 108
HETATM  108  O   UNK N   1      29.526  16.543   3.995  0.00  0.00    -0.348 OA
HETATM  109  H   UNK N   1      29.345  17.209   3.362  0.00  0.00     0.219 HD
ENDBRANCH  67 108
ENDBRANCH  37  39
BRANCH  36 110
HETATM  110  O   UNK N   1      32.456  17.185   8.493  0.00  0.00    -0.348 OA
HETATM  111  H   UNK N   1      32.000  17.291   9.305  0.00  0.00     0.219 HD
ENDBRANCH  36 110
ENDBRANCH  30  36
ENDBRANCH  28  30
BRANCH  27 112
HETATM  112  O   UNK N   1      34.161  12.348   7.921  0.00  0.00    -0.348 OA
HETATM  113  H   UNK N   1      33.620  11.654   8.241  0.00  0.00     0.219 HD
ENDBRANCH  27 112
ENDBRANCH  22  27
ENDBRANCH  20  22
BRANCH  19 114
HETATM  114  O   UNK N   1      37.294  15.707  10.523  0.00  0.00    -0.348 OA
HETATM  115  H   UNK N   1      37.649  16.569  10.610  0.00  0.00     0.219 HD
ENDBRANCH  19 114
ENDBRANCH  13  19
ENDBRANCH   2  13
TORSDOF 45
ENDMDL
MODEL 5
REMARK VINA RESULT:      -5.9      4.584     12.173
REMARK WARNING: 32 MAX_TORS EXCEEDED!!!
REMARK  45 active torsions:
REMARK  status: ('A' for Active; 'I' for Inactive)
REMARK    1  A    between atoms: C_29  and  C_9 
REMARK    2  A    between atoms: C_11  and  C_10 
REMARK    3  A    between atoms: C_12  and  C_10 
REMARK    4  A    between atoms: C_29  and  C_11 
REMARK    5  A    between atoms: C_40  and  C_12 
REMARK    6  A    between atoms: C_19  and  C_13 
REMARK    7  A    between atoms: C_32  and  C_13 
REMARK    8  A    between atoms: C_20  and  C_14 
REMARK    9  A    between atoms: C_33  and  C_14 
REMARK   10  A    between atoms: C_21  and  C_15 
REMARK   11  A    between atoms: C_34  and  C_15 
REMARK   12  A    between atoms: C_22  and  C_16 
REMARK   13  A    between atoms: C_35  and  C_16 
REMARK   14  A    between atoms: C_23  and  C_17 
REMARK   15  A    between atoms: C_36  and  C_17 
REMARK   16  A    between atoms: N_53  and  C_19 
REMARK   17  A    between atoms: N_54  and  C_20 
REMARK   18  A    between atoms: N_55  and  C_21 
REMARK   19  A    between atoms: N_56  and  C_22 
REMARK   20  A    between atoms: N_57  and  C_23 
REMARK   21  A    between atoms: C_27  and  C_25 
REMARK   22  A    between atoms: C_38  and  C_25 
REMARK   23  A    between atoms: C_28  and  C_26 
REMARK   24  A    between atoms: C_39  and  C_26 
REMARK   25  A    between atoms: C_41  and  C_30 
REMARK   26  A    between atoms: C_30  and  O_80 
REMARK   27  A    between atoms: C_42  and  C_31 
REMARK   28  A    between atoms: C_31  and  O_81 
REMARK   29  A    between atoms: C_47  and  C_32 
REMARK   30  A    between atoms: C_32  and  N_60 
REMARK   31  A    between atoms: C_44  and  C_35 
REMARK   32  A    between atoms: C_35  and  N_70 
REMARK   33  A    between atoms: C_37  and  N_68 
REMARK   34  A    between atoms: C_52  and  C_42 
REMARK   35  A    between atoms: C_42  and  N_78 
REMARK   36  A    between atoms: C_43  and  O_83 
REMARK   37  A    between atoms: C_44  and  O_84 
REMARK   38  A    between atoms: O_85  and  C_45 
REMARK   39  A    between atoms: C_46  and  O_86 
REMARK   40  A    between atoms: C_47  and  O_87 
REMARK   41  A    between atoms: O_88  and  C_48 
REMARK   42  A    between atoms: C_49  and  O_89 
REMARK   43  A    between atoms: C_50  and  O_90 
REMARK   44  A    between atoms: O_91  and  C_51 
REMARK   45  A    between atoms: C_52  and  O_92 
ROOT
HETATM    1  C   UNK N   1      34.480  10.943  13.736  0.00  0.00     0.111 C 
HETATM    2  N   UNK N   1      35.714  11.163  13.437  0.00  0.00    -0.362 N 
ATOM      3  HN  UNK N   1      36.346  11.381  14.207  1.00  0.00     0.162 HD
HETATM    4  O   UNK N   1      33.592  10.533  12.811  0.00  0.00    -0.350 OA
HETATM    5  H   UNK N   1      32.947  10.166  12.239  0.00  0.00     0.219 HD
ENDROOT
BRANCH   1   6
HETATM    6  C   UNK N   1      34.003  11.251  15.116  0.00  0.00     0.083 C 
BRANCH   6   7
HETATM    7  C   UNK N   1      34.495  12.609  15.659  0.00  0.00     0.008 C 
BRANCH   7   8
HETATM    8  C   UNK N   1      35.518  12.598  16.809  0.00  0.00     0.005 C 
BRANCH   8   9
HETATM    9  C   UNK N   1      35.001  13.309  18.064  0.00  0.00    -0.019 C 
HETATM   10  C   UNK N   1      35.638  14.686  18.128  0.00  0.00     0.010 C 
BRANCH   9  11
HETATM   11  C   UNK N   1      35.359  12.522  19.320  0.00  0.00    -0.000 C 
HETATM   12  C   UNK N   1      35.494  11.030  19.054  0.00  0.00     0.005 C 
ENDBRANCH   9  11
ENDBRANCH   8   9
ENDBRANCH   7   8
ENDBRANCH   6   7
ENDBRANCH   1   6
BRANCH   2  13
HETATM   13  C   UNK N   1      36.288  11.126  12.102  0.00  0.00     0.159 C 
BRANCH  13  14
HETATM   14  C   UNK N   1      37.313  12.258  12.034  0.00  0.00     0.052 C 
BRANCH  14  15
HETATM   15  C   UNK N   1      36.690  13.635  11.807  0.00  0.00     0.113 C 
BRANCH  15  16
HETATM   16  N   UNK N   1      36.668  14.409  13.036  0.00  0.00    -0.430 N 
HETATM   17  H   UNK N   1      36.079  14.969  13.652  0.00  0.00     0.149 HD
HETATM   18  H   UNK N   1      37.606  14.383  13.438  0.00  0.00     0.149 HD
ENDBRANCH  15  16
ENDBRANCH  14  15
ENDBRANCH  13  14
BRANCH  13  19
HETATM   19  C   UNK N   1      36.708   9.737  11.579  0.00  0.00     0.135 C 
HETATM   20  N   UNK N   1      35.989   8.942  10.842  0.00  0.00    -0.358 N 
ATOM     21  HN  UNK N   1      36.350   7.992  10.750  1.00  0.00     0.162 HD
BRANCH  20  22
HETATM   22  C   UNK N   1      34.751   9.202  10.127  0.00  0.00     0.186 C 
BRANCH  22  23
HETATM   23  C   UNK N   1      33.915   7.911  10.064  0.00  0.00     0.144 C 
HETATM   24  C   UNK N   1      34.681   6.733  10.651  0.00  0.00     0.042 C 
BRANCH  23  25
HETATM   25  O   UNK N   1      33.601   7.621   8.736  0.00  0.00    -0.393 OA
HETATM   26  H   UNK N   1      33.355   6.772   8.338  0.00  0.00     0.210 HD
ENDBRANCH  23  25
ENDBRANCH  22  23
BRANCH  22  27
HETATM   27  C   UNK N   1      35.139   9.620   8.747  0.00  0.00     0.138 C 
HETATM   28  N   UNK N   1      34.641  10.718   8.274  0.00  0.00    -0.361 N 
ATOM     29  HN  UNK N   1      34.084  11.290   8.909  1.00  0.00     0.162 HD
BRANCH  28  30
HETATM   30  C   UNK N   1      34.810  11.200   6.921  0.00  0.00     0.159 C 
BRANCH  30  31
HETATM   31  C   UNK N   1      33.500  11.198   6.126  0.00  0.00     0.052 C 
BRANCH  31  32
HETATM   32  C   UNK N   1      32.800   9.834   6.068  0.00  0.00     0.113 C 
BRANCH  32  33
HETATM   33  N   UNK N   1      33.697   8.765   5.652  0.00  0.00    -0.430 N 
HETATM   34  H   UNK N   1      33.969   7.782   5.671  0.00  0.00     0.149 HD
HETATM   35  H   UNK N   1      34.387   9.218   5.052  0.00  0.00     0.149 HD
ENDBRANCH  32  33
ENDBRANCH  31  32
ENDBRANCH  30  31
BRANCH  30  36
HETATM   36  C   UNK N   1      35.431  12.565   6.991  0.00  0.00     0.135 C 
HETATM   37  N   UNK N   1      35.247  13.474   6.105  0.00  0.00    -0.361 N 
ATOM     38  HN  UNK N   1      35.831  14.300   6.228  1.00  0.00     0.162 HD
BRANCH  37  39
HETATM   39  C   UNK N   1      34.355  13.540   4.958  0.00  0.00     0.159 C 
HETATM   40  C   UNK N   1      35.095  13.890   3.667  0.00  0.00     0.053 C 
HETATM   41  C   UNK N   1      34.395  13.240   2.492  0.00  0.00     0.124 C 
HETATM   42  N   UNK N   1      34.821  11.868   2.496  0.00  0.00    -0.373 N 
HETATM   43  C   UNK N   1      34.088  10.815   2.627  0.00  0.00     0.137 C 
ATOM     44  HN  UNK N   1      35.822  11.708   2.382  1.00  0.00     0.161 HD
HETATM   45  C   UNK N   1      32.549  10.781   2.731  0.00  0.00     0.186 C 
HETATM   46  N   UNK N   1      31.973  12.109   3.009  0.00  0.00    -0.358 N 
HETATM   47  C   UNK N   1      30.778  12.573   3.238  0.00  0.00     0.135 C 
ATOM     48  HN  UNK N   1      32.682  12.842   3.027  1.00  0.00     0.162 HD
HETATM   49  C   UNK N   1      29.449  11.776   3.330  0.00  0.00     0.159 C 
HETATM   50  N   UNK N   1      28.314  12.664   3.609  0.00  0.00    -0.361 N 
HETATM   51  C   UNK N   1      27.850  13.572   2.789  0.00  0.00     0.135 C 
ATOM     52  HN  UNK N   1      27.852  12.566   4.513  1.00  0.00     0.162 HD
HETATM   53  C   UNK N   1      26.689  14.452   3.185  0.00  0.00     0.159 C 
HETATM   54  N   UNK N   1      27.222  15.424   4.108  0.00  0.00    -0.361 N 
HETATM   55  C   UNK N   1      26.612  16.478   4.532  0.00  0.00     0.135 C 
ATOM     56  HN  UNK N   1      28.166  15.262   4.458  1.00  0.00     0.162 HD
HETATM   57  C   UNK N   1      27.424  17.493   5.287  0.00  0.00     0.158 C 
HETATM   58  N   UNK N   1      28.605  17.681   4.468  0.00  0.00    -0.361 N 
HETATM   59  C   UNK N   1      29.849  17.374   4.656  0.00  0.00     0.135 C 
ATOM     60  HN  UNK N   1      28.422  18.141   3.577  1.00  0.00     0.162 HD
HETATM   61  C   UNK N   1      30.494  16.770   5.903  0.00  0.00     0.158 C 
HETATM   62  N   UNK N   1      31.726  17.509   6.089  0.00  0.00    -0.361 N 
HETATM   63  C   UNK N   1      32.754  17.126   6.766  0.00  0.00     0.135 C 
ATOM     64  HN  UNK N   1      31.785  18.423   5.640  1.00  0.00     0.162 HD
HETATM   65  C   UNK N   1      32.813  15.770   7.459  0.00  0.00     0.159 C 
HETATM   66  N   UNK N   1      33.083  14.657   6.587  0.00  0.00    -0.361 N 
HETATM   67  C   UNK N   1      33.442  14.659   5.343  0.00  0.00     0.135 C 
ATOM     68  HN  UNK N   1      32.977  13.735   7.009  1.00  0.00     0.162 HD
BRANCH  43  69
HETATM   69  O   UNK N   1      34.722   9.625   2.614  0.00  0.00    -0.348 OA
HETATM   70  H   UNK N   1      35.258   9.282   1.926  0.00  0.00     0.219 HD
ENDBRANCH  43  69
BRANCH  45  71
HETATM   71  C   UNK N   1      32.069  10.187   1.388  0.00  0.00     0.144 C 
HETATM   72  C   UNK N   1      32.508  11.063   0.222  0.00  0.00     0.042 C 
BRANCH  71  73
HETATM   73  O   UNK N   1      32.550   8.892   1.183  0.00  0.00    -0.393 OA
HETATM   74  H   UNK N   1      32.181   8.307   0.504  0.00  0.00     0.210 HD
ENDBRANCH  71  73
ENDBRANCH  45  71
BRANCH  47  75
HETATM   75  O   UNK N   1      30.687  13.899   3.490  0.00  0.00    -0.348 OA
HETATM   76  H   UNK N   1      30.549  14.352   4.299  0.00  0.00     0.219 HD
ENDBRANCH  47  75
BRANCH  49  77
HETATM   77  C   UNK N   1      29.059  10.839   2.174  0.00  0.00     0.052 C 
BRANCH  77  78
HETATM   78  C   UNK N   1      28.639   9.424   2.546  0.00  0.00     0.113 C 
BRANCH  78  79
HETATM   79  N   UNK N   1      28.670   8.574   1.372  0.00  0.00    -0.430 N 
HETATM   80  H   UNK N   1      27.861   8.009   1.114  0.00  0.00     0.149 HD
HETATM   81  H   UNK N   1      29.511   8.541   0.796  0.00  0.00     0.149 HD
ENDBRANCH  78  79
ENDBRANCH  77  78
ENDBRANCH  49  77
BRANCH  51  82
HETATM   82  O   UNK N   1      28.455  13.800   1.606  0.00  0.00    -0.348 OA
HETATM   83  H   UNK N   1      28.358  13.934   0.684  0.00  0.00     0.219 HD
ENDBRANCH  51  82
BRANCH  53  84
HETATM   84  C   UNK N   1      26.163  15.200   1.940  0.00  0.00     0.052 C 
BRANCH  84  85
HETATM   85  C   UNK N   1      24.822  14.675   1.456  0.00  0.00     0.113 C 
BRANCH  85  86
HETATM   86  N   UNK N   1      23.988  14.357   2.602  0.00  0.00    -0.430 N 
HETATM   87  H   UNK N   1      23.927  14.792   3.523  0.00  0.00     0.149 HD
HETATM   88  H   UNK N   1      23.356  13.568   2.463  0.00  0.00     0.149 HD
ENDBRANCH  85  86
ENDBRANCH  84  85
ENDBRANCH  53  84
BRANCH  55  89
HETATM   89  O   UNK N   1      25.335  16.742   4.163  0.00  0.00    -0.348 OA
HETATM   90  H   UNK N   1      25.074  16.633   3.270  0.00  0.00     0.219 HD
ENDBRANCH  55  89
BRANCH  57  91
HETATM   91  C   UNK N   1      26.695  18.843   5.354  0.00  0.00     0.037 C 
BRANCH  91  92
HETATM   92  C   UNK N   1      27.372  20.047   4.704  0.00  0.00    -0.020 C 
HETATM   93  C   UNK N   1      27.522  21.177   5.699  0.00  0.00     0.009 C 
HETATM   94  C   UNK N   1      26.701  20.517   3.425  0.00  0.00     0.009 C 
ENDBRANCH  91  92
ENDBRANCH  57  91
BRANCH  59  95
HETATM   95  O   UNK N   1      30.677  17.552   3.605  0.00  0.00    -0.348 OA
HETATM   96  H   UNK N   1      31.574  17.618   3.342  0.00  0.00     0.219 HD
ENDBRANCH  59  95
BRANCH  61  97
HETATM   97  C   UNK N   1      29.727  16.639   7.236  0.00  0.00     0.037 C 
BRANCH  97  98
HETATM   98  C   UNK N   1      29.430  17.937   7.995  0.00  0.00    -0.020 C 
HETATM   99  C   UNK N   1      30.468  18.210   9.069  0.00  0.00     0.009 C 
HETATM  100  C   UNK N   1      28.099  17.780   8.701  0.00  0.00     0.009 C 
ENDBRANCH  97  98
ENDBRANCH  61  97
BRANCH  63 101
HETATM  101  O   UNK N   1      33.811  17.958   6.836  0.00  0.00    -0.348 OA
HETATM  102  H   UNK N   1      34.487  18.240   6.253  0.00  0.00     0.219 HD
ENDBRANCH  63 101
BRANCH  65 103
HETATM  103  C   UNK N   1      34.013  15.689   8.411  0.00  0.00     0.052 C 
BRANCH 103 104
HETATM  104  C   UNK N   1      33.676  15.400   9.855  0.00  0.00     0.113 C 
BRANCH 104 105
HETATM  105  N   UNK N   1      32.252  15.136   9.958  0.00  0.00    -0.430 N 
HETATM  106  H   UNK N   1      31.481  14.979  10.607  0.00  0.00     0.149 HD
HETATM  107  H   UNK N   1      31.875  15.090   9.011  0.00  0.00     0.149 HD
ENDBRANCH 104 105
ENDBRANCH 103 104
ENDBRANCH  65 103
BRANCH  67 108
HETATM  108  O   UNK N   1      33.331  15.753   4.559  0.00  0.00    -0.348 OA
HETATM  109  H   UNK N   1      33.399  16.235   3.758  0.00  0.00     0.219 HD
ENDBRANCH  67 108
ENDBRANCH  37  39
BRANCH  36 110
HETATM  110  O   UNK N   1      36.225  12.870   8.033  0.00  0.00    -0.348 OA
HETATM  111  H   UNK N   1      36.055  12.633   8.923  0.00  0.00     0.219 HD
ENDBRANCH  36 110
ENDBRANCH  30  36
ENDBRANCH  28  30
BRANCH  27 112
HETATM  112  O   UNK N   1      35.963   8.841   8.011  0.00  0.00    -0.348 OA
HETATM  113  H   UNK N   1      36.285   8.132   7.490  0.00  0.00     0.219 HD
ENDBRANCH  27 112
ENDBRANCH  22  27
ENDBRANCH  20  22
BRANCH  19 114
HETATM  114  O   UNK N   1      37.901   9.269  11.996  0.00  0.00    -0.348 OA
HETATM  115  H   UNK N   1      38.729   9.358  12.425  0.00  0.00     0.219 HD
ENDBRANCH  19 114
ENDBRANCH  13  19
ENDBRANCH   2  13
TORSDOF 45
ENDMDL
MODEL 6
REMARK VINA RESULT:      -5.7      2.692      5.474
REMARK WARNING: 32 MAX_TORS EXCEEDED!!!
REMARK  45 active torsions:
REMARK  status: ('A' for Active; 'I' for Inactive)
REMARK    1  A    between atoms: C_29  and  C_9 
REMARK    2  A    between atoms: C_11  and  C_10 
REMARK    3  A    between atoms: C_12  and  C_10 
REMARK    4  A    between atoms: C_29  and  C_11 
REMARK    5  A    between atoms: C_40  and  C_12 
REMARK    6  A    between atoms: C_19  and  C_13 
REMARK    7  A    between atoms: C_32  and  C_13 
REMARK    8  A    between atoms: C_20  and  C_14 
REMARK    9  A    between atoms: C_33  and  C_14 
REMARK   10  A    between atoms: C_21  and  C_15 
REMARK   11  A    between atoms: C_34  and  C_15 
REMARK   12  A    between atoms: C_22  and  C_16 
REMARK   13  A    between atoms: C_35  and  C_16 
REMARK   14  A    between atoms: C_23  and  C_17 
REMARK   15  A    between atoms: C_36  and  C_17 
REMARK   16  A    between atoms: N_53  and  C_19 
REMARK   17  A    between atoms: N_54  and  C_20 
REMARK   18  A    between atoms: N_55  and  C_21 
REMARK   19  A    between atoms: N_56  and  C_22 
REMARK   20  A    between atoms: N_57  and  C_23 
REMARK   21  A    between atoms: C_27  and  C_25 
REMARK   22  A    between atoms: C_38  and  C_25 
REMARK   23  A    between atoms: C_28  and  C_26 
REMARK   24  A    between atoms: C_39  and  C_26 
REMARK   25  A    between atoms: C_41  and  C_30 
REMARK   26  A    between atoms: C_30  and  O_80 
REMARK   27  A    between atoms: C_42  and  C_31 
REMARK   28  A    between atoms: C_31  and  O_81 
REMARK   29  A    between atoms: C_47  and  C_32 
REMARK   30  A    between atoms: C_32  and  N_60 
REMARK   31  A    between atoms: C_44  and  C_35 
REMARK   32  A    between atoms: C_35  and  N_70 
REMARK   33  A    between atoms: C_37  and  N_68 
REMARK   34  A    between atoms: C_52  and  C_42 
REMARK   35  A    between atoms: C_42  and  N_78 
REMARK   36  A    between atoms: C_43  and  O_83 
REMARK   37  A    between atoms: C_44  and  O_84 
REMARK   38  A    between atoms: O_85  and  C_45 
REMARK   39  A    between atoms: C_46  and  O_86 
REMARK   40  A    between atoms: C_47  and  O_87 
REMARK   41  A    between atoms: O_88  and  C_48 
REMARK   42  A    between atoms: C_49  and  O_89 
REMARK   43  A    between atoms: C_50  and  O_90 
REMARK   44  A    between atoms: O_91  and  C_51 
REMARK   45  A    between atoms: C_52  and  O_92 
ROOT
HETATM    1  C   UNK N   1      21.869  15.323   7.049  0.00  0.00     0.111 C 
HETATM    2  N   UNK N   1      22.927  14.782   6.549  0.00  0.00    -0.362 N 
ATOM      3  HN  UNK N   1      22.895  13.779   6.368  1.00  0.00     0.162 HD
HETATM    4  O   UNK N   1      21.768  16.654   7.217  0.00  0.00    -0.350 OA
HETATM    5  H   UNK N   1      21.600  17.574   7.279  0.00  0.00     0.219 HD
ENDROOT
BRANCH   1   6
HETATM    6  C   UNK N   1      20.774  14.442   7.550  0.00  0.00     0.083 C 
BRANCH   6   7
HETATM    7  C   UNK N   1      20.723  14.319   9.088  0.00  0.00     0.008 C 
BRANCH   7   8
HETATM    8  C   UNK N   1      21.982  13.812   9.814  0.00  0.00     0.005 C 
BRANCH   8   9
HETATM    9  C   UNK N   1      21.838  12.367  10.303  0.00  0.00    -0.019 C 
HETATM   10  C   UNK N   1      20.690  12.312  11.295  0.00  0.00     0.010 C 
BRANCH   9  11
HETATM   11  C   UNK N   1      23.119  11.892  10.978  0.00  0.00    -0.000 C 
HETATM   12  C   UNK N   1      23.028  11.935  12.496  0.00  0.00     0.005 C 
ENDBRANCH   9  11
ENDBRANCH   8   9
ENDBRANCH   7   8
ENDBRANCH   6   7
ENDBRANCH   1   6
BRANCH   2  13
HETATM   13  C   UNK N   1      24.163  15.473   6.220  0.00  0.00     0.159 C 
BRANCH  13  14
HETATM   14  C   UNK N   1      25.233  14.933   7.167  0.00  0.00     0.052 C 
BRANCH  14  15
HETATM   15  C   UNK N   1      25.071  13.448   7.491  0.00  0.00     0.113 C 
BRANCH  15  16
HETATM   16  N   UNK N   1      25.541  12.619   6.395  0.00  0.00    -0.430 N 
HETATM   17  H   UNK N   1      26.337  12.418   5.789  0.00  0.00     0.149 HD
HETATM   18  H   UNK N   1      24.778  11.997   6.126  0.00  0.00     0.149 HD
ENDBRANCH  15  16
ENDBRANCH  14  15
ENDBRANCH  13  14
BRANCH  13  19
HETATM   19  C   UNK N   1      24.508  15.573   4.719  0.00  0.00     0.135 C 
HETATM   20  N   UNK N   1      25.411  16.343   4.186  0.00  0.00    -0.358 N 
ATOM     21  HN  UNK N   1      25.371  16.416   3.169  1.00  0.00     0.162 HD
BRANCH  20  22
HETATM   22  C   UNK N   1      26.469  17.112   4.819  0.00  0.00     0.186 C 
BRANCH  22  23
HETATM   23  C   UNK N   1      26.491  18.534   4.229  0.00  0.00     0.144 C 
HETATM   24  C   UNK N   1      26.498  19.585   5.331  0.00  0.00     0.042 C 
BRANCH  23  25
HETATM   25  O   UNK N   1      25.361  18.729   3.434  0.00  0.00    -0.393 OA
HETATM   26  H   UNK N   1      24.425  18.716   3.690  0.00  0.00     0.210 HD
ENDBRANCH  23  25
ENDBRANCH  22  23
BRANCH  22  27
HETATM   27  C   UNK N   1      27.749  16.413   4.499  0.00  0.00     0.138 C 
HETATM   28  N   UNK N   1      27.756  15.118   4.487  0.00  0.00    -0.361 N 
ATOM     29  HN  UNK N   1      26.860  14.644   4.604  1.00  0.00     0.162 HD
BRANCH  28  30
HETATM   30  C   UNK N   1      28.930  14.288   4.323  0.00  0.00     0.159 C 
BRANCH  30  31
HETATM   31  C   UNK N   1      28.701  12.845   4.786  0.00  0.00     0.052 C 
BRANCH  31  32
HETATM   32  C   UNK N   1      29.899  11.914   4.562  0.00  0.00     0.113 C 
BRANCH  32  33
HETATM   33  N   UNK N   1      29.692  10.592   5.136  0.00  0.00    -0.430 N 
HETATM   34  H   UNK N   1      30.070   9.736   5.544  0.00  0.00     0.149 HD
HETATM   35  H   UNK N   1      28.681  10.455   5.125  0.00  0.00     0.149 HD
ENDBRANCH  32  33
ENDBRANCH  31  32
ENDBRANCH  30  31
BRANCH  30  36
HETATM   36  C   UNK N   1      29.352  14.364   2.885  0.00  0.00     0.135 C 
HETATM   37  N   UNK N   1      30.500  14.792   2.505  0.00  0.00    -0.361 N 
ATOM     38  HN  UNK N   1      30.591  14.900   1.495  1.00  0.00     0.162 HD
BRANCH  37  39
HETATM   39  C   UNK N   1      31.694  15.150   3.252  0.00  0.00     0.159 C 
HETATM   40  C   UNK N   1      32.131  16.593   2.992  0.00  0.00     0.053 C 
HETATM   41  C   UNK N   1      32.804  17.147   4.230  0.00  0.00     0.124 C 
HETATM   42  N   UNK N   1      31.738  17.513   5.122  0.00  0.00    -0.373 N 
HETATM   43  C   UNK N   1      31.503  17.048   6.302  0.00  0.00     0.137 C 
ATOM     44  HN  UNK N   1      31.092  18.224   4.781  1.00  0.00     0.161 HD
HETATM   45  C   UNK N   1      32.372  16.032   7.073  0.00  0.00     0.186 C 
HETATM   46  N   UNK N   1      33.354  15.356   6.206  0.00  0.00    -0.358 N 
HETATM   47  C   UNK N   1      34.236  14.412   6.363  0.00  0.00     0.135 C 
ATOM     48  HN  UNK N   1      33.338  15.715   5.251  1.00  0.00     0.162 HD
HETATM   49  C   UNK N   1      34.536  13.595   7.649  0.00  0.00     0.159 C 
HETATM   50  N   UNK N   1      35.603  12.613   7.419  0.00  0.00    -0.361 N 
HETATM   51  C   UNK N   1      36.854  12.907   7.172  0.00  0.00     0.135 C 
ATOM     52  HN  UNK N   1      35.349  11.627   7.454  1.00  0.00     0.162 HD
HETATM   53  C   UNK N   1      37.871  11.818   6.925  0.00  0.00     0.159 C 
HETATM   54  N   UNK N   1      37.621  11.335   5.589  0.00  0.00    -0.361 N 
HETATM   55  C   UNK N   1      38.387  10.545   4.916  0.00  0.00     0.135 C 
ATOM     56  HN  UNK N   1      36.762  11.645   5.136  1.00  0.00     0.162 HD
HETATM   57  C   UNK N   1      38.081  10.362   3.455  0.00  0.00     0.158 C 
HETATM   58  N   UNK N   1      37.902  11.711   2.959  0.00  0.00    -0.361 N 
HETATM   59  C   UNK N   1      36.860  12.344   2.522  0.00  0.00     0.135 C 
ATOM     60  HN  UNK N   1      38.757  12.267   2.952  1.00  0.00     0.162 HD
HETATM   61  C   UNK N   1      35.448  11.799   2.302  0.00  0.00     0.158 C 
HETATM   62  N   UNK N   1      35.026  12.341   1.027  0.00  0.00    -0.361 N 
HETATM   63  C   UNK N   1      33.812  12.463   0.610  0.00  0.00     0.135 C 
ATOM     64  HN  UNK N   1      35.763  12.659   0.397  1.00  0.00     0.162 HD
HETATM   65  C   UNK N   1      32.615  12.059   1.463  0.00  0.00     0.159 C 
HETATM   66  N   UNK N   1      32.262  13.001   2.493  0.00  0.00    -0.361 N 
HETATM   67  C   UNK N   1      32.704  14.202   2.692  0.00  0.00     0.135 C 
ATOM     68  HN  UNK N   1      31.564  12.677   3.162  1.00  0.00     0.162 HD
BRANCH  43  69
HETATM   69  O   UNK N   1      30.426  17.539   6.947  0.00  0.00    -0.348 OA
HETATM   70  H   UNK N   1      30.292  18.424   7.223  0.00  0.00     0.219 HD
ENDBRANCH  43  69
BRANCH  45  71
HETATM   71  C   UNK N   1      33.032  16.849   8.206  0.00  0.00     0.144 C 
HETATM   72  C   UNK N   1      33.909  17.956   7.635  0.00  0.00     0.042 C 
BRANCH  71  73
HETATM   73  O   UNK N   1      32.088  17.420   9.063  0.00  0.00    -0.393 OA
HETATM   74  H   UNK N   1      31.888  18.369   9.050  0.00  0.00     0.210 HD
ENDBRANCH  71  73
ENDBRANCH  45  71
BRANCH  47  75
HETATM   75  O   UNK N   1      34.933  14.051   5.262  0.00  0.00    -0.348 OA
HETATM   76  H   UNK N   1      35.712  13.536   5.182  0.00  0.00     0.219 HD
ENDBRANCH  47  75
BRANCH  49  77
HETATM   77  C   UNK N   1      34.842  14.346   8.956  0.00  0.00     0.052 C 
BRANCH  77  78
HETATM   78  C   UNK N   1      34.160  13.837  10.218  0.00  0.00     0.113 C 
BRANCH  78  79
HETATM   79  N   UNK N   1      33.545  14.941  10.929  0.00  0.00    -0.430 N 
HETATM   80  H   UNK N   1      33.927  15.885  10.860  0.00  0.00     0.149 HD
HETATM   81  H   UNK N   1      32.720  14.773  11.504  0.00  0.00     0.149 HD
ENDBRANCH  78  79
ENDBRANCH  77  78
ENDBRANCH  49  77
BRANCH  51  82
HETATM   82  O   UNK N   1      37.245  14.191   7.045  0.00  0.00    -0.348 OA
HETATM   83  H   UNK N   1      37.384  15.018   7.463  0.00  0.00     0.219 HD
ENDBRANCH  51  82
BRANCH  53  84
HETATM   84  C   UNK N   1      39.292  12.421   6.968  0.00  0.00     0.052 C 
BRANCH  84  85
HETATM   85  C   UNK N   1      40.020  12.131   8.270  0.00  0.00     0.113 C 
BRANCH  85  86
HETATM   86  N   UNK N   1      40.173  10.694   8.423  0.00  0.00    -0.430 N 
HETATM   87  H   UNK N   1      39.640  10.022   8.975  0.00  0.00     0.149 HD
HETATM   88  H   UNK N   1      40.943  10.290   7.889  0.00  0.00     0.149 HD
ENDBRANCH  85  86
ENDBRANCH  84  85
ENDBRANCH  53  84
BRANCH  55  89
HETATM   89  O   UNK N   1      39.520  10.039   5.459  0.00  0.00    -0.348 OA
HETATM   90  H   UNK N   1      40.276  10.583   5.557  0.00  0.00     0.219 HD
ENDBRANCH  55  89
BRANCH  57  91
HETATM   91  C   UNK N   1      39.282   9.757   2.712  0.00  0.00     0.037 C 
BRANCH  91  92
HETATM   92  C   UNK N   1      39.209   8.282   2.328  0.00  0.00    -0.020 C 
HETATM   93  C   UNK N   1      39.961   8.026   1.041  0.00  0.00     0.009 C 
HETATM   94  C   UNK N   1      37.796   7.729   2.266  0.00  0.00     0.009 C 
ENDBRANCH  91  92
ENDBRANCH  57  91
BRANCH  59  95
HETATM   95  O   UNK N   1      37.014  13.662   2.283  0.00  0.00    -0.348 OA
HETATM   96  H   UNK N   1      36.603  14.503   2.338  0.00  0.00     0.219 HD
ENDBRANCH  59  95
BRANCH  61  97
HETATM   97  C   UNK N   1      35.134  10.290   2.386  0.00  0.00     0.037 C 
BRANCH  97  98
HETATM   98  C   UNK N   1      34.234   9.832   3.537  0.00  0.00    -0.020 C 
HETATM   99  C   UNK N   1      34.141  10.882   4.630  0.00  0.00     0.009 C 
HETATM  100  C   UNK N   1      34.854   8.600   4.164  0.00  0.00     0.009 C 
ENDBRANCH  97  98
ENDBRANCH  61  97
BRANCH  63 101
HETATM  101  O   UNK N   1      33.614  12.983  -0.616  0.00  0.00    -0.348 OA
HETATM  102  H   UNK N   1      33.696  12.681  -1.499  0.00  0.00     0.219 HD
ENDBRANCH  63 101
BRANCH  65 103
HETATM  103  C   UNK N   1      31.326  12.043   0.632  0.00  0.00     0.052 C 
BRANCH 103 104
HETATM  104  C   UNK N   1      30.305  11.008   1.039  0.00  0.00     0.113 C 
BRANCH 104 105
HETATM  105  N   UNK N   1      29.003  11.418   0.545  0.00  0.00    -0.430 N 
HETATM  106  H   UNK N   1      28.482  12.178   0.108  0.00  0.00     0.149 HD
HETATM  107  H   UNK N   1      28.356  10.643   0.693  0.00  0.00     0.149 HD
ENDBRANCH 104 105
ENDBRANCH 103 104
ENDBRANCH  65 103
BRANCH  67 108
HETATM  108  O   UNK N   1      33.828  14.666   2.104  0.00  0.00    -0.348 OA
HETATM  109  H   UNK N   1      34.733  14.642   1.863  0.00  0.00     0.219 HD
ENDBRANCH  67 108
ENDBRANCH  37  39
BRANCH  36 110
HETATM  110  O   UNK N   1      28.494  13.966   1.929  0.00  0.00    -0.348 OA
HETATM  111  H   UNK N   1      28.570  14.177   1.019  0.00  0.00     0.219 HD
ENDBRANCH  36 110
ENDBRANCH  30  36
ENDBRANCH  28  30
BRANCH  27 112
HETATM  112  O   UNK N   1      28.871  17.130   4.264  0.00  0.00    -0.348 OA
HETATM  113  H   UNK N   1      29.519  17.648   3.830  0.00  0.00     0.219 HD
ENDBRANCH  27 112
ENDBRANCH  22  27
ENDBRANCH  20  22
BRANCH  19 114
HETATM  114  O   UNK N   1      23.743  14.854   3.874  0.00  0.00    -0.348 OA
HETATM  115  H   UNK N   1      23.029  14.750   3.277  0.00  0.00     0.219 HD
ENDBRANCH  19 114
ENDBRANCH  13  19
ENDBRANCH   2  13
TORSDOF 45
ENDMDL
MODEL 7
REMARK VINA RESULT:      -5.6      3.291     10.987
REMARK WARNING: 32 MAX_TORS EXCEEDED!!!
REMARK  45 active torsions:
REMARK  status: ('A' for Active; 'I' for Inactive)
REMARK    1  A    between atoms: C_29  and  C_9 
REMARK    2  A    between atoms: C_11  and  C_10 
REMARK    3  A    between atoms: C_12  and  C_10 
REMARK    4  A    between atoms: C_29  and  C_11 
REMARK    5  A    between atoms: C_40  and  C_12 
REMARK    6  A    between atoms: C_19  and  C_13 
REMARK    7  A    between atoms: C_32  and  C_13 
REMARK    8  A    between atoms: C_20  and  C_14 
REMARK    9  A    between atoms: C_33  and  C_14 
REMARK   10  A    between atoms: C_21  and  C_15 
REMARK   11  A    between atoms: C_34  and  C_15 
REMARK   12  A    between atoms: C_22  and  C_16 
REMARK   13  A    between atoms: C_35  and  C_16 
REMARK   14  A    between atoms: C_23  and  C_17 
REMARK   15  A    between atoms: C_36  and  C_17 
REMARK   16  A    between atoms: N_53  and  C_19 
REMARK   17  A    between atoms: N_54  and  C_20 
REMARK   18  A    between atoms: N_55  and  C_21 
REMARK   19  A    between atoms: N_56  and  C_22 
REMARK   20  A    between atoms: N_57  and  C_23 
REMARK   21  A    between atoms: C_27  and  C_25 
REMARK   22  A    between atoms: C_38  and  C_25 
REMARK   23  A    between atoms: C_28  and  C_26 
REMARK   24  A    between atoms: C_39  and  C_26 
REMARK   25  A    between atoms: C_41  and  C_30 
REMARK   26  A    between atoms: C_30  and  O_80 
REMARK   27  A    between atoms: C_42  and  C_31 
REMARK   28  A    between atoms: C_31  and  O_81 
REMARK   29  A    between atoms: C_47  and  C_32 
REMARK   30  A    between atoms: C_32  and  N_60 
REMARK   31  A    between atoms: C_44  and  C_35 
REMARK   32  A    between atoms: C_35  and  N_70 
REMARK   33  A    between atoms: C_37  and  N_68 
REMARK   34  A    between atoms: C_52  and  C_42 
REMARK   35  A    between atoms: C_42  and  N_78 
REMARK   36  A    between atoms: C_43  and  O_83 
REMARK   37  A    between atoms: C_44  and  O_84 
REMARK   38  A    between atoms: O_85  and  C_45 
REMARK   39  A    between atoms: C_46  and  O_86 
REMARK   40  A    between atoms: C_47  and  O_87 
REMARK   41  A    between atoms: O_88  and  C_48 
REMARK   42  A    between atoms: C_49  and  O_89 
REMARK   43  A    between atoms: C_50  and  O_90 
REMARK   44  A    between atoms: O_91  and  C_51 
REMARK   45  A    between atoms: C_52  and  O_92 
ROOT
HETATM    1  C   UNK N   1      34.925  16.015  10.067  0.00  0.00     0.111 C 
HETATM    2  N   UNK N   1      33.888  16.708   9.743  0.00  0.00    -0.362 N 
ATOM      3  HN  UNK N   1      33.552  17.388  10.425  1.00  0.00     0.162 HD
HETATM    4  O   UNK N   1      35.516  15.177   9.196  0.00  0.00    -0.350 OA
HETATM    5  H   UNK N   1      36.022  14.645   8.615  0.00  0.00     0.219 HD
ENDROOT
BRANCH   1   6
HETATM    6  C   UNK N   1      35.418  16.066  11.475  0.00  0.00     0.083 C 
BRANCH   6   7
HETATM    7  C   UNK N   1      36.091  14.761  11.951  0.00  0.00     0.008 C 
BRANCH   7   8
HETATM    8  C   UNK N   1      35.183  13.588  12.359  0.00  0.00     0.005 C 
BRANCH   8   9
HETATM    9  C   UNK N   1      35.764  12.767  13.515  0.00  0.00    -0.019 C 
HETATM   10  C   UNK N   1      34.628  12.004  14.174  0.00  0.00     0.010 C 
BRANCH   9  11
HETATM   11  C   UNK N   1      36.433  13.673  14.542  0.00  0.00    -0.000 C 
HETATM   12  C   UNK N   1      35.961  13.394  15.961  0.00  0.00     0.005 C 
ENDBRANCH   9  11
ENDBRANCH   8   9
ENDBRANCH   7   8
ENDBRANCH   6   7
ENDBRANCH   1   6
BRANCH   2  13
HETATM   13  C   UNK N   1      33.154  16.609   8.493  0.00  0.00     0.159 C 
BRANCH  13  14
HETATM   14  C   UNK N   1      31.668  16.650   8.852  0.00  0.00     0.052 C 
BRANCH  14  15
HETATM   15  C   UNK N   1      31.021  18.015   8.621  0.00  0.00     0.113 C 
BRANCH  15  16
HETATM   16  N   UNK N   1      30.172  18.388   9.738  0.00  0.00    -0.430 N 
HETATM   17  H   UNK N   1      30.158  18.831  10.657  0.00  0.00     0.149 HD
HETATM   18  H   UNK N   1      29.220  18.090   9.521  0.00  0.00     0.149 HD
ENDBRANCH  15  16
ENDBRANCH  14  15
ENDBRANCH  13  14
BRANCH  13  19
HETATM   19  C   UNK N   1      33.645  17.511   7.341  0.00  0.00     0.135 C 
HETATM   20  N   UNK N   1      33.503  17.280   6.069  0.00  0.00    -0.358 N 
ATOM     21  HN  UNK N   1      34.052  17.883   5.456  1.00  0.00     0.162 HD
BRANCH  20  22
HETATM   22  C   UNK N   1      32.681  16.294   5.388  0.00  0.00     0.186 C 
BRANCH  22  23
HETATM   23  C   UNK N   1      33.457  15.721   4.188  0.00  0.00     0.144 C 
HETATM   24  C   UNK N   1      32.606  14.726   3.410  0.00  0.00     0.042 C 
BRANCH  23  25
HETATM   25  O   UNK N   1      34.603  15.067   4.640  0.00  0.00    -0.393 OA
HETATM   26  H   UNK N   1      35.377  15.436   5.093  0.00  0.00     0.210 HD
ENDBRANCH  23  25
ENDBRANCH  22  23
BRANCH  22  27
HETATM   27  C   UNK N   1      31.467  17.018   4.904  0.00  0.00     0.138 C 
HETATM   28  N   UNK N   1      30.305  16.589   5.281  0.00  0.00    -0.361 N 
ATOM     29  HN  UNK N   1      30.285  15.835   5.968  1.00  0.00     0.162 HD
BRANCH  28  30
HETATM   30  C   UNK N   1      29.033  17.091   4.808  0.00  0.00     0.159 C 
BRANCH  30  31
HETATM   31  C   UNK N   1      28.925  18.616   4.911  0.00  0.00     0.052 C 
BRANCH  31  32
HETATM   32  C   UNK N   1      27.853  19.234   4.005  0.00  0.00     0.113 C 
BRANCH  32  33
HETATM   33  N   UNK N   1      27.303  20.466   4.553  0.00  0.00    -0.430 N 
HETATM   34  H   UNK N   1      27.134  21.081   5.350  0.00  0.00     0.149 HD
HETATM   35  H   UNK N   1      26.883  20.945   3.757  0.00  0.00     0.149 HD
ENDBRANCH  32  33
ENDBRANCH  31  32
ENDBRANCH  30  31
BRANCH  30  36
HETATM   36  C   UNK N   1      28.836  16.600   3.403  0.00  0.00     0.135 C 
HETATM   37  N   UNK N   1      27.778  15.994   3.006  0.00  0.00    -0.361 N 
ATOM     38  HN  UNK N   1      27.844  15.614   2.062  1.00  0.00     0.162 HD
BRANCH  37  39
HETATM   39  C   UNK N   1      26.501  15.751   3.657  0.00  0.00     0.159 C 
HETATM   40  C   UNK N   1      26.544  16.057   5.155  0.00  0.00     0.053 C 
HETATM   41  C   UNK N   1      25.180  16.526   5.613  0.00  0.00     0.124 C 
HETATM   42  N   UNK N   1      25.090  17.905   5.221  0.00  0.00    -0.373 N 
HETATM   43  C   UNK N   1      24.238  18.442   4.415  0.00  0.00     0.137 C 
ATOM     44  HN  UNK N   1      25.782  18.534   5.628  1.00  0.00     0.161 HD
HETATM   45  C   UNK N   1      23.049  17.729   3.737  0.00  0.00     0.186 C 
HETATM   46  N   UNK N   1      23.149  16.261   3.819  0.00  0.00    -0.358 N 
HETATM   47  C   UNK N   1      22.456  15.256   3.365  0.00  0.00     0.135 C 
ATOM     48  HN  UNK N   1      23.957  15.958   4.364  1.00  0.00     0.162 HD
HETATM   49  C   UNK N   1      21.188  15.302   2.471  0.00  0.00     0.159 C 
HETATM   50  N   UNK N   1      20.703  13.951   2.166  0.00  0.00    -0.361 N 
HETATM   51  C   UNK N   1      20.199  13.118   3.041  0.00  0.00     0.135 C 
ATOM     52  HN  UNK N   1      20.763  13.637   1.198  1.00  0.00     0.162 HD
HETATM   53  C   UNK N   1      19.750  11.737   2.627  0.00  0.00     0.159 C 
HETATM   54  N   UNK N   1      20.954  10.964   2.444  0.00  0.00    -0.361 N 
HETATM   55  C   UNK N   1      21.014   9.686   2.282  0.00  0.00     0.135 C 
ATOM     56  HN  UNK N   1      21.837  11.475   2.441  1.00  0.00     0.162 HD
HETATM   57  C   UNK N   1      22.370   9.041   2.363  0.00  0.00     0.158 C 
HETATM   58  N   UNK N   1      22.956   9.597   3.565  0.00  0.00    -0.361 N 
HETATM   59  C   UNK N   1      23.950  10.405   3.752  0.00  0.00     0.135 C 
ATOM     60  HN  UNK N   1      22.500   9.294   4.426  1.00  0.00     0.162 HD
HETATM   61  C   UNK N   1      24.913  10.975   2.710  0.00  0.00     0.158 C 
HETATM   62  N   UNK N   1      26.226  10.878   3.312  0.00  0.00    -0.361 N 
HETATM   63  C   UNK N   1      27.273  11.551   2.980  0.00  0.00     0.135 C 
ATOM     64  HN  UNK N   1      26.332  10.209   4.076  1.00  0.00     0.162 HD
HETATM   65  C   UNK N   1      27.246  12.606   1.879  0.00  0.00     0.159 C 
HETATM   66  N   UNK N   1      26.666  13.866   2.264  0.00  0.00    -0.361 N 
HETATM   67  C   UNK N   1      26.319  14.283   3.440  0.00  0.00     0.135 C 
ATOM     68  HN  UNK N   1      26.506  14.525   1.503  1.00  0.00     0.162 HD
BRANCH  43  69
HETATM   69  O   UNK N   1      24.363  19.765   4.188  0.00  0.00    -0.348 OA
HETATM   70  H   UNK N   1      23.717  20.335   3.821  0.00  0.00     0.219 HD
ENDBRANCH  43  69
BRANCH  45  71
HETATM   71  C   UNK N   1      21.793  18.287   4.442  0.00  0.00     0.144 C 
HETATM   72  C   UNK N   1      21.864  18.047   5.944  0.00  0.00     0.042 C 
BRANCH  71  73
HETATM   73  O   UNK N   1      21.623  19.654   4.213  0.00  0.00    -0.393 OA
HETATM   74  H   UNK N   1      22.353  20.287   4.304  0.00  0.00     0.210 HD
ENDBRANCH  71  73
ENDBRANCH  45  71
BRANCH  47  75
HETATM   75  O   UNK N   1      22.930  14.022   3.651  0.00  0.00    -0.348 OA
HETATM   76  H   UNK N   1      23.132  13.629   4.477  0.00  0.00     0.219 HD
ENDBRANCH  47  75
BRANCH  49  77
HETATM   77  C   UNK N   1      19.991  16.159   2.916  0.00  0.00     0.052 C 
BRANCH  77  78
HETATM   78  C   UNK N   1      19.628  17.346   2.035  0.00  0.00     0.113 C 
BRANCH  78  79
HETATM   79  N   UNK N   1      19.338  16.892   0.688  0.00  0.00    -0.430 N 
HETATM   80  H   UNK N   1      18.491  16.360   0.486  0.00  0.00     0.149 HD
HETATM   81  H   UNK N   1      19.989  17.108  -0.067  0.00  0.00     0.149 HD
ENDBRANCH  78  79
ENDBRANCH  77  78
ENDBRANCH  49  77
BRANCH  51  82
HETATM   82  O   UNK N   1      20.151  13.443   4.349  0.00  0.00    -0.348 OA
HETATM   83  H   UNK N   1      20.009  13.155   5.229  0.00  0.00     0.219 HD
ENDBRANCH  51  82
BRANCH  53  84
HETATM   84  C   UNK N   1      18.929  11.099   3.769  0.00  0.00     0.052 C 
BRANCH  84  85
HETATM   85  C   UNK N   1      17.447  11.002   3.452  0.00  0.00     0.113 C 
BRANCH  85  86
HETATM   86  N   UNK N   1      17.277  10.636   2.057  0.00  0.00    -0.430 N 
HETATM   87  H   UNK N   1      17.889  10.123   1.423  0.00  0.00     0.149 HD
HETATM   88  H   UNK N   1      16.397  10.943   1.641  0.00  0.00     0.149 HD
ENDBRANCH  85  86
ENDBRANCH  84  85
ENDBRANCH  53  84
BRANCH  55  89
HETATM   89  O   UNK N   1      19.888   8.936   2.217  0.00  0.00    -0.348 OA
HETATM   90  H   UNK N   1      19.123   9.276   1.795  0.00  0.00     0.219 HD
ENDBRANCH  55  89
BRANCH  57  91
HETATM   91  C   UNK N   1      22.246   7.525   2.573  0.00  0.00     0.037 C 
BRANCH  91  92
HETATM   92  C   UNK N   1      22.347   6.997   4.002  0.00  0.00    -0.020 C 
HETATM   93  C   UNK N   1      23.461   5.980   4.118  0.00  0.00     0.009 C 
HETATM   94  C   UNK N   1      21.040   6.456   4.554  0.00  0.00     0.009 C 
ENDBRANCH  91  92
ENDBRANCH  57  91
BRANCH  59  95
HETATM   95  O   UNK N   1      24.133  10.851   5.013  0.00  0.00    -0.348 OA
HETATM   96  H   UNK N   1      24.361  11.595   5.535  0.00  0.00     0.219 HD
ENDBRANCH  59  95
BRANCH  61  97
HETATM   97  C   UNK N   1      24.938  10.459   1.255  0.00  0.00     0.037 C 
BRANCH  97  98
HETATM   98  C   UNK N   1      24.421  11.412   0.173  0.00  0.00    -0.020 C 
HETATM   99  C   UNK N   1      23.650  12.576   0.771  0.00  0.00     0.009 C 
HETATM  100  C   UNK N   1      23.451  10.650  -0.706  0.00  0.00     0.009 C 
ENDBRANCH  97  98
ENDBRANCH  61  97
BRANCH  63 101
HETATM  101  O   UNK N   1      28.417  11.316   3.651  0.00  0.00    -0.348 OA
HETATM  102  H   UNK N   1      28.663  11.215   4.549  0.00  0.00     0.219 HD
ENDBRANCH  63 101
BRANCH  65 103
HETATM  103  C   UNK N   1      28.667  13.045   1.502  0.00  0.00     0.052 C 
BRANCH 103 104
HETATM  104  C   UNK N   1      29.341  12.211   0.438  0.00  0.00     0.113 C 
BRANCH 104 105
HETATM  105  N   UNK N   1      30.170  11.211   1.085  0.00  0.00    -0.430 N 
HETATM  106  H   UNK N   1      31.116  10.990   1.396  0.00  0.00     0.149 HD
HETATM  107  H   UNK N   1      29.573  10.419   1.323  0.00  0.00     0.149 HD
ENDBRANCH 104 105
ENDBRANCH 103 104
ENDBRANCH  65 103
BRANCH  67 108
HETATM  108  O   UNK N   1      26.176  13.448   4.492  0.00  0.00    -0.348 OA
HETATM  109  H   UNK N   1      26.178  12.616   4.923  0.00  0.00     0.219 HD
ENDBRANCH  67 108
ENDBRANCH  37  39
BRANCH  36 110
HETATM  110  O   UNK N   1      29.810  16.799   2.498  0.00  0.00    -0.348 OA
HETATM  111  H   UNK N   1      30.222  17.623   2.327  0.00  0.00     0.219 HD
ENDBRANCH  36 110
ENDBRANCH  30  36
ENDBRANCH  28  30
BRANCH  27 112
HETATM  112  O   UNK N   1      31.597  18.071   4.066  0.00  0.00    -0.348 OA
HETATM  113  H   UNK N   1      31.787  18.928   3.739  0.00  0.00     0.219 HD
ENDBRANCH  27 112
ENDBRANCH  22  27
ENDBRANCH  20  22
BRANCH  19 114
HETATM  114  O   UNK N   1      34.360  18.598   7.688  0.00  0.00    -0.348 OA
HETATM  115  H   UNK N   1      34.992  19.269   7.523  0.00  0.00     0.219 HD
ENDBRANCH  19 114
ENDBRANCH  13  19
ENDBRANCH   2  13
TORSDOF 45
ENDMDL
MODEL 8
REMARK VINA RESULT:      -5.6      3.485     11.133
REMARK WARNING: 32 MAX_TORS EXCEEDED!!!
REMARK  45 active torsions:
REMARK  status: ('A' for Active; 'I' for Inactive)
REMARK    1  A    between atoms: C_29  and  C_9 
REMARK    2  A    between atoms: C_11  and  C_10 
REMARK    3  A    between atoms: C_12  and  C_10 
REMARK    4  A    between atoms: C_29  and  C_11 
REMARK    5  A    between atoms: C_40  and  C_12 
REMARK    6  A    between atoms: C_19  and  C_13 
REMARK    7  A    between atoms: C_32  and  C_13 
REMARK    8  A    between atoms: C_20  and  C_14 
REMARK    9  A    between atoms: C_33  and  C_14 
REMARK   10  A    between atoms: C_21  and  C_15 
REMARK   11  A    between atoms: C_34  and  C_15 
REMARK   12  A    between atoms: C_22  and  C_16 
REMARK   13  A    between atoms: C_35  and  C_16 
REMARK   14  A    between atoms: C_23  and  C_17 
REMARK   15  A    between atoms: C_36  and  C_17 
REMARK   16  A    between atoms: N_53  and  C_19 
REMARK   17  A    between atoms: N_54  and  C_20 
REMARK   18  A    between atoms: N_55  and  C_21 
REMARK   19  A    between atoms: N_56  and  C_22 
REMARK   20  A    between atoms: N_57  and  C_23 
REMARK   21  A    between atoms: C_27  and  C_25 
REMARK   22  A    between atoms: C_38  and  C_25 
REMARK   23  A    between atoms: C_28  and  C_26 
REMARK   24  A    between atoms: C_39  and  C_26 
REMARK   25  A    between atoms: C_41  and  C_30 
REMARK   26  A    between atoms: C_30  and  O_80 
REMARK   27  A    between atoms: C_42  and  C_31 
REMARK   28  A    between atoms: C_31  and  O_81 
REMARK   29  A    between atoms: C_47  and  C_32 
REMARK   30  A    between atoms: C_32  and  N_60 
REMARK   31  A    between atoms: C_44  and  C_35 
REMARK   32  A    between atoms: C_35  and  N_70 
REMARK   33  A    between atoms: C_37  and  N_68 
REMARK   34  A    between atoms: C_52  and  C_42 
REMARK   35  A    between atoms: C_42  and  N_78 
REMARK   36  A    between atoms: C_43  and  O_83 
REMARK   37  A    between atoms: C_44  and  O_84 
REMARK   38  A    between atoms: O_85  and  C_45 
REMARK   39  A    between atoms: C_46  and  O_86 
REMARK   40  A    between atoms: C_47  and  O_87 
REMARK   41  A    between atoms: O_88  and  C_48 
REMARK   42  A    between atoms: C_49  and  O_89 
REMARK   43  A    between atoms: C_50  and  O_90 
REMARK   44  A    between atoms: O_91  and  C_51 
REMARK   45  A    between atoms: C_52  and  O_92 
ROOT
HETATM    1  C   UNK N   1      34.968  15.212  10.027  0.00  0.00     0.111 C 
HETATM    2  N   UNK N   1      35.052  14.620   8.885  0.00  0.00    -0.362 N 
ATOM      3  HN  UNK N   1      35.883  14.054   8.715  1.00  0.00     0.162 HD
HETATM    4  O   UNK N   1      33.863  15.886  10.394  0.00  0.00    -0.350 OA
HETATM    5  H   UNK N   1      33.097  16.295  10.744  0.00  0.00     0.219 HD
ENDROOT
BRANCH   1   6
HETATM    6  C   UNK N   1      36.165  15.238  10.918  0.00  0.00     0.083 C 
BRANCH   6   7
HETATM    7  C   UNK N   1      35.875  14.798  12.369  0.00  0.00     0.008 C 
BRANCH   7   8
HETATM    8  C   UNK N   1      36.586  13.540  12.897  0.00  0.00     0.005 C 
BRANCH   8   9
HETATM    9  C   UNK N   1      36.420  13.360  14.410  0.00  0.00    -0.019 C 
HETATM   10  C   UNK N   1      36.949  14.606  15.099  0.00  0.00     0.010 C 
BRANCH   9  11
HETATM   11  C   UNK N   1      37.192  12.140  14.900  0.00  0.00    -0.000 C 
HETATM   12  C   UNK N   1      36.275  11.030  15.392  0.00  0.00     0.005 C 
ENDBRANCH   9  11
ENDBRANCH   8   9
ENDBRANCH   7   8
ENDBRANCH   6   7
ENDBRANCH   1   6
BRANCH   2  13
HETATM   13  C   UNK N   1      34.069  14.686   7.817  0.00  0.00     0.159 C 
BRANCH  13  14
HETATM   14  C   UNK N   1      34.548  13.737   6.719  0.00  0.00     0.052 C 
BRANCH  14  15
HETATM   15  C   UNK N   1      35.131  12.429   7.254  0.00  0.00     0.113 C 
BRANCH  15  16
HETATM   16  N   UNK N   1      34.083  11.461   7.526  0.00  0.00    -0.430 N 
HETATM   17  H   UNK N   1      33.854  10.467   7.532  0.00  0.00     0.149 HD
HETATM   18  H   UNK N   1      33.255  11.974   7.828  0.00  0.00     0.149 HD
ENDBRANCH  15  16
ENDBRANCH  14  15
ENDBRANCH  13  14
BRANCH  13  19
HETATM   19  C   UNK N   1      32.589  14.606   8.248  0.00  0.00     0.135 C 
HETATM   20  N   UNK N   1      31.673  15.502   8.025  0.00  0.00    -0.358 N 
ATOM     21  HN  UNK N   1      30.803  15.370   8.542  1.00  0.00     0.162 HD
BRANCH  20  22
HETATM   22  C   UNK N   1      31.698  16.661   7.148  0.00  0.00     0.186 C 
BRANCH  22  23
HETATM   23  C   UNK N   1      32.114  17.904   7.955  0.00  0.00     0.144 C 
HETATM   24  C   UNK N   1      33.621  18.119   7.893  0.00  0.00     0.042 C 
BRANCH  23  25
HETATM   25  O   UNK N   1      31.743  17.743   9.290  0.00  0.00    -0.393 OA
HETATM   26  H   UNK N   1      32.291  17.797  10.087  0.00  0.00     0.210 HD
ENDBRANCH  23  25
ENDBRANCH  22  23
BRANCH  22  27
HETATM   27  C   UNK N   1      30.305  16.835   6.637  0.00  0.00     0.138 C 
HETATM   28  N   UNK N   1      30.137  17.034   5.368  0.00  0.00    -0.361 N 
ATOM     29  HN  UNK N   1      30.961  16.965   4.771  1.00  0.00     0.162 HD
BRANCH  28  30
HETATM   30  C   UNK N   1      28.877  17.346   4.729  0.00  0.00     0.159 C 
BRANCH  30  31
HETATM   31  C   UNK N   1      28.670  18.852   4.536  0.00  0.00     0.052 C 
BRANCH  31  32
HETATM   32  C   UNK N   1      27.909  19.535   5.680  0.00  0.00     0.113 C 
BRANCH  32  33
HETATM   33  N   UNK N   1      27.269  20.774   5.261  0.00  0.00    -0.430 N 
HETATM   34  H   UNK N   1      27.312  21.781   5.101  0.00  0.00     0.149 HD
HETATM   35  H   UNK N   1      26.320  20.506   5.003  0.00  0.00     0.149 HD
ENDBRANCH  32  33
ENDBRANCH  31  32
ENDBRANCH  30  31
BRANCH  30  36
HETATM   36  C   UNK N   1      28.819  16.593   3.432  0.00  0.00     0.135 C 
HETATM   37  N   UNK N   1      27.830  15.854   3.085  0.00  0.00    -0.361 N 
ATOM     38  HN  UNK N   1      27.991  15.313   2.236  1.00  0.00     0.162 HD
BRANCH  37  39
HETATM   39  C   UNK N   1      26.520  15.649   3.682  0.00  0.00     0.159 C 
HETATM   40  C   UNK N   1      26.515  15.935   5.184  0.00  0.00     0.053 C 
HETATM   41  C   UNK N   1      25.151  16.447   5.596  0.00  0.00     0.124 C 
HETATM   42  N   UNK N   1      25.125  17.833   5.219  0.00  0.00    -0.373 N 
HETATM   43  C   UNK N   1      24.325  18.409   4.388  0.00  0.00     0.137 C 
ATOM     44  HN  UNK N   1      25.822  18.431   5.661  1.00  0.00     0.161 HD
HETATM   45  C   UNK N   1      23.140  17.747   3.654  0.00  0.00     0.186 C 
HETATM   46  N   UNK N   1      23.184  16.276   3.720  0.00  0.00    -0.358 N 
HETATM   47  C   UNK N   1      22.476  15.302   3.226  0.00  0.00     0.135 C 
ATOM     48  HN  UNK N   1      23.959  15.938   4.292  1.00  0.00     0.162 HD
HETATM   49  C   UNK N   1      21.247  15.404   2.283  0.00  0.00     0.159 C 
HETATM   50  N   UNK N   1      20.726  14.074   1.941  0.00  0.00    -0.361 N 
HETATM   51  C   UNK N   1      20.159  13.250   2.785  0.00  0.00     0.135 C 
ATOM     52  HN  UNK N   1      20.814  13.770   0.972  1.00  0.00     0.162 HD
HETATM   53  C   UNK N   1      19.678  11.891   2.334  0.00  0.00     0.159 C 
HETATM   54  N   UNK N   1      20.861  11.078   2.188  0.00  0.00    -0.361 N 
HETATM   55  C   UNK N   1      20.883   9.801   2.012  0.00  0.00     0.135 C 
ATOM     56  HN  UNK N   1      21.761  11.556   2.227  1.00  0.00     0.162 HD
HETATM   57  C   UNK N   1      22.210   9.106   2.137  0.00  0.00     0.158 C 
HETATM   58  N   UNK N   1      22.768   9.626   3.368  0.00  0.00    -0.361 N 
HETATM   59  C   UNK N   1      23.781  10.396   3.605  0.00  0.00     0.135 C 
ATOM     60  HN  UNK N   1      22.268   9.330   4.207  1.00  0.00     0.162 HD
HETATM   61  C   UNK N   1      24.804  10.944   2.609  0.00  0.00     0.158 C 
HETATM   62  N   UNK N   1      26.088  10.793   3.261  0.00  0.00    -0.361 N 
HETATM   63  C   UNK N   1      27.171  11.433   2.979  0.00  0.00     0.135 C 
ATOM     64  HN  UNK N   1      26.141  10.112   4.019  1.00  0.00     0.162 HD
HETATM   65  C   UNK N   1      27.225  12.501   1.893  0.00  0.00     0.159 C 
HETATM   66  N   UNK N   1      26.674  13.776   2.272  0.00  0.00    -0.361 N 
HETATM   67  C   UNK N   1      26.296  14.191   3.438  0.00  0.00     0.135 C 
ATOM     68  HN  UNK N   1      26.568  14.450   1.514  1.00  0.00     0.162 HD
BRANCH  43  69
HETATM   69  O   UNK N   1      24.505  19.730   4.183  0.00  0.00    -0.348 OA
HETATM   70  H   UNK N   1      24.015  20.429   4.567  0.00  0.00     0.219 HD
ENDBRANCH  43  69
BRANCH  45  71
HETATM   71  C   UNK N   1      21.877  18.341   4.316  0.00  0.00     0.144 C 
HETATM   72  C   UNK N   1      21.888  18.097   5.819  0.00  0.00     0.042 C 
BRANCH  71  73
HETATM   73  O   UNK N   1      21.756  19.713   4.085  0.00  0.00    -0.393 OA
HETATM   74  H   UNK N   1      20.903  20.128   3.879  0.00  0.00     0.210 HD
ENDBRANCH  71  73
ENDBRANCH  45  71
BRANCH  47  75
HETATM   75  O   UNK N   1      22.894  14.049   3.513  0.00  0.00    -0.348 OA
HETATM   76  H   UNK N   1      23.641  13.757   3.997  0.00  0.00     0.219 HD
ENDBRANCH  47  75
BRANCH  49  77
HETATM   77  C   UNK N   1      20.063  16.297   2.692  0.00  0.00     0.052 C 
BRANCH  77  78
HETATM   78  C   UNK N   1      19.777  17.507   1.813  0.00  0.00     0.113 C 
BRANCH  78  79
HETATM   79  N   UNK N   1      19.965  17.159   0.418  0.00  0.00    -0.430 N 
HETATM   80  H   UNK N   1      19.175  17.137  -0.227  0.00  0.00     0.149 HD
HETATM   81  H   UNK N   1      20.899  16.936   0.075  0.00  0.00     0.149 HD
ENDBRANCH  78  79
ENDBRANCH  77  78
ENDBRANCH  49  77
BRANCH  51  82
HETATM   82  O   UNK N   1      20.071  13.561   4.093  0.00  0.00    -0.348 OA
HETATM   83  H   UNK N   1      20.167  13.275   4.980  0.00  0.00     0.219 HD
ENDBRANCH  51  82
BRANCH  53  84
HETATM   84  C   UNK N   1      18.792  11.268   3.435  0.00  0.00     0.052 C 
BRANCH  84  85
HETATM   85  C   UNK N   1      17.316  11.256   3.071  0.00  0.00     0.113 C 
BRANCH  85  86
HETATM   86  N   UNK N   1      16.940   9.922   2.636  0.00  0.00    -0.430 N 
HETATM   87  H   UNK N   1      16.211   9.293   2.972  0.00  0.00     0.149 HD
HETATM   88  H   UNK N   1      17.497   9.554   1.865  0.00  0.00     0.149 HD
ENDBRANCH  85  86
ENDBRANCH  84  85
ENDBRANCH  53  84
BRANCH  55  89
HETATM   89  O   UNK N   1      19.734   9.092   1.892  0.00  0.00    -0.348 OA
HETATM   90  H   UNK N   1      19.032   9.424   1.368  0.00  0.00     0.219 HD
ENDBRANCH  55  89
BRANCH  57  91
HETATM   91  C   UNK N   1      22.026   7.593   2.322  0.00  0.00     0.037 C 
BRANCH  91  92
HETATM   92  C   UNK N   1      22.381   6.686   1.146  0.00  0.00    -0.020 C 
HETATM   93  C   UNK N   1      22.245   5.230   1.533  0.00  0.00     0.009 C 
HETATM   94  C   UNK N   1      23.739   6.974   0.533  0.00  0.00     0.009 C 
ENDBRANCH  91  92
ENDBRANCH  57  91
BRANCH  59  95
HETATM   95  O   UNK N   1      23.930  10.820   4.878  0.00  0.00    -0.348 OA
HETATM   96  H   UNK N   1      24.278  11.499   5.422  0.00  0.00     0.219 HD
ENDBRANCH  59  95
BRANCH  61  97
HETATM   97  C   UNK N   1      24.868  10.445   1.150  0.00  0.00     0.037 C 
BRANCH  97  98
HETATM   98  C   UNK N   1      24.386  11.413   0.065  0.00  0.00    -0.020 C 
HETATM   99  C   UNK N   1      23.663  12.609   0.659  0.00  0.00     0.009 C 
HETATM  100  C   UNK N   1      23.385  10.685  -0.809  0.00  0.00     0.009 C 
ENDBRANCH  97  98
ENDBRANCH  61  97
BRANCH  63 101
HETATM  101  O   UNK N   1      28.278  11.148   3.691  0.00  0.00    -0.348 OA
HETATM  102  H   UNK N   1      28.726  10.371   3.960  0.00  0.00     0.219 HD
ENDBRANCH  63 101
BRANCH  65 103
HETATM  103  C   UNK N   1      28.673  12.894   1.577  0.00  0.00     0.052 C 
BRANCH 103 104
HETATM  104  C   UNK N   1      29.452  11.893   0.756  0.00  0.00     0.113 C 
BRANCH 104 105
HETATM  105  N   UNK N   1      30.696  11.594   1.442  0.00  0.00    -0.430 N 
HETATM  106  H   UNK N   1      31.712  11.641   1.377  0.00  0.00     0.149 HD
HETATM  107  H   UNK N   1      30.462  11.172   2.341  0.00  0.00     0.149 HD
ENDBRANCH 104 105
ENDBRANCH 103 104
ENDBRANCH  65 103
BRANCH  67 108
HETATM  108  O   UNK N   1      26.081  13.349   4.472  0.00  0.00    -0.348 OA
HETATM  109  H   UNK N   1      26.240  12.588   4.996  0.00  0.00     0.219 HD
ENDBRANCH  67 108
ENDBRANCH  37  39
BRANCH  36 110
HETATM  110  O   UNK N   1      29.850  16.687   2.573  0.00  0.00    -0.348 OA
HETATM  111  H   UNK N   1      29.848  17.200   1.789  0.00  0.00     0.219 HD
ENDBRANCH  36 110
ENDBRANCH  30  36
ENDBRANCH  28  30
BRANCH  27 112
HETATM  112  O   UNK N   1      29.262  16.817   7.496  0.00  0.00    -0.348 OA
HETATM  113  H   UNK N   1      28.613  17.096   8.110  0.00  0.00     0.219 HD
ENDBRANCH  27 112
ENDBRANCH  22  27
ENDBRANCH  20  22
BRANCH  19 114
HETATM  114  O   UNK N   1      32.235  13.545   8.998  0.00  0.00    -0.348 OA
HETATM  115  H   UNK N   1      31.835  12.708   9.123  0.00  0.00     0.219 HD
ENDBRANCH  19 114
ENDBRANCH  13  19
ENDBRANCH   2  13
TORSDOF 45
ENDMDL
MODEL 9
REMARK VINA RESULT:      -5.6      2.911      5.618
REMARK WARNING: 32 MAX_TORS EXCEEDED!!!
REMARK  45 active torsions:
REMARK  status: ('A' for Active; 'I' for Inactive)
REMARK    1  A    between atoms: C_29  and  C_9 
REMARK    2  A    between atoms: C_11  and  C_10 
REMARK    3  A    between atoms: C_12  and  C_10 
REMARK    4  A    between atoms: C_29  and  C_11 
REMARK    5  A    between atoms: C_40  and  C_12 
REMARK    6  A    between atoms: C_19  and  C_13 
REMARK    7  A    between atoms: C_32  and  C_13 
REMARK    8  A    between atoms: C_20  and  C_14 
REMARK    9  A    between atoms: C_33  and  C_14 
REMARK   10  A    between atoms: C_21  and  C_15 
REMARK   11  A    between atoms: C_34  and  C_15 
REMARK   12  A    between atoms: C_22  and  C_16 
REMARK   13  A    between atoms: C_35  and  C_16 
REMARK   14  A    between atoms: C_23  and  C_17 
REMARK   15  A    between atoms: C_36  and  C_17 
REMARK   16  A    between atoms: N_53  and  C_19 
REMARK   17  A    between atoms: N_54  and  C_20 
REMARK   18  A    between atoms: N_55  and  C_21 
REMARK   19  A    between atoms: N_56  and  C_22 
REMARK   20  A    between atoms: N_57  and  C_23 
REMARK   21  A    between atoms: C_27  and  C_25 
REMARK   22  A    between atoms: C_38  and  C_25 
REMARK   23  A    between atoms: C_28  and  C_26 
REMARK   24  A    between atoms: C_39  and  C_26 
REMARK   25  A    between atoms: C_41  and  C_30 
REMARK   26  A    between atoms: C_30  and  O_80 
REMARK   27  A    between atoms: C_42  and  C_31 
REMARK   28  A    between atoms: C_31  and  O_81 
REMARK   29  A    between atoms: C_47  and  C_32 
REMARK   30  A    between atoms: C_32  and  N_60 
REMARK   31  A    between atoms: C_44  and  C_35 
REMARK   32  A    between atoms: C_35  and  N_70 
REMARK   33  A    between atoms: C_37  and  N_68 
REMARK   34  A    between atoms: C_52  and  C_42 
REMARK   35  A    between atoms: C_42  and  N_78 
REMARK   36  A    between atoms: C_43  and  O_83 
REMARK   37  A    between atoms: C_44  and  O_84 
REMARK   38  A    between atoms: O_85  and  C_45 
REMARK   39  A    between atoms: C_46  and  O_86 
REMARK   40  A    between atoms: C_47  and  O_87 
REMARK   41  A    between atoms: O_88  and  C_48 
REMARK   42  A    between atoms: C_49  and  O_89 
REMARK   43  A    between atoms: C_50  and  O_90 
REMARK   44  A    between atoms: O_91  and  C_51 
REMARK   45  A    between atoms: C_52  and  O_92 
ROOT
HETATM    1  C   UNK N   1      24.175  18.700   4.405  0.00  0.00     0.111 C 
HETATM    2  N   UNK N   1      22.999  18.445   3.941  0.00  0.00    -0.362 N 
ATOM      3  HN  UNK N   1      22.945  18.069   2.995  1.00  0.00     0.162 HD
HETATM    4  O   UNK N   1      24.362  19.087   5.680  0.00  0.00    -0.350 OA
HETATM    5  H   UNK N   1      24.569  19.276   6.574  0.00  0.00     0.219 HD
ENDROOT
BRANCH   1   6
HETATM    6  C   UNK N   1      25.342  18.664   3.477  0.00  0.00     0.083 C 
BRANCH   6   7
HETATM    7  C   UNK N   1      26.705  18.858   4.176  0.00  0.00     0.008 C 
BRANCH   7   8
HETATM    8  C   UNK N   1      27.329  20.264   4.160  0.00  0.00     0.005 C 
BRANCH   8   9
HETATM    9  C   UNK N   1      27.704  20.759   5.561  0.00  0.00    -0.019 C 
HETATM   10  C   UNK N   1      27.728  19.563   6.497  0.00  0.00     0.010 C 
BRANCH   9  11
HETATM   11  C   UNK N   1      26.692  21.781   6.065  0.00  0.00    -0.000 C 
HETATM   12  C   UNK N   1      26.189  21.461   7.465  0.00  0.00     0.005 C 
ENDBRANCH   9  11
ENDBRANCH   8   9
ENDBRANCH   7   8
ENDBRANCH   6   7
ENDBRANCH   1   6
BRANCH   2  13
HETATM   13  C   UNK N   1      21.744  18.646   4.646  0.00  0.00     0.159 C 
BRANCH  13  14
HETATM   14  C   UNK N   1      20.630  18.498   3.609  0.00  0.00     0.052 C 
BRANCH  14  15
HETATM   15  C   UNK N   1      20.301  19.797   2.875  0.00  0.00     0.113 C 
BRANCH  15  16
HETATM   16  N   UNK N   1      20.317  19.605   1.436  0.00  0.00    -0.430 N 
HETATM   17  H   UNK N   1      20.520  20.053   0.542  0.00  0.00     0.149 HD
HETATM   18  H   UNK N   1      20.003  18.654   1.244  0.00  0.00     0.149 HD
ENDBRANCH  15  16
ENDBRANCH  14  15
ENDBRANCH  13  14
BRANCH  13  19
HETATM   19  C   UNK N   1      21.588  17.898   5.986  0.00  0.00     0.135 C 
HETATM   20  N   UNK N   1      21.659  16.611   6.162  0.00  0.00    -0.358 N 
ATOM     21  HN  UNK N   1      21.345  16.280   7.076  1.00  0.00     0.162 HD
BRANCH  20  22
HETATM   22  C   UNK N   1      22.119  15.571   5.257  0.00  0.00     0.186 C 
BRANCH  22  23
HETATM   23  C   UNK N   1      21.190  14.349   5.365  0.00  0.00     0.144 C 
HETATM   24  C   UNK N   1      20.489  14.074   4.041  0.00  0.00     0.042 C 
BRANCH  23  25
HETATM   25  O   UNK N   1      20.221  14.582   6.342  0.00  0.00    -0.393 OA
HETATM   26  H   UNK N   1      19.256  14.516   6.272  0.00  0.00     0.210 HD
ENDBRANCH  23  25
ENDBRANCH  22  23
BRANCH  22  27
HETATM   27  C   UNK N   1      23.495  15.200   5.704  0.00  0.00     0.138 C 
HETATM   28  N   UNK N   1      23.786  13.943   5.816  0.00  0.00    -0.361 N 
ATOM     29  HN  UNK N   1      23.088  13.271   5.500  1.00  0.00     0.162 HD
BRANCH  28  30
HETATM   30  C   UNK N   1      25.021  13.414   6.353  0.00  0.00     0.159 C 
BRANCH  30  31
HETATM   31  C   UNK N   1      25.013  13.335   7.883  0.00  0.00     0.052 C 
BRANCH  31  32
HETATM   32  C   UNK N   1      23.614  13.227   8.501  0.00  0.00     0.113 C 
BRANCH  32  33
HETATM   33  N   UNK N   1      23.639  13.306   9.955  0.00  0.00    -0.430 N 
HETATM   34  H   UNK N   1      23.753  13.853  10.809  0.00  0.00     0.149 HD
HETATM   35  H   UNK N   1      23.454  12.355  10.274  0.00  0.00     0.149 HD
ENDBRANCH  32  33
ENDBRANCH  31  32
ENDBRANCH  30  31
BRANCH  30  36
HETATM   36  C   UNK N   1      25.267  12.077   5.716  0.00  0.00     0.135 C 
HETATM   37  N   UNK N   1      26.128  11.883   4.787  0.00  0.00    -0.361 N 
ATOM     38  HN  UNK N   1      26.092  10.952   4.372  1.00  0.00     0.162 HD
BRANCH  37  39
HETATM   39  C   UNK N   1      27.150  12.748   4.218  0.00  0.00     0.159 C 
HETATM   40  C   UNK N   1      26.554  13.991   3.555  0.00  0.00     0.053 C 
HETATM   41  C   UNK N   1      27.532  15.141   3.670  0.00  0.00     0.124 C 
HETATM   42  N   UNK N   1      27.383  15.646   5.007  0.00  0.00    -0.373 N 
HETATM   43  C   UNK N   1      28.278  15.701   5.934  0.00  0.00     0.137 C 
ATOM     44  HN  UNK N   1      26.459  16.004   5.251  1.00  0.00     0.161 HD
HETATM   45  C   UNK N   1      29.762  15.302   5.794  0.00  0.00     0.186 C 
HETATM   46  N   UNK N   1      30.024  14.518   4.574  0.00  0.00    -0.358 N 
HETATM   47  C   UNK N   1      31.059  13.920   4.059  0.00  0.00     0.135 C 
ATOM     48  HN  UNK N   1      29.192  14.419   3.992  1.00  0.00     0.162 HD
HETATM   49  C   UNK N   1      32.489  13.811   4.655  0.00  0.00     0.159 C 
HETATM   50  N   UNK N   1      33.378  13.048   3.770  0.00  0.00    -0.361 N 
HETATM   51  C   UNK N   1      33.774  13.437   2.585  0.00  0.00     0.135 C 
ATOM     52  HN  UNK N   1      33.711  12.145   4.105  1.00  0.00     0.162 HD
HETATM   53  C   UNK N   1      34.672  12.563   1.743  0.00  0.00     0.159 C 
HETATM   54  N   UNK N   1      33.831  11.513   1.221  0.00  0.00    -0.361 N 
HETATM   55  C   UNK N   1      34.158  10.671   0.301  0.00  0.00     0.135 C 
ATOM     56  HN  UNK N   1      32.895  11.429   1.616  1.00  0.00     0.162 HD
HETATM   57  C   UNK N   1      33.062   9.821  -0.282  0.00  0.00     0.158 C 
HETATM   58  N   UNK N   1      32.001  10.763  -0.575  0.00  0.00    -0.361 N 
HETATM   59  C   UNK N   1      30.827  10.936  -0.059  0.00  0.00     0.135 C 
ATOM     60  HN  UNK N   1      32.222  11.413  -1.330  1.00  0.00     0.162 HD
HETATM   61  C   UNK N   1      30.133  10.093   1.012  0.00  0.00     0.158 C 
HETATM   62  N   UNK N   1      28.768   9.941   0.551  0.00  0.00    -0.361 N 
HETATM   63  C   UNK N   1      27.744   9.638   1.273  0.00  0.00     0.135 C 
ATOM     64  HN  UNK N   1      28.601  10.089  -0.445  1.00  0.00     0.162 HD
HETATM   65  C   UNK N   1      27.847   9.424   2.779  0.00  0.00     0.159 C 
HETATM   66  N   UNK N   1      27.928  10.632   3.558  0.00  0.00    -0.361 N 
HETATM   67  C   UNK N   1      27.763  11.860   3.183  0.00  0.00     0.135 C 
ATOM     68  HN  UNK N   1      28.146  10.502   4.545  1.00  0.00     0.162 HD
BRANCH  43  69
HETATM   69  O   UNK N   1      27.894  16.208   7.123  0.00  0.00    -0.348 OA
HETATM   70  H   UNK N   1      27.785  17.113   7.338  0.00  0.00     0.219 HD
ENDBRANCH  43  69
BRANCH  45  71
HETATM   71  C   UNK N   1      30.540  16.636   5.830  0.00  0.00     0.144 C 
HETATM   72  C   UNK N   1      30.132  17.532   4.667  0.00  0.00     0.042 C 
BRANCH  71  73
HETATM   73  O   UNK N   1      30.339  17.331   7.024  0.00  0.00    -0.393 OA
HETATM   74  H   UNK N   1      30.233  16.876   7.874  0.00  0.00     0.210 HD
ENDBRANCH  71  73
ENDBRANCH  45  71
BRANCH  47  75
HETATM   75  O   UNK N   1      30.855  13.259   2.897  0.00  0.00    -0.348 OA
HETATM   76  H   UNK N   1      30.519  12.398   2.743  0.00  0.00     0.219 HD
ENDBRANCH  47  75
BRANCH  49  77
HETATM   77  C   UNK N   1      33.218  15.095   5.085  0.00  0.00     0.052 C 
BRANCH  77  78
HETATM   78  C   UNK N   1      34.013  15.034   6.381  0.00  0.00     0.113 C 
BRANCH  78  79
HETATM   79  N   UNK N   1      33.130  14.727   7.489  0.00  0.00    -0.430 N 
HETATM   80  H   UNK N   1      32.933  15.422   8.210  0.00  0.00     0.149 HD
HETATM   81  H   UNK N   1      32.698  13.805   7.549  0.00  0.00     0.149 HD
ENDBRANCH  78  79
ENDBRANCH  77  78
ENDBRANCH  49  77
BRANCH  51  82
HETATM   82  O   UNK N   1      33.318  14.589   2.054  0.00  0.00    -0.348 OA
HETATM   83  H   UNK N   1      32.582  15.075   1.738  0.00  0.00     0.219 HD
ENDBRANCH  51  82
BRANCH  53  84
HETATM   84  C   UNK N   1      35.222  13.383   0.555  0.00  0.00     0.052 C 
BRANCH  84  85
HETATM   85  C   UNK N   1      36.677  13.781   0.733  0.00  0.00     0.113 C 
BRANCH  85  86
HETATM   86  N   UNK N   1      37.288  13.962  -0.573  0.00  0.00    -0.430 N 
HETATM   87  H   UNK N   1      37.657  13.282  -1.236  0.00  0.00     0.149 HD
HETATM   88  H   UNK N   1      37.358  14.934  -0.877  0.00  0.00     0.149 HD
ENDBRANCH  85  86
ENDBRANCH  84  85
ENDBRANCH  53  84
BRANCH  55  89
HETATM   89  O   UNK N   1      35.399  10.674  -0.241  0.00  0.00    -0.348 OA
HETATM   90  H   UNK N   1      36.118  10.303   0.233  0.00  0.00     0.219 HD
ENDBRANCH  55  89
BRANCH  57  91
HETATM   91  C   UNK N   1      33.499   9.196  -1.614  0.00  0.00     0.037 C 
BRANCH  91  92
HETATM   92  C   UNK N   1      33.021   9.863  -2.901  0.00  0.00    -0.020 C 
HETATM   93  C   UNK N   1      32.381   8.848  -3.823  0.00  0.00     0.009 C 
HETATM   94  C   UNK N   1      34.093  10.666  -3.616  0.00  0.00     0.009 C 
ENDBRANCH  91  92
ENDBRANCH  57  91
BRANCH  59  95
HETATM   95  O   UNK N   1      30.144  12.025  -0.469  0.00  0.00    -0.348 OA
HETATM   96  H   UNK N   1      29.953  12.923  -0.282  0.00  0.00     0.219 HD
ENDBRANCH  59  95
BRANCH  61  97
HETATM   97  C   UNK N   1      30.706   8.738   1.481  0.00  0.00     0.037 C 
BRANCH  97  98
HETATM   98  C   UNK N   1      31.530   8.744   2.772  0.00  0.00    -0.020 C 
HETATM   99  C   UNK N   1      31.022   7.716   3.767  0.00  0.00     0.009 C 
HETATM  100  C   UNK N   1      31.376  10.101   3.427  0.00  0.00     0.009 C 
ENDBRANCH  97  98
ENDBRANCH  61  97
BRANCH  63 101
HETATM  101  O   UNK N   1      26.549   9.531   0.663  0.00  0.00    -0.348 OA
HETATM  102  H   UNK N   1      25.926   8.847   0.514  0.00  0.00     0.219 HD
ENDBRANCH  63 101
BRANCH  65 103
HETATM  103  C   UNK N   1      26.558   8.807   3.336  0.00  0.00     0.052 C 
BRANCH 103 104
HETATM  104  C   UNK N   1      26.649   8.284   4.751  0.00  0.00     0.113 C 
BRANCH 104 105
HETATM  105  N   UNK N   1      25.324   8.310   5.344  0.00  0.00    -0.430 N 
HETATM  106  H   UNK N   1      24.808   8.362   6.221  0.00  0.00     0.149 HD
HETATM  107  H   UNK N   1      24.643   8.256   4.586  0.00  0.00     0.149 HD
ENDBRANCH 104 105
ENDBRANCH 103 104
ENDBRANCH  65 103
BRANCH  67 108
HETATM  108  O   UNK N   1      27.775  12.230   1.884  0.00  0.00    -0.348 OA
HETATM  109  H   UNK N   1      27.643  12.818   1.167  0.00  0.00     0.219 HD
ENDBRANCH  67 108
ENDBRANCH  37  39
BRANCH  36 110
HETATM  110  O   UNK N   1      24.555  11.014   6.130  0.00  0.00    -0.348 OA
HETATM  111  H   UNK N   1      24.526  10.699   7.012  0.00  0.00     0.219 HD
ENDBRANCH  36 110
ENDBRANCH  30  36
ENDBRANCH  28  30
BRANCH  27 112
HETATM  112  O   UNK N   1      24.390  16.165   6.012  0.00  0.00    -0.348 OA
HETATM  113  H   UNK N   1      24.795  17.005   6.102  0.00  0.00     0.219 HD
ENDBRANCH  27 112
ENDBRANCH  22  27
ENDBRANCH  20  22
BRANCH  19 114
HETATM  114  O   UNK N   1      21.266  18.643   7.061  0.00  0.00    -0.348 OA
HETATM  115  H   UNK N   1      21.391  18.937   7.941  0.00  0.00     0.219 HD
ENDBRANCH  19 114
ENDBRANCH  13  19
ENDBRANCH   2  13
TORSDOF 45
ENDMDL
