MODEL 1
REMARK VINA RESULT:      -6.7      0.000      0.000
REMARK  19 active torsions:
REMARK  status: ('A' for Active; 'I' for Inactive)
REMARK    1  A    between atoms: C_11  and  C_12 
REMARK    2  A    between atoms: C_12  and  C_13 
REMARK       I    between atoms: C_13  and  N_14 
REMARK    3  A    between atoms: C_34  and  C_36 
REMARK    4  A    between atoms: C_36  and  C_37 
REMARK       I    between atoms: C_37  and  N_38 
REMARK    5  A    between atoms: C_40  and  C_41 
REMARK    6  A    between atoms: C_41  and  C_42 
REMARK    7  A    between atoms: C_42  and  C_43 
REMARK       I    between atoms: C_43  and  N_44 
REMARK    8  A    between atoms: Co_46  and  C_47 
REMARK    9  A    between atoms: C_54  and  C_55 
REMARK   10  A    between atoms: C_55  and  O_56 
REMARK   11  A    between atoms: C_63  and  O_64 
REMARK   12  A    between atoms: C_73  and  C_75 
REMARK   13  A    between atoms: C_75  and  C_76 
REMARK       I    between atoms: C_76  and  N_77 
REMARK   14  A    between atoms: C_79  and  C_80 
REMARK   15  A    between atoms: C_80  and  C_81 
REMARK   16  A    between atoms: C_81  and  C_82 
REMARK       I    between atoms: C_82  and  N_83 
REMARK   17  A    between atoms: C_88  and  C_89 
REMARK   18  A    between atoms: C_89  and  C_90 
REMARK   19  A    between atoms: C_90  and  C_91 
REMARK       I    between atoms: C_91  and  N_92 
ROOT
HETATM    1  C   UNK N   1      21.312  13.419   6.084  0.00  0.00     0.148 C 
HETATM    2  C   UNK N   1      22.024  13.139   7.378  0.00  0.00     0.042 C 
HETATM    3  C   UNK N   1      21.783  12.545   4.934  0.00  0.00     0.154 C 
HETATM    4  N   UNK N   1      20.822  12.096   3.950  0.00  0.00    -0.359 N 
HETATM    5  C   UNK N   1      19.973  11.090   4.234  0.00  0.00     0.217 C 
HETATM    6  O   UNK N   1      19.111  11.241   5.087  0.00  0.00    -0.274 OA
HETATM    7  C   UNK N   1      20.434   9.724   3.990  0.00  0.00     0.104 C 
HETATM    8  C   UNK N   1      20.962   9.376   5.370  0.00  0.00     0.025 C 
HETATM    9  C   UNK N   1      22.469   9.328   5.514  0.00  0.00     0.002 C 
HETATM   10  C   UNK N   1      22.734   9.187   7.001  0.00  0.00     0.022 C 
HETATM   11  C   UNK N   1      22.673   8.029   4.681  0.00  0.00     0.030 C 
HETATM   12  C   UNK N   1      23.710   8.400   3.667  0.00  0.00     0.116 C 
HETATM   13  N   UNK N   1      23.619   9.868   3.485  0.00  0.00    -0.206 NA
HETATM   14  C   UNK N   1      23.414  10.375   4.747  0.00  0.00     0.021 C 
HETATM   15  C   UNK N   1      24.276  11.372   5.270  0.00  0.00    -0.018 C 
HETATM   16  C   UNK N   1      24.273  11.650   6.724  0.00  0.00     0.052 C 
HETATM   17  C   UNK N   1      25.401  12.109   4.494  0.00  0.00     0.047 C 
HETATM   18  N   UNK N   1      25.815  11.682   3.394  0.00  0.00    -0.256 N 
HETATM   19  C   UNK N   1      26.879  12.503   2.894  0.00  0.00     0.042 C 
HETATM   20  C   UNK N   1      27.485  12.449   1.695  0.00  0.00     0.028 C 
HETATM   21  C   UNK N   1      27.386  11.341   0.754  0.00  0.00     0.138 C 
HETATM   22  N   UNK N   1      26.720  10.357   1.221  0.00  0.00    -0.283 N 
HETATM   23  C   UNK N   1      27.827   9.440   1.587  0.00  0.00     0.046 C 
HETATM   24  C   UNK N   1      28.122   9.345   2.901  0.00  0.00    -0.012 C 
HETATM   25  C   UNK N   1      29.464   9.340   3.534  0.00  0.00     0.052 C 
HETATM   26  C   UNK N   1      27.148   8.799   3.663  0.00  0.00     0.042 C 
HETATM   27  N   UNK N   1      25.906   9.033   3.433  0.00  0.00    -0.280 N 
HETATM   28  C   UNK N   1      25.136   8.167   4.241  0.00  0.00     0.076 C 
HETATM   29  C   UNK N   1      25.244   8.647   5.733  0.00  0.00     0.043 C 
HETATM   30  C   UNK N   1      25.992   6.847   4.221  0.00  0.00     0.002 C 
HETATM   31  C   UNK N   1      26.065   6.273   2.803  0.00  0.00     0.019 C 
HETATM   32  C   UNK N   1      27.325   7.569   4.536  0.00  0.00     0.049 C 
HETATM   33 Co   UNK N   1      25.000  10.430   2.353  0.00  0.00     0.000 Co
HETATM   34  N   UNK N   1      23.652  12.096   1.738  0.00  0.00    -0.242 N 
HETATM   35  C   UNK N   1      23.856  13.402   2.248  0.00  0.00     0.213 A 
HETATM   36  N   UNK N   1      22.786  14.284   2.059  0.00  0.00    -0.309 N 
HETATM   37  C   UNK N   1      22.626  15.795   2.400  0.00  0.00     0.261 C 
HETATM   38  O   UNK N   1      23.327  16.102   3.562  0.00  0.00    -0.353 OA
HETATM   39  C   UNK N   1      22.388  16.539   4.525  0.00  0.00     0.180 C 
HETATM   40  C   UNK N   1      20.919  16.284   4.080  0.00  0.00     0.198 C 
HETATM   41  O   UNK N   1      20.521  14.940   4.000  0.00  0.00    -0.279 OA
HETATM   42  P   UNK N   1      19.239  14.466   5.104  0.00  0.00     0.409 P 
HETATM   43  O   UNK N   1      18.212  15.661   5.818  0.00  0.00    -0.624 OA
HETATM   44  O   UNK N   1      18.307  13.557   4.258  0.00  0.00    -0.624 OA
HETATM   45  O   UNK N   1      19.929  13.399   6.299  0.00  0.00    -0.283 OA
HETATM   46  C   UNK N   1      21.262  16.575   2.668  0.00  0.00     0.199 C 
HETATM   47  C   UNK N   1      21.875  13.566   1.449  0.00  0.00     0.067 A 
HETATM   48  C   UNK N   1      20.626  14.028   1.121  0.00  0.00     0.039 A 
HETATM   49  C   UNK N   1      19.695  13.181   0.598  0.00  0.00    -0.054 A 
HETATM   50  C   UNK N   1      18.335  13.740   0.297  0.00  0.00     0.049 C 
HETATM   51  C   UNK N   1      20.052  11.821   0.398  0.00  0.00    -0.054 A 
HETATM   52  C   UNK N   1      19.019  10.900  -0.151  0.00  0.00     0.049 C 
HETATM   53  C   UNK N   1      21.382  11.333   0.729  0.00  0.00     0.041 A 
HETATM   54  C   UNK N   1      22.343  12.242   1.259  0.00  0.00     0.085 A 
HETATM   55  C   UNK N   1      28.892   9.409   0.584  0.00  0.00     0.015 C 
HETATM   56  C   UNK N   1      28.250   8.597  -0.525  0.00  0.00     0.023 C 
HETATM   57  C   UNK N   1      28.790  10.892   0.165  0.00  0.00     0.029 C 
HETATM   58  C   UNK N   1      27.459  13.282   3.996  0.00  0.00     0.006 C 
HETATM   59  C   UNK N   1      28.357  14.464   3.596  0.00  0.00     0.022 C 
HETATM   60  C   UNK N   1      28.411  12.349   4.720  0.00  0.00     0.022 C 
HETATM   61  C   UNK N   1      26.167  13.442   4.856  0.00  0.00     0.052 C 
HETATM   62  H   UNK N   1      20.789  12.530   3.067  0.00  0.00     0.162 HD
ENDROOT
BRANCH  30  63
HETATM   63  C   UNK N   1      25.629   5.639   5.119  0.00  0.00     0.115 C 
BRANCH  63  64
HETATM   64  C   UNK N   1      25.959   4.231   4.710  0.00  0.00     0.216 C 
HETATM   65  N   UNK N   1      24.963   3.400   4.352  0.00  0.00    -0.370 N 
HETATM   66  H   UNK N   1      24.805   2.557   4.835  0.00  0.00     0.159 HD
HETATM   67  H   UNK N   1      24.383   3.639   3.594  0.00  0.00     0.159 HD
HETATM   68  O   UNK N   1      27.091   3.794   4.822  0.00  0.00    -0.274 OA
ENDBRANCH  63  64
ENDBRANCH  30  63
BRANCH  32  69
HETATM   69  C   UNK N   1      28.681   6.920   4.851  0.00  0.00     0.021 C 
BRANCH  69  70
HETATM   70  C   UNK N   1      29.012   6.831   6.325  0.00  0.00     0.103 C 
BRANCH  70  71
HETATM   71  C   UNK N   1      30.360   7.425   6.591  0.00  0.00     0.215 C 
HETATM   72  N   UNK N   1      30.460   8.712   6.975  0.00  0.00    -0.370 N 
HETATM   73  H   UNK N   1      29.819   9.378   6.637  0.00  0.00     0.159 HD
HETATM   74  H   UNK N   1      31.173   8.986   7.596  0.00  0.00     0.159 HD
HETATM   75  O   UNK N   1      31.369   6.745   6.483  0.00  0.00    -0.274 OA
ENDBRANCH  70  71
ENDBRANCH  69  70
ENDBRANCH  32  69
BRANCH  33  76
HETATM   76  C   UNK N   1      24.260   9.182   1.027  0.00  0.00     0.180 C 
HETATM   77  N   UNK N   1      23.887   8.630   0.071  0.00  0.00    -0.180 NA
ENDBRANCH  33  76
BRANCH  11  78
HETATM   78  C   UNK N   1      22.892   6.607   5.237  0.00  0.00     0.110 C 
BRANCH  78  79
HETATM   79  C   UNK N   1      21.963   5.515   4.849  0.00  0.00     0.215 C 
HETATM   80  N   UNK N   1      20.978   5.764   3.967  0.00  0.00    -0.370 N 
HETATM   81  H   UNK N   1      20.044   6.077   3.954  0.00  0.00     0.159 HD
HETATM   82  H   UNK N   1      21.286   5.576   3.052  0.00  0.00     0.159 HD
HETATM   83  O   UNK N   1      22.176   4.373   5.212  0.00  0.00    -0.274 OA
ENDBRANCH  78  79
ENDBRANCH  11  78
BRANCH  55  84
HETATM   84  C   UNK N   1      30.211   8.513   0.804  0.00  0.00     0.118 C 
BRANCH  84  85
HETATM   85  C   UNK N   1      31.267   7.889  -0.130  0.00  0.00     0.216 C 
HETATM   86  N   UNK N   1      31.573   6.582  -0.052  0.00  0.00    -0.370 N 
HETATM   87  H   UNK N   1      32.439   6.168  -0.269  0.00  0.00     0.159 HD
HETATM   88  H   UNK N   1      30.859   5.979   0.253  0.00  0.00     0.159 HD
HETATM   89  O   UNK N   1      31.932   8.605  -0.870  0.00  0.00    -0.274 OA
ENDBRANCH  84  85
ENDBRANCH  55  84
BRANCH  61  90
HETATM   90  C   UNK N   1      25.349  14.632   4.233  0.00  0.00     0.021 C 
BRANCH  90  91
HETATM   91  C   UNK N   1      25.987  16.062   3.991  0.00  0.00     0.103 C 
BRANCH  91  92
HETATM   92  C   UNK N   1      26.209  17.082   5.125  0.00  0.00     0.215 C 
HETATM   93  N   UNK N   1      26.644  16.713   6.344  0.00  0.00    -0.370 N 
HETATM   94  H   UNK N   1      27.412  16.540   6.935  0.00  0.00     0.159 HD
HETATM   95  H   UNK N   1      25.837  16.537   6.882  0.00  0.00     0.159 HD
HETATM   96  O   UNK N   1      25.873  18.242   4.959  0.00  0.00    -0.274 OA
ENDBRANCH  91  92
ENDBRANCH  90  91
ENDBRANCH  61  90
BRANCH  57  97
HETATM   97  C   UNK N   1      29.993  11.654   0.707  0.00  0.00     0.017 C 
BRANCH  97  98
HETATM   98  C   UNK N   1      30.962  11.959  -0.425  0.00  0.00     0.103 C 
BRANCH  98  99
HETATM   99  C   UNK N   1      32.357  11.914   0.086  0.00  0.00     0.215 C 
HETATM  100  N   UNK N   1      32.683  11.042   1.057  0.00  0.00    -0.370 N 
HETATM  101  H   UNK N   1      33.363  11.238   1.742  0.00  0.00     0.159 HD
HETATM  102  H   UNK N   1      32.223  10.172   1.083  0.00  0.00     0.159 HD
HETATM  103  O   UNK N   1      33.202  12.671  -0.362  0.00  0.00    -0.274 OA
ENDBRANCH  98  99
ENDBRANCH  97  98
ENDBRANCH  57  97
BRANCH  46 104
HETATM  104  O   UNK N   1      20.172  16.508   1.802  0.00  0.00    -0.388 OA
HETATM  105  H   UNK N   1      19.913  16.179   0.927  0.00  0.00     0.210 HD
ENDBRANCH  46 104
BRANCH  39 106
HETATM  106  C   UNK N   1      22.911  16.401   5.955  0.00  0.00     0.198 C 
BRANCH 106 107
HETATM  107  O   UNK N   1      21.945  16.853   6.861  0.00  0.00    -0.398 OA
HETATM  108  H   UNK N   1      21.847  16.589   7.789  0.00  0.00     0.209 HD
ENDBRANCH 106 107
ENDBRANCH  39 106
TORSDOF 19
ENDMDL
MODEL 2
REMARK VINA RESULT:      -6.2      2.622      9.176
REMARK  19 active torsions:
REMARK  status: ('A' for Active; 'I' for Inactive)
REMARK    1  A    between atoms: C_11  and  C_12 
REMARK    2  A    between atoms: C_12  and  C_13 
REMARK       I    between atoms: C_13  and  N_14 
REMARK    3  A    between atoms: C_34  and  C_36 
REMARK    4  A    between atoms: C_36  and  C_37 
REMARK       I    between atoms: C_37  and  N_38 
REMARK    5  A    between atoms: C_40  and  C_41 
REMARK    6  A    between atoms: C_41  and  C_42 
REMARK    7  A    between atoms: C_42  and  C_43 
REMARK       I    between atoms: C_43  and  N_44 
REMARK    8  A    between atoms: Co_46  and  C_47 
REMARK    9  A    between atoms: C_54  and  C_55 
REMARK   10  A    between atoms: C_55  and  O_56 
REMARK   11  A    between atoms: C_63  and  O_64 
REMARK   12  A    between atoms: C_73  and  C_75 
REMARK   13  A    between atoms: C_75  and  C_76 
REMARK       I    between atoms: C_76  and  N_77 
REMARK   14  A    between atoms: C_79  and  C_80 
REMARK   15  A    between atoms: C_80  and  C_81 
REMARK   16  A    between atoms: C_81  and  C_82 
REMARK       I    between atoms: C_82  and  N_83 
REMARK   17  A    between atoms: C_88  and  C_89 
REMARK   18  A    between atoms: C_89  and  C_90 
REMARK   19  A    between atoms: C_90  and  C_91 
REMARK       I    between atoms: C_91  and  N_92 
ROOT
HETATM    1  C   UNK N   1      25.896   7.303   0.468  0.00  0.00     0.148 C 
HETATM    2  C   UNK N   1      25.432   7.962  -0.801  0.00  0.00     0.042 C 
HETATM    3  C   UNK N   1      25.280   7.903   1.721  0.00  0.00     0.154 C 
HETATM    4  N   UNK N   1      24.956   7.036   2.832  0.00  0.00    -0.359 N 
HETATM    5  C   UNK N   1      23.861   6.252   2.791  0.00  0.00     0.217 C 
HETATM    6  O   UNK N   1      23.796   5.336   1.986  0.00  0.00    -0.274 OA
HETATM    7  C   UNK N   1      22.595   6.830   3.243  0.00  0.00     0.104 C 
HETATM    8  C   UNK N   1      22.037   7.306   1.915  0.00  0.00     0.025 C 
HETATM    9  C   UNK N   1      22.063   8.802   1.678  0.00  0.00     0.002 C 
HETATM   10  C   UNK N   1      21.670   8.995   0.226  0.00  0.00     0.022 C 
HETATM   11  C   UNK N   1      20.954   9.152   2.713  0.00  0.00     0.030 C 
HETATM   12  C   UNK N   1      21.572  10.211   3.572  0.00  0.00     0.116 C 
HETATM   13  N   UNK N   1      23.038  10.018   3.495  0.00  0.00    -0.206 NA
HETATM   14  C   UNK N   1      23.292   9.704   2.180  0.00  0.00     0.021 C 
HETATM   15  C   UNK N   1      24.231  10.456   1.430  0.00  0.00    -0.018 C 
HETATM   16  C   UNK N   1      24.238  10.351  -0.047  0.00  0.00     0.052 C 
HETATM   17  C   UNK N   1      25.170  11.562   1.984  0.00  0.00     0.047 C 
HETATM   18  N   UNK N   1      24.979  12.069   3.111  0.00  0.00    -0.256 N 
HETATM   19  C   UNK N   1      25.947  13.092   3.383  0.00  0.00     0.042 C 
HETATM   20  C   UNK N   1      26.152  13.766   4.528  0.00  0.00     0.028 C 
HETATM   21  C   UNK N   1      25.231  13.805   5.655  0.00  0.00     0.138 C 
HETATM   22  N   UNK N   1      24.137  13.192   5.418  0.00  0.00    -0.283 N 
HETATM   23  C   UNK N   1      23.243  14.345   5.147  0.00  0.00     0.046 C 
HETATM   24  C   UNK N   1      22.929  14.573   3.853  0.00  0.00    -0.012 C 
HETATM   25  C   UNK N   1      22.897  15.874   3.141  0.00  0.00     0.052 C 
HETATM   26  C   UNK N   1      22.190  13.603   3.269  0.00  0.00     0.042 C 
HETATM   27  N   UNK N   1      22.380  12.362   3.538  0.00  0.00    -0.280 N 
HETATM   28  C   UNK N   1      21.332  11.617   2.953  0.00  0.00     0.076 C 
HETATM   29  C   UNK N   1      21.537  11.605   1.395  0.00  0.00     0.043 C 
HETATM   30  C   UNK N   1      20.097  12.572   3.149  0.00  0.00     0.002 C 
HETATM   31  C   UNK N   1      19.799  12.768   4.638  0.00  0.00     0.019 C 
HETATM   32  C   UNK N   1      20.836  13.826   2.619  0.00  0.00     0.049 C 
HETATM   33 Co   UNK N   1      23.888  11.411   4.412  0.00  0.00     0.000 Co
HETATM   34  N   UNK N   1      25.546   9.975   4.811  0.00  0.00    -0.242 N 
HETATM   35  C   UNK N   1      26.748  10.050   4.063  0.00  0.00     0.213 A 
HETATM   36  N   UNK N   1      27.577   8.926   4.164  0.00  0.00    -0.309 N 
HETATM   37  C   UNK N   1      28.986   8.632   3.572  0.00  0.00     0.261 C 
HETATM   38  O   UNK N   1      29.121   9.242   2.328  0.00  0.00    -0.353 OA
HETATM   39  C   UNK N   1      29.312   8.220   1.369  0.00  0.00     0.180 C 
HETATM   40  C   UNK N   1      29.046   6.802   1.952  0.00  0.00     0.198 C 
HETATM   41  O   UNK N   1      27.717   6.513   2.297  0.00  0.00    -0.279 OA
HETATM   42  P   UNK N   1      26.965   5.213   1.386  0.00  0.00     0.409 P 
HETATM   43  O   UNK N   1      27.940   4.059   0.542  0.00  0.00    -0.624 OA
HETATM   44  O   UNK N   1      26.167   4.402   2.442  0.00  0.00    -0.624 OA
HETATM   45  O   UNK N   1      25.745   5.916   0.356  0.00  0.00    -0.283 OA
HETATM   46  C   UNK N   1      29.612   7.199   3.262  0.00  0.00     0.199 C 
HETATM   47  C   UNK N   1      26.924   8.109   4.954  0.00  0.00     0.067 A 
HETATM   48  C   UNK N   1      27.355   6.848   5.279  0.00  0.00     0.039 A 
HETATM   49  C   UNK N   1      26.558   6.016   6.007  0.00  0.00    -0.054 A 
HETATM   50  C   UNK N   1      27.071   4.635   6.295  0.00  0.00     0.049 C 
HETATM   51  C   UNK N   1      25.284   6.487   6.421  0.00  0.00    -0.054 A 
HETATM   52  C   UNK N   1      24.413   5.560   7.195  0.00  0.00     0.049 C 
HETATM   53  C   UNK N   1      24.832   7.830   6.092  0.00  0.00     0.041 A 
HETATM   54  C   UNK N   1      25.691   8.688   5.344  0.00  0.00     0.085 A 
HETATM   55  C   UNK N   1      23.466  15.463   6.064  0.00  0.00     0.015 C 
HETATM   56  C   UNK N   1      22.830  14.948   7.342  0.00  0.00     0.023 C 
HETATM   57  C   UNK N   1      24.991  15.270   6.218  0.00  0.00     0.029 C 
HETATM   58  C   UNK N   1      26.548  13.549   2.122  0.00  0.00     0.006 C 
HETATM   59  C   UNK N   1      27.839  14.374   2.243  0.00  0.00     0.022 C 
HETATM   60  C   UNK N   1      25.562  14.528   1.513  0.00  0.00     0.022 C 
HETATM   61  C   UNK N   1      26.462  12.202   1.338  0.00  0.00     0.052 C 
HETATM   62  H   UNK N   1      25.540   7.018   3.625  0.00  0.00     0.162 HD
ENDROOT
BRANCH  30  63
HETATM   63  C   UNK N   1      18.725  12.254   2.507  0.00  0.00     0.115 C 
BRANCH  63  64
HETATM   64  C   UNK N   1      18.395  12.687   1.106  0.00  0.00     0.216 C 
HETATM   65  N   UNK N   1      19.016  12.091   0.071  0.00  0.00    -0.370 N 
HETATM   66  H   UNK N   1      19.559  12.610  -0.565  0.00  0.00     0.159 HD
HETATM   67  H   UNK N   1      18.924  11.119  -0.052  0.00  0.00     0.159 HD
HETATM   68  O   UNK N   1      17.680  13.651   0.899  0.00  0.00    -0.274 OA
ENDBRANCH  63  64
ENDBRANCH  30  63
BRANCH  32  69
HETATM   69  C   UNK N   1      20.231  15.209   2.333  0.00  0.00     0.021 C 
BRANCH  69  70
HETATM   70  C   UNK N   1      20.356  15.668   0.897  0.00  0.00     0.103 C 
BRANCH  70  71
HETATM   71  C   UNK N   1      20.009  17.120   0.785  0.00  0.00     0.215 C 
HETATM   72  N   UNK N   1      19.248  17.701   1.733  0.00  0.00    -0.370 N 
HETATM   73  H   UNK N   1      18.543  17.183   2.184  0.00  0.00     0.159 HD
HETATM   74  H   UNK N   1      19.398  18.643   1.976  0.00  0.00     0.159 HD
HETATM   75  O   UNK N   1      20.430  17.788  -0.146  0.00  0.00    -0.274 OA
ENDBRANCH  70  71
ENDBRANCH  69  70
ENDBRANCH  32  69
BRANCH  33  76
HETATM   76  C   UNK N   1      22.857  10.844   5.986  0.00  0.00     0.180 C 
HETATM   77  N   UNK N   1      22.344  10.727   7.026  0.00  0.00    -0.180 NA
ENDBRANCH  33  76
BRANCH  11  78
HETATM   78  C   UNK N   1      19.472   9.449   2.406  0.00  0.00     0.110 C 
BRANCH  78  79
HETATM   79  C   UNK N   1      18.419   8.528   2.906  0.00  0.00     0.215 C 
HETATM   80  N   UNK N   1      18.771   7.443   3.620  0.00  0.00    -0.370 N 
HETATM   81  H   UNK N   1      19.022   6.501   3.478  0.00  0.00     0.159 HD
HETATM   82  H   UNK N   1      18.780   7.656   4.581  0.00  0.00     0.159 HD
HETATM   83  O   UNK N   1      17.244   8.826   2.798  0.00  0.00    -0.274 OA
ENDBRANCH  78  79
ENDBRANCH  11  78
BRANCH  55  84
HETATM   84  C   UNK N   1      22.634  16.832   5.918  0.00  0.00     0.118 C 
BRANCH  84  85
HETATM   85  C   UNK N   1      21.233  17.303   6.356  0.00  0.00     0.216 C 
HETATM   86  N   UNK N   1      20.124  16.706   5.884  0.00  0.00    -0.370 N 
HETATM   87  H   UNK N   1      19.243  17.124   5.755  0.00  0.00     0.159 HD
HETATM   88  H   UNK N   1      20.203  15.756   5.644  0.00  0.00     0.159 HD
HETATM   89  O   UNK N   1      21.110  18.312   7.042  0.00  0.00    -0.274 OA
ENDBRANCH  84  85
ENDBRANCH  55  84
BRANCH  61  90
HETATM   90  C   UNK N   1      27.689  11.331   1.793  0.00  0.00     0.021 C 
BRANCH  90  91
HETATM   91  C   UNK N   1      29.148  11.932   1.934  0.00  0.00     0.103 C 
BRANCH  91  92
HETATM   92  C   UNK N   1      30.095  12.122   0.733  0.00  0.00     0.215 C 
HETATM   93  N   UNK N   1      29.655  12.085  -0.537  0.00  0.00    -0.370 N 
HETATM   94  H   UNK N   1      29.286  12.580  -1.304  0.00  0.00     0.159 HD
HETATM   95  H   UNK N   1      29.738  11.147  -0.830  0.00  0.00     0.159 HD
HETATM   96  O   UNK N   1      31.297  12.191   0.926  0.00  0.00    -0.274 OA
ENDBRANCH  91  92
ENDBRANCH  90  91
ENDBRANCH  61  90
BRANCH  57  97
HETATM   97  C   UNK N   1      25.718  16.379   5.468  0.00  0.00     0.017 C 
BRANCH  97  98
HETATM   98  C   UNK N   1      26.996  16.747   6.206  0.00  0.00     0.103 C 
BRANCH  98  99
HETATM   99  C   UNK N   1      28.126  16.816   5.242  0.00  0.00     0.215 C 
HETATM  100  N   UNK N   1      29.302  16.242   5.552  0.00  0.00    -0.370 N 
HETATM  101  H   UNK N   1      30.167  16.607   5.253  0.00  0.00     0.159 HD
HETATM  102  H   UNK N   1      29.299  15.425   6.100  0.00  0.00     0.159 HD
HETATM  103  O   UNK N   1      27.994  17.399   4.178  0.00  0.00    -0.274 OA
ENDBRANCH  98  99
ENDBRANCH  97  98
ENDBRANCH  57  97
BRANCH  46 104
HETATM  104  O   UNK N   1      29.633   6.167   4.199  0.00  0.00    -0.388 OA
HETATM  105  H   UNK N   1      29.218   5.315   4.403  0.00  0.00     0.210 HD
ENDBRANCH  46 104
BRANCH  39 106
HETATM  106  C   UNK N   1      28.949   8.672  -0.045  0.00  0.00     0.198 C 
BRANCH 106 107
HETATM  107  O   UNK N   1      30.104   9.072  -0.728  0.00  0.00    -0.398 OA
HETATM  108  H   UNK N   1      30.609   8.553  -1.373  0.00  0.00     0.209 HD
ENDBRANCH 106 107
ENDBRANCH  39 106
TORSDOF 19
ENDMDL
MODEL 3
REMARK VINA RESULT:      -6.0      2.519      7.466
REMARK  19 active torsions:
REMARK  status: ('A' for Active; 'I' for Inactive)
REMARK    1  A    between atoms: C_11  and  C_12 
REMARK    2  A    between atoms: C_12  and  C_13 
REMARK       I    between atoms: C_13  and  N_14 
REMARK    3  A    between atoms: C_34  and  C_36 
REMARK    4  A    between atoms: C_36  and  C_37 
REMARK       I    between atoms: C_37  and  N_38 
REMARK    5  A    between atoms: C_40  and  C_41 
REMARK    6  A    between atoms: C_41  and  C_42 
REMARK    7  A    between atoms: C_42  and  C_43 
REMARK       I    between atoms: C_43  and  N_44 
REMARK    8  A    between atoms: Co_46  and  C_47 
REMARK    9  A    between atoms: C_54  and  C_55 
REMARK   10  A    between atoms: C_55  and  O_56 
REMARK   11  A    between atoms: C_63  and  O_64 
REMARK   12  A    between atoms: C_73  and  C_75 
REMARK   13  A    between atoms: C_75  and  C_76 
REMARK       I    between atoms: C_76  and  N_77 
REMARK   14  A    between atoms: C_79  and  C_80 
REMARK   15  A    between atoms: C_80  and  C_81 
REMARK   16  A    between atoms: C_81  and  C_82 
REMARK       I    between atoms: C_82  and  N_83 
REMARK   17  A    between atoms: C_88  and  C_89 
REMARK   18  A    between atoms: C_89  and  C_90 
REMARK   19  A    between atoms: C_90  and  C_91 
REMARK       I    between atoms: C_91  and  N_92 
ROOT
HETATM    1  C   UNK N   1      23.008  14.653   2.562  0.00  0.00     0.148 C 
HETATM    2  C   UNK N   1      23.567  14.486   1.177  0.00  0.00     0.042 C 
HETATM    3  C   UNK N   1      23.259  13.455   3.464  0.00  0.00     0.154 C 
HETATM    4  N   UNK N   1      23.529  13.675   4.868  0.00  0.00    -0.359 N 
HETATM    5  C   UNK N   1      24.739  14.105   5.273  0.00  0.00     0.217 C 
HETATM    6  O   UNK N   1      25.121  15.226   4.969  0.00  0.00    -0.274 OA
HETATM    7  C   UNK N   1      25.769  13.098   5.525  0.00  0.00     0.104 C 
HETATM    8  C   UNK N   1      26.464  13.093   4.176  0.00  0.00     0.025 C 
HETATM    9  C   UNK N   1      26.204  11.887   3.297  0.00  0.00     0.002 C 
HETATM   10  C   UNK N   1      26.815  12.222   1.949  0.00  0.00     0.022 C 
HETATM   11  C   UNK N   1      27.018  10.877   4.157  0.00  0.00     0.030 C 
HETATM   12  C   UNK N   1      26.066   9.747   4.399  0.00  0.00     0.116 C 
HETATM   13  N   UNK N   1      24.701  10.313   4.292  0.00  0.00    -0.206 NA
HETATM   14  C   UNK N   1      24.757  11.194   3.239  0.00  0.00     0.021 C 
HETATM   15  C   UNK N   1      23.849  11.080   2.156  0.00  0.00    -0.018 C 
HETATM   16  C   UNK N   1      24.134  11.785   0.885  0.00  0.00     0.052 C 
HETATM   17  C   UNK N   1      22.635  10.115   2.077  0.00  0.00     0.047 C 
HETATM   18  N   UNK N   1      22.516   9.158   2.873  0.00  0.00    -0.256 N 
HETATM   19  C   UNK N   1      21.342   8.388   2.578  0.00  0.00     0.042 C 
HETATM   20  C   UNK N   1      20.807   7.376   3.281  0.00  0.00     0.028 C 
HETATM   21  C   UNK N   1      21.481   6.646   4.347  0.00  0.00     0.138 C 
HETATM   22  N   UNK N   1      22.694   7.009   4.500  0.00  0.00    -0.283 N 
HETATM   23  C   UNK N   1      23.392   5.890   3.820  0.00  0.00     0.046 C 
HETATM   24  C   UNK N   1      23.891   6.148   2.592  0.00  0.00    -0.012 C 
HETATM   25  C   UNK N   1      23.810   5.296   1.381  0.00  0.00     0.052 C 
HETATM   26  C   UNK N   1      24.893   7.055   2.566  0.00  0.00     0.042 C 
HETATM   27  N   UNK N   1      24.891   8.078   3.343  0.00  0.00    -0.280 N 
HETATM   28  C   UNK N   1      26.149   8.712   3.240  0.00  0.00     0.076 C 
HETATM   29  C   UNK N   1      26.241   9.420   1.840  0.00  0.00     0.043 C 
HETATM   30  C   UNK N   1      27.127   7.489   3.094  0.00  0.00     0.002 C 
HETATM   31  C   UNK N   1      27.104   6.626   4.360  0.00  0.00     0.019 C 
HETATM   32  C   UNK N   1      26.278   6.793   2.002  0.00  0.00     0.049 C 
HETATM   33 Co   UNK N   1      23.452   8.923   4.417  0.00  0.00     0.000 Co
HETATM   34  N   UNK N   1      22.046  10.428   5.273  0.00  0.00    -0.242 N 
HETATM   35  C   UNK N   1      21.011  10.970   4.472  0.00  0.00     0.213 A 
HETATM   36  N   UNK N   1      20.402  12.118   4.993  0.00  0.00    -0.309 N 
HETATM   37  C   UNK N   1      19.206  12.971   4.476  0.00  0.00     0.261 C 
HETATM   38  O   UNK N   1      19.191  12.986   3.084  0.00  0.00    -0.353 OA
HETATM   39  C   UNK N   1      19.375  14.325   2.669  0.00  0.00     0.180 C 
HETATM   40  C   UNK N   1      19.788  15.260   3.843  0.00  0.00     0.198 C 
HETATM   41  O   UNK N   1      21.061  15.039   4.391  0.00  0.00    -0.279 OA
HETATM   42  P   UNK N   1      22.197  16.368   4.221  0.00  0.00     0.409 P 
HETATM   43  O   UNK N   1      21.627  17.971   3.900  0.00  0.00    -0.624 OA
HETATM   44  O   UNK N   1      22.923  16.443   5.591  0.00  0.00    -0.624 OA
HETATM   45  O   UNK N   1      23.433  15.876   3.093  0.00  0.00    -0.283 OA
HETATM   46  C   UNK N   1      18.926  14.509   4.786  0.00  0.00     0.199 C 
HETATM   47  C   UNK N   1      21.038  12.345   6.115  0.00  0.00     0.067 A 
HETATM   48  C   UNK N   1      20.797  13.422   6.930  0.00  0.00     0.039 A 
HETATM   49  C   UNK N   1      21.587  13.651   8.017  0.00  0.00    -0.054 A 
HETATM   50  C   UNK N   1      21.296  14.869   8.846  0.00  0.00     0.049 C 
HETATM   51  C   UNK N   1      22.652  12.750   8.283  0.00  0.00    -0.054 A 
HETATM   52  C   UNK N   1      23.523  13.025   9.459  0.00  0.00     0.049 C 
HETATM   53  C   UNK N   1      22.899  11.599   7.430  0.00  0.00     0.041 A 
HETATM   54  C   UNK N   1      22.048  11.370   6.310  0.00  0.00     0.085 A 
HETATM   55  C   UNK N   1      22.799   4.587   4.121  0.00  0.00     0.015 C 
HETATM   56  C   UNK N   1      23.273   4.351   5.543  0.00  0.00     0.023 C 
HETATM   57  C   UNK N   1      21.335   5.071   4.215  0.00  0.00     0.029 C 
HETATM   58  C   UNK N   1      20.909   8.660   1.200  0.00  0.00     0.006 C 
HETATM   59  C   UNK N   1      19.487   8.208   0.831  0.00  0.00     0.022 C 
HETATM   60  C   UNK N   1      21.790   7.810   0.304  0.00  0.00     0.022 C 
HETATM   61  C   UNK N   1      21.387  10.143   1.108  0.00  0.00     0.052 C 
HETATM   62  H   UNK N   1      22.822  13.507   5.533  0.00  0.00     0.162 HD
ENDROOT
BRANCH  30  63
HETATM   63  C   UNK N   1      28.629   7.692   2.780  0.00  0.00     0.115 C 
BRANCH  63  64
HETATM   64  C   UNK N   1      29.680   6.781   3.353  0.00  0.00     0.216 C 
HETATM   65  N   UNK N   1      30.486   7.240   4.328  0.00  0.00    -0.370 N 
HETATM   66  H   UNK N   1      31.463   7.265   4.212  0.00  0.00     0.159 HD
HETATM   67  H   UNK N   1      30.091   7.556   5.172  0.00  0.00     0.159 HD
HETATM   68  O   UNK N   1      29.898   5.688   2.862  0.00  0.00    -0.274 OA
ENDBRANCH  63  64
ENDBRANCH  30  63
BRANCH  32  69
HETATM   69  C   UNK N   1      26.656   5.550   1.182  0.00  0.00     0.021 C 
BRANCH  69  70
HETATM   70  C   UNK N   1      27.504   5.833  -0.039  0.00  0.00     0.103 C 
BRANCH  70  71
HETATM   71  C   UNK N   1      26.784   6.764  -0.965  0.00  0.00     0.215 C 
HETATM   72  N   UNK N   1      25.624   6.378  -1.531  0.00  0.00    -0.370 N 
HETATM   73  H   UNK N   1      25.481   5.434  -1.767  0.00  0.00     0.159 HD
HETATM   74  H   UNK N   1      24.919   7.043  -1.708  0.00  0.00     0.159 HD
HETATM   75  O   UNK N   1      27.229   7.878  -1.193  0.00  0.00    -0.274 OA
ENDBRANCH  70  71
ENDBRANCH  69  70
ENDBRANCH  32  69
BRANCH  33  76
HETATM   76  C   UNK N   1      24.262   8.512   6.160  0.00  0.00     0.180 C 
HETATM   77  N   UNK N   1      24.624   8.036   7.160  0.00  0.00    -0.180 NA
ENDBRANCH  33  76
BRANCH  11  78
HETATM   78  C   UNK N   1      28.449  10.376   3.876  0.00  0.00     0.110 C 
BRANCH  78  79
HETATM   79  C   UNK N   1      29.558  10.771   4.783  0.00  0.00     0.215 C 
HETATM   80  N   UNK N   1      29.977  12.050   4.798  0.00  0.00    -0.370 N 
HETATM   81  H   UNK N   1      30.625  12.633   4.338  0.00  0.00     0.159 HD
HETATM   82  H   UNK N   1      29.485  12.561   5.480  0.00  0.00     0.159 HD
HETATM   83  O   UNK N   1      29.985   9.984   5.606  0.00  0.00    -0.274 OA
ENDBRANCH  78  79
ENDBRANCH  11  78
BRANCH  55  84
HETATM   84  C   UNK N   1      23.374   3.241   3.451  0.00  0.00     0.118 C 
BRANCH  84  85
HETATM   85  C   UNK N   1      24.664   2.413   3.613  0.00  0.00     0.216 C 
HETATM   86  N   UNK N   1      24.629   1.174   4.135  0.00  0.00    -0.370 N 
HETATM   87  H   UNK N   1      25.346   0.730   4.641  0.00  0.00     0.159 HD
HETATM   88  H   UNK N   1      23.802   0.659   3.995  0.00  0.00     0.159 HD
HETATM   89  O   UNK N   1      25.754   2.924   3.386  0.00  0.00    -0.274 OA
ENDBRANCH  84  85
ENDBRANCH  55  84
BRANCH  61  90
HETATM   90  C   UNK N   1      20.282  11.022   1.799  0.00  0.00     0.021 C 
BRANCH  90  91
HETATM   91  C   UNK N   1      18.740  10.850   1.476  0.00  0.00     0.103 C 
BRANCH  91  92
HETATM   92  C   UNK N   1      18.069  11.476   0.238  0.00  0.00     0.215 C 
HETATM   93  N   UNK N   1      17.192  12.491   0.336  0.00  0.00    -0.370 N 
HETATM   94  H   UNK N   1      17.047  13.464   0.369  0.00  0.00     0.159 HD
HETATM   95  H   UNK N   1      16.300  12.078   0.408  0.00  0.00     0.159 HD
HETATM   96  O   UNK N   1      18.242  10.966  -0.856  0.00  0.00    -0.274 OA
ENDBRANCH  91  92
ENDBRANCH  90  91
ENDBRANCH  61  90
BRANCH  57  97
HETATM   97  C   UNK N   1      20.565   4.591   2.992  0.00  0.00     0.017 C 
BRANCH  97  98
HETATM   98  C   UNK N   1      19.428   3.678   3.425  0.00  0.00     0.103 C 
BRANCH  98  99
HETATM   99  C   UNK N   1      18.387   4.476   4.125  0.00  0.00     0.215 C 
HETATM  100  N   UNK N   1      18.035   4.154   5.383  0.00  0.00    -0.370 N 
HETATM  101  H   UNK N   1      17.120   4.276   5.726  0.00  0.00     0.159 HD
HETATM  102  H   UNK N   1      18.719   3.781   5.984  0.00  0.00     0.159 HD
HETATM  103  O   UNK N   1      17.846   5.413   3.561  0.00  0.00    -0.274 OA
ENDBRANCH  98  99
ENDBRANCH  97  98
ENDBRANCH  57  97
BRANCH  46 104
HETATM  104  O   UNK N   1      18.925  15.031   6.078  0.00  0.00    -0.388 OA
HETATM  105  H   UNK N   1      18.791  15.858   6.567  0.00  0.00     0.210 HD
ENDBRANCH  46 104
BRANCH  39 106
HETATM  106  C   UNK N   1      19.901  14.425   1.237  0.00  0.00     0.198 C 
BRANCH 106 107
HETATM  107  O   UNK N   1      18.934  15.013   0.414  0.00  0.00    -0.398 OA
HETATM  108  H   UNK N   1      18.610  14.679  -0.437  0.00  0.00     0.209 HD
ENDBRANCH 106 107
ENDBRANCH  39 106
TORSDOF 19
ENDMDL
MODEL 4
REMARK VINA RESULT:      -5.9      8.068     14.526
REMARK  19 active torsions:
REMARK  status: ('A' for Active; 'I' for Inactive)
REMARK    1  A    between atoms: C_11  and  C_12 
REMARK    2  A    between atoms: C_12  and  C_13 
REMARK       I    between atoms: C_13  and  N_14 
REMARK    3  A    between atoms: C_34  and  C_36 
REMARK    4  A    between atoms: C_36  and  C_37 
REMARK       I    between atoms: C_37  and  N_38 
REMARK    5  A    between atoms: C_40  and  C_41 
REMARK    6  A    between atoms: C_41  and  C_42 
REMARK    7  A    between atoms: C_42  and  C_43 
REMARK       I    between atoms: C_43  and  N_44 
REMARK    8  A    between atoms: Co_46  and  C_47 
REMARK    9  A    between atoms: C_54  and  C_55 
REMARK   10  A    between atoms: C_55  and  O_56 
REMARK   11  A    between atoms: C_63  and  O_64 
REMARK   12  A    between atoms: C_73  and  C_75 
REMARK   13  A    between atoms: C_75  and  C_76 
REMARK       I    between atoms: C_76  and  N_77 
REMARK   14  A    between atoms: C_79  and  C_80 
REMARK   15  A    between atoms: C_80  and  C_81 
REMARK   16  A    between atoms: C_81  and  C_82 
REMARK       I    between atoms: C_82  and  N_83 
REMARK   17  A    between atoms: C_88  and  C_89 
REMARK   18  A    between atoms: C_89  and  C_90 
REMARK   19  A    between atoms: C_90  and  C_91 
REMARK       I    between atoms: C_91  and  N_92 
ROOT
HETATM    1  C   UNK N   1      35.637   8.804  11.767  0.00  0.00     0.148 C 
HETATM    2  C   UNK N   1      34.218   9.158  12.113  0.00  0.00     0.042 C 
HETATM    3  C   UNK N   1      36.152   9.512  10.525  0.00  0.00     0.154 C 
HETATM    4  N   UNK N   1      37.535   9.932  10.476  0.00  0.00    -0.359 N 
HETATM    5  C   UNK N   1      37.942  11.027  11.146  0.00  0.00     0.217 C 
HETATM    6  O   UNK N   1      37.926  11.036  12.368  0.00  0.00    -0.274 OA
HETATM    7  C   UNK N   1      37.822  12.320  10.472  0.00  0.00     0.104 C 
HETATM    8  C   UNK N   1      36.471  12.765  10.999  0.00  0.00     0.025 C 
HETATM    9  C   UNK N   1      35.319  12.708  10.017  0.00  0.00     0.002 C 
HETATM   10  C   UNK N   1      34.070  12.981  10.833  0.00  0.00     0.022 C 
HETATM   11  C   UNK N   1      35.800  13.892   9.129  0.00  0.00     0.030 C 
HETATM   12  C   UNK N   1      35.799  13.336   7.740  0.00  0.00     0.116 C 
HETATM   13  N   UNK N   1      35.965  11.870   7.870  0.00  0.00    -0.206 NA
HETATM   14  C   UNK N   1      35.193  11.514   8.950  0.00  0.00     0.021 C 
HETATM   15  C   UNK N   1      34.198  10.511   8.825  0.00  0.00    -0.018 C 
HETATM   16  C   UNK N   1      33.151  10.387   9.864  0.00  0.00     0.052 C 
HETATM   17  C   UNK N   1      33.959   9.610   7.583  0.00  0.00     0.047 C 
HETATM   18  N   UNK N   1      34.468   9.886   6.475  0.00  0.00    -0.256 N 
HETATM   19  C   UNK N   1      34.071   8.934   5.478  0.00  0.00     0.042 C 
HETATM   20  C   UNK N   1      34.511   8.815   4.214  0.00  0.00     0.028 C 
HETATM   21  C   UNK N   1      35.277   9.824   3.493  0.00  0.00     0.138 C 
HETATM   22  N   UNK N   1      35.424  10.901   4.162  0.00  0.00    -0.283 N 
HETATM   23  C   UNK N   1      34.408  11.759   3.504  0.00  0.00     0.046 C 
HETATM   24  C   UNK N   1      33.261  11.966   4.186  0.00  0.00    -0.012 C 
HETATM   25  C   UNK N   1      31.873  11.929   3.664  0.00  0.00     0.052 C 
HETATM   26  C   UNK N   1      33.402  12.665   5.335  0.00  0.00     0.042 C 
HETATM   27  N   UNK N   1      34.427  12.508   6.093  0.00  0.00    -0.280 N 
HETATM   28  C   UNK N   1      34.399  13.512   7.086  0.00  0.00     0.076 C 
HETATM   29  C   UNK N   1      33.244  13.183   8.099  0.00  0.00     0.043 C 
HETATM   30  C   UNK N   1      33.843  14.750   6.291  0.00  0.00     0.002 C 
HETATM   31  C   UNK N   1      34.821  15.166   5.187  0.00  0.00     0.019 C 
HETATM   32  C   UNK N   1      32.675  13.960   5.650  0.00  0.00     0.049 C 
HETATM   33 Co   UNK N   1      35.807  11.084   6.178  0.00  0.00     0.000 Co
HETATM   34  N   UNK N   1      37.155   9.476   6.933  0.00  0.00    -0.242 N 
HETATM   35  C   UNK N   1      36.621   8.218   7.308  0.00  0.00     0.213 A 
HETATM   36  N   UNK N   1      37.485   7.410   8.056  0.00  0.00    -0.309 N 
HETATM   37  C   UNK N   1      37.323   5.960   8.601  0.00  0.00     0.261 C 
HETATM   38  O   UNK N   1      35.994   5.720   8.941  0.00  0.00    -0.353 OA
HETATM   39  C   UNK N   1      35.949   5.463  10.330  0.00  0.00     0.180 C 
HETATM   40  C   UNK N   1      37.295   5.787  11.039  0.00  0.00     0.198 C 
HETATM   41  O   UNK N   1      37.655   7.142  11.094  0.00  0.00    -0.279 OA
HETATM   42  P   UNK N   1      37.764   7.830  12.707  0.00  0.00     0.409 P 
HETATM   43  O   UNK N   1      37.943   6.801  14.087  0.00  0.00    -0.624 OA
HETATM   44  O   UNK N   1      39.037   8.718  12.672  0.00  0.00    -0.624 OA
HETATM   45  O   UNK N   1      36.446   8.957  12.898  0.00  0.00    -0.283 OA
HETATM   46  C   UNK N   1      38.064   5.324   9.860  0.00  0.00     0.199 C 
HETATM   47  C   UNK N   1      38.570   8.131   8.193  0.00  0.00     0.067 A 
HETATM   48  C   UNK N   1      39.667   7.739   8.919  0.00  0.00     0.039 A 
HETATM   49  C   UNK N   1      40.705   8.599   9.113  0.00  0.00    -0.054 A 
HETATM   50  C   UNK N   1      41.858   8.123   9.950  0.00  0.00     0.049 C 
HETATM   51  C   UNK N   1      40.626   9.897   8.544  0.00  0.00    -0.054 A 
HETATM   52  C   UNK N   1      41.757  10.837   8.784  0.00  0.00     0.049 C 
HETATM   53  C   UNK N   1      39.473  10.310   7.760  0.00  0.00     0.041 A 
HETATM   54  C   UNK N   1      38.406   9.386   7.556  0.00  0.00     0.085 A 
HETATM   55  C   UNK N   1      34.388  11.600   2.050  0.00  0.00     0.015 C 
HETATM   56  C   UNK N   1      35.646  12.341   1.639  0.00  0.00     0.023 C 
HETATM   57  C   UNK N   1      34.731  10.094   2.027  0.00  0.00     0.029 C 
HETATM   58  C   UNK N   1      32.861   8.230   5.924  0.00  0.00     0.006 C 
HETATM   59  C   UNK N   1      32.501   6.945   5.161  0.00  0.00     0.022 C 
HETATM   60  C   UNK N   1      31.697   9.154   5.622  0.00  0.00     0.022 C 
HETATM   61  C   UNK N   1      33.140   8.264   7.459  0.00  0.00     0.052 C 
HETATM   62  H   UNK N   1      38.185   9.414   9.947  0.00  0.00     0.162 HD
ENDROOT
BRANCH  30  63
HETATM   63  C   UNK N   1      33.474  16.070   7.011  0.00  0.00     0.115 C 
BRANCH  63  64
HETATM   64  C   UNK N   1      33.750  17.409   6.384  0.00  0.00     0.216 C 
HETATM   65  N   UNK N   1      33.196  17.704   5.194  0.00  0.00    -0.370 N 
HETATM   66  H   UNK N   1      33.753  17.924   4.413  0.00  0.00     0.159 HD
HETATM   67  H   UNK N   1      32.216  17.700   5.104  0.00  0.00     0.159 HD
HETATM   68  O   UNK N   1      34.566  18.172   6.870  0.00  0.00    -0.274 OA
ENDBRANCH  63  64
ENDBRANCH  30  63
BRANCH  32  69
HETATM   69  C   UNK N   1      31.518  14.528   4.814  0.00  0.00     0.021 C 
BRANCH  69  70
HETATM   70  C   UNK N   1      30.250  14.799   5.594  0.00  0.00     0.103 C 
BRANCH  70  71
HETATM   71  C   UNK N   1      30.074  16.272   5.801  0.00  0.00     0.215 C 
HETATM   72  N   UNK N   1      29.768  16.743   7.025  0.00  0.00    -0.370 N 
HETATM   73  H   UNK N   1      29.202  16.212   7.629  0.00  0.00     0.159 HD
HETATM   74  H   UNK N   1      30.111  17.619   7.315  0.00  0.00     0.159 HD
HETATM   75  O   UNK N   1      30.229  17.051   4.873  0.00  0.00    -0.274 OA
ENDBRANCH  70  71
ENDBRANCH  69  70
ENDBRANCH  32  69
BRANCH  33  76
HETATM   76  C   UNK N   1      37.297  12.243   5.632  0.00  0.00     0.180 C 
HETATM   77  N   UNK N   1      38.240  12.729   5.150  0.00  0.00    -0.180 NA
ENDBRANCH  33  76
BRANCH  11  78
HETATM   78  C   UNK N   1      35.276  15.342   9.171  0.00  0.00     0.110 C 
BRANCH  78  79
HETATM   79  C   UNK N   1      35.738  16.261  10.242  0.00  0.00     0.215 C 
HETATM   80  N   UNK N   1      34.872  17.137  10.784  0.00  0.00    -0.370 N 
HETATM   81  H   UNK N   1      34.542  18.054  10.637  0.00  0.00     0.159 HD
HETATM   82  H   UNK N   1      34.433  16.740  11.570  0.00  0.00     0.159 HD
HETATM   83  O   UNK N   1      36.846  16.126  10.728  0.00  0.00    -0.274 OA
ENDBRANCH  78  79
ENDBRANCH  11  78
BRANCH  55  84
HETATM   84  C   UNK N   1      33.329  12.405   1.144  0.00  0.00     0.118 C 
BRANCH  84  85
HETATM   85  C   UNK N   1      32.785  12.245  -0.290  0.00  0.00     0.216 C 
HETATM   86  N   UNK N   1      33.498  12.660  -1.351  0.00  0.00    -0.370 N 
HETATM   87  H   UNK N   1      33.141  12.979  -2.210  0.00  0.00     0.159 HD
HETATM   88  H   UNK N   1      34.477  12.643  -1.258  0.00  0.00     0.159 HD
HETATM   89  O   UNK N   1      31.638  11.852  -0.471  0.00  0.00    -0.274 OA
ENDBRANCH  84  85
ENDBRANCH  55  84
BRANCH  61  90
HETATM   90  C   UNK N   1      34.134   7.086   7.768  0.00  0.00     0.021 C 
BRANCH  90  91
HETATM   91  C   UNK N   1      33.831   5.590   7.342  0.00  0.00     0.103 C 
BRANCH  91  92
HETATM   92  C   UNK N   1      32.757   4.725   8.029  0.00  0.00     0.215 C 
HETATM   93  N   UNK N   1      33.014   3.477   8.464  0.00  0.00    -0.370 N 
HETATM   94  H   UNK N   1      33.328   2.901   9.198  0.00  0.00     0.159 HD
HETATM   95  H   UNK N   1      32.788   2.874   7.718  0.00  0.00     0.159 HD
HETATM   96  O   UNK N   1      31.608   5.128   8.079  0.00  0.00    -0.274 OA
ENDBRANCH  91  92
ENDBRANCH  90  91
ENDBRANCH  61  90
BRANCH  57  97
HETATM   97  C   UNK N   1      33.490   9.299   1.640  0.00  0.00     0.017 C 
BRANCH  97  98
HETATM   98  C   UNK N   1      33.835   8.312   0.536  0.00  0.00     0.103 C 
BRANCH  98  99
HETATM   99  C   UNK N   1      33.482   8.898  -0.784  0.00  0.00     0.215 C 
HETATM  100  N   UNK N   1      32.218   8.813  -1.234  0.00  0.00    -0.370 N 
HETATM  101  H   UNK N   1      31.998   8.728  -2.190  0.00  0.00     0.159 HD
HETATM  102  H   UNK N   1      31.481   8.837  -0.581  0.00  0.00     0.159 HD
HETATM  103  O   UNK N   1      34.336   9.444  -1.464  0.00  0.00    -0.274 OA
ENDBRANCH  98  99
ENDBRANCH  97  98
ENDBRANCH  57  97
BRANCH  46 104
HETATM  104  O   UNK N   1      39.446   5.388  10.033  0.00  0.00    -0.388 OA
HETATM  105  H   UNK N   1      40.216   5.937   9.821  0.00  0.00     0.210 HD
ENDBRANCH  46 104
BRANCH  39 106
HETATM  106  C   UNK N   1      34.561   5.706  10.923  0.00  0.00     0.198 C 
BRANCH 106 107
HETATM  107  O   UNK N   1      34.593   5.511  12.309  0.00  0.00    -0.398 OA
HETATM  108  H   UNK N   1      35.021   6.078  12.968  0.00  0.00     0.209 HD
ENDBRANCH 106 107
ENDBRANCH  39 106
TORSDOF 19
ENDMDL
MODEL 5
REMARK VINA RESULT:      -5.7     11.529     16.319
REMARK  19 active torsions:
REMARK  status: ('A' for Active; 'I' for Inactive)
REMARK    1  A    between atoms: C_11  and  C_12 
REMARK    2  A    between atoms: C_12  and  C_13 
REMARK       I    between atoms: C_13  and  N_14 
REMARK    3  A    between atoms: C_34  and  C_36 
REMARK    4  A    between atoms: C_36  and  C_37 
REMARK       I    between atoms: C_37  and  N_38 
REMARK    5  A    between atoms: C_40  and  C_41 
REMARK    6  A    between atoms: C_41  and  C_42 
REMARK    7  A    between atoms: C_42  and  C_43 
REMARK       I    between atoms: C_43  and  N_44 
REMARK    8  A    between atoms: Co_46  and  C_47 
REMARK    9  A    between atoms: C_54  and  C_55 
REMARK   10  A    between atoms: C_55  and  O_56 
REMARK   11  A    between atoms: C_63  and  O_64 
REMARK   12  A    between atoms: C_73  and  C_75 
REMARK   13  A    between atoms: C_75  and  C_76 
REMARK       I    between atoms: C_76  and  N_77 
REMARK   14  A    between atoms: C_79  and  C_80 
REMARK   15  A    between atoms: C_80  and  C_81 
REMARK   16  A    between atoms: C_81  and  C_82 
REMARK       I    between atoms: C_82  and  N_83 
REMARK   17  A    between atoms: C_88  and  C_89 
REMARK   18  A    between atoms: C_89  and  C_90 
REMARK   19  A    between atoms: C_90  and  C_91 
REMARK       I    between atoms: C_91  and  N_92 
ROOT
HETATM    1  C   UNK N   1      38.417  10.542   4.147  0.00  0.00     0.148 C 
HETATM    2  C   UNK N   1      37.038  10.033   3.835  0.00  0.00     0.042 C 
HETATM    3  C   UNK N   1      38.917  10.131   5.522  0.00  0.00     0.154 C 
HETATM    4  N   UNK N   1      40.318   9.821   5.699  0.00  0.00    -0.359 N 
HETATM    5  C   UNK N   1      40.817   8.643   5.278  0.00  0.00     0.217 C 
HETATM    6  O   UNK N   1      40.856   8.390   4.083  0.00  0.00    -0.274 OA
HETATM    7  C   UNK N   1      40.742   7.507   6.196  0.00  0.00     0.104 C 
HETATM    8  C   UNK N   1      39.443   6.877   5.726  0.00  0.00     0.025 C 
HETATM    9  C   UNK N   1      38.248   7.055   6.639  0.00  0.00     0.002 C 
HETATM   10  C   UNK N   1      37.054   6.543   5.857  0.00  0.00     0.022 C 
HETATM   11  C   UNK N   1      38.756   6.106   7.763  0.00  0.00     0.030 C 
HETATM   12  C   UNK N   1      38.662   6.927   9.011  0.00  0.00     0.116 C 
HETATM   13  N   UNK N   1      38.749   8.346   8.592  0.00  0.00    -0.206 NA
HETATM   14  C   UNK N   1      38.006   8.427   7.438  0.00  0.00     0.021 C 
HETATM   15  C   UNK N   1      36.950   9.368   7.326  0.00  0.00    -0.018 C 
HETATM   16  C   UNK N   1      35.945   9.213   6.250  0.00  0.00     0.052 C 
HETATM   17  C   UNK N   1      36.605  10.481   8.351  0.00  0.00     0.047 C 
HETATM   18  N   UNK N   1      37.080  10.467   9.508  0.00  0.00    -0.256 N 
HETATM   19  C   UNK N   1      36.585  11.570  10.279  0.00  0.00     0.042 C 
HETATM   20  C   UNK N   1      36.961  11.969  11.506  0.00  0.00     0.028 C 
HETATM   21  C   UNK N   1      37.750  11.177  12.440  0.00  0.00     0.138 C 
HETATM   22  N   UNK N   1      37.989  10.000  12.008  0.00  0.00    -0.283 N 
HETATM   23  C   UNK N   1      36.996   9.225  12.793  0.00  0.00     0.046 C 
HETATM   24  C   UNK N   1      35.894   8.812  12.131  0.00  0.00    -0.012 C 
HETATM   25  C   UNK N   1      34.484   8.862  12.591  0.00  0.00     0.052 C 
HETATM   26  C   UNK N   1      36.126   7.908  11.152  0.00  0.00     0.042 C 
HETATM   27  N   UNK N   1      37.173   7.977  10.411  0.00  0.00    -0.280 N 
HETATM   28  C   UNK N   1      37.247   6.795   9.642  0.00  0.00     0.076 C 
HETATM   29  C   UNK N   1      36.121   6.838   8.547  0.00  0.00     0.043 C 
HETATM   30  C   UNK N   1      36.728   5.707  10.653  0.00  0.00     0.002 C 
HETATM   31  C   UNK N   1      37.679   5.586  11.848  0.00  0.00     0.019 C 
HETATM   32  C   UNK N   1      35.490   6.531  11.084  0.00  0.00     0.049 C 
HETATM   33 Co   UNK N   1      38.470   9.442  10.084  0.00  0.00     0.000 Co
HETATM   34  N   UNK N   1      39.755  10.952   9.062  0.00  0.00    -0.242 N 
HETATM   35  C   UNK N   1      39.168  12.071   8.424  0.00  0.00     0.213 A 
HETATM   36  N   UNK N   1      40.016  12.768   7.555  0.00  0.00    -0.309 N 
HETATM   37  C   UNK N   1      39.794  14.066   6.723  0.00  0.00     0.261 C 
HETATM   38  O   UNK N   1      38.471  14.145   6.300  0.00  0.00    -0.353 OA
HETATM   39  C   UNK N   1      38.472  14.116   4.886  0.00  0.00     0.180 C 
HETATM   40  C   UNK N   1      39.865  13.745   4.301  0.00  0.00     0.198 C 
HETATM   41  O   UNK N   1      40.304  12.433   4.533  0.00  0.00    -0.279 OA
HETATM   42  P   UNK N   1      40.524  11.445   3.097  0.00  0.00     0.409 P 
HETATM   43  O   UNK N   1      40.704  12.186   1.544  0.00  0.00    -0.624 OA
HETATM   44  O   UNK N   1      41.843  10.667   3.351  0.00  0.00    -0.624 OA
HETATM   45  O   UNK N   1      39.283  10.219   3.096  0.00  0.00    -0.283 OA
HETATM   46  C   UNK N   1      40.553  14.484   5.386  0.00  0.00     0.199 C 
HETATM   47  C   UNK N   1      41.146  12.107   7.602  0.00  0.00     0.067 A 
HETATM   48  C   UNK N   1      42.249  12.416   6.847  0.00  0.00     0.039 A 
HETATM   49  C   UNK N   1      43.343  11.604   6.864  0.00  0.00    -0.054 A 
HETATM   50  C   UNK N   1      44.502  11.978   5.985  0.00  0.00     0.049 C 
HETATM   51  C   UNK N   1      43.314  10.444   7.681  0.00  0.00    -0.054 A 
HETATM   52  C   UNK N   1      44.506   9.552   7.673  0.00  0.00     0.049 C 
HETATM   53  C   UNK N   1      42.152  10.122   8.495  0.00  0.00     0.041 A 
HETATM   54  C   UNK N   1      41.026  10.996   8.474  0.00  0.00     0.085 A 
HETATM   55  C   UNK N   1      36.902   9.670  14.184  0.00  0.00     0.015 C 
HETATM   56  C   UNK N   1      38.182   9.110  14.776  0.00  0.00     0.023 C 
HETATM   57  C   UNK N   1      37.157  11.169  13.912  0.00  0.00     0.029 C 
HETATM   58  C   UNK N   1      35.357  12.090   9.661  0.00  0.00     0.006 C 
HETATM   59  C   UNK N   1      34.890  13.476  10.136  0.00  0.00     0.022 C 
HETATM   60  C   UNK N   1      34.236  11.171  10.107  0.00  0.00     0.022 C 
HETATM   61  C   UNK N   1      35.705  11.768   8.174  0.00  0.00     0.052 C 
HETATM   62  H   UNK N   1      40.913  10.476   6.132  0.00  0.00     0.162 HD
ENDROOT
BRANCH  30  63
HETATM   63  C   UNK N   1      36.468   4.249  10.204  0.00  0.00     0.115 C 
BRANCH  63  64
HETATM   64  C   UNK N   1      36.597   3.098  11.163  0.00  0.00     0.216 C 
HETATM   65  N   UNK N   1      37.627   2.242  11.027  0.00  0.00    -0.370 N 
HETATM   66  H   UNK N   1      37.475   1.282  10.873  0.00  0.00     0.159 HD
HETATM   67  H   UNK N   1      38.549   2.583  11.085  0.00  0.00     0.159 HD
HETATM   68  O   UNK N   1      35.720   2.854  11.971  0.00  0.00    -0.274 OA
ENDBRANCH  63  64
ENDBRANCH  30  63
BRANCH  32  69
HETATM   69  C   UNK N   1      34.331   6.068  11.979  0.00  0.00     0.021 C 
BRANCH  69  70
HETATM   70  C   UNK N   1      33.215   5.354  11.249  0.00  0.00     0.103 C 
BRANCH  70  71
HETATM   71  C   UNK N   1      32.730   6.186  10.103  0.00  0.00     0.215 C 
HETATM   72  N   UNK N   1      32.736   5.676   8.856  0.00  0.00    -0.370 N 
HETATM   73  H   UNK N   1      33.440   5.044   8.586  0.00  0.00     0.159 HD
HETATM   74  H   UNK N   1      32.034   5.935   8.216  0.00  0.00     0.159 HD
HETATM   75  O   UNK N   1      32.309   7.317  10.293  0.00  0.00    -0.274 OA
ENDBRANCH  70  71
ENDBRANCH  69  70
ENDBRANCH  32  69
BRANCH  33  76
HETATM   76  C   UNK N   1      39.999   8.516  10.900  0.00  0.00     0.180 C 
HETATM   77  N   UNK N   1      40.976   8.209  11.458  0.00  0.00    -0.180 NA
ENDBRANCH  33  76
BRANCH  11  78
HETATM   78  C   UNK N   1      38.319   4.646   7.999  0.00  0.00     0.110 C 
BRANCH  78  79
HETATM   79  C   UNK N   1      39.323   3.555   7.917  0.00  0.00     0.215 C 
HETATM   80  N   UNK N   1      40.555   3.822   7.446  0.00  0.00    -0.370 N 
HETATM   81  H   UNK N   1      41.041   3.847   6.590  0.00  0.00     0.159 HD
HETATM   82  H   UNK N   1      41.156   4.068   8.185  0.00  0.00     0.159 HD
HETATM   83  O   UNK N   1      39.085   2.466   8.405  0.00  0.00    -0.274 OA
ENDBRANCH  78  79
ENDBRANCH  11  78
BRANCH  55  84
HETATM   84  C   UNK N   1      35.853   8.995  15.200  0.00  0.00     0.118 C 
BRANCH  84  85
HETATM   85  C   UNK N   1      35.782   7.652  15.953  0.00  0.00     0.216 C 
HETATM   86  N   UNK N   1      35.787   6.484  15.286  0.00  0.00    -0.370 N 
HETATM   87  H   UNK N   1      35.364   5.643  15.572  0.00  0.00     0.159 HD
HETATM   88  H   UNK N   1      36.261   6.470  14.425  0.00  0.00     0.159 HD
HETATM   89  O   UNK N   1      35.592   7.636  17.164  0.00  0.00    -0.274 OA
ENDBRANCH  84  85
ENDBRANCH  55  84
BRANCH  61  90
HETATM   90  C   UNK N   1      36.642  12.923   7.665  0.00  0.00     0.021 C 
BRANCH  90  91
HETATM   91  C   UNK N   1      36.204  14.446   7.700  0.00  0.00     0.103 C 
BRANCH  91  92
HETATM   92  C   UNK N   1      35.045  15.003   6.852  0.00  0.00     0.215 C 
HETATM   93  N   UNK N   1      33.859  14.375   6.762  0.00  0.00    -0.370 N 
HETATM   94  H   UNK N   1      32.954  14.250   7.130  0.00  0.00     0.159 HD
HETATM   95  H   UNK N   1      33.923  13.776   5.982  0.00  0.00     0.159 HD
HETATM   96  O   UNK N   1      35.237  15.978   6.146  0.00  0.00    -0.274 OA
ENDBRANCH  91  92
ENDBRANCH  90  91
ENDBRANCH  61  90
BRANCH  57  97
HETATM   97  C   UNK N   1      35.856  11.943  14.090  0.00  0.00     0.017 C 
BRANCH  97  98
HETATM   98  C   UNK N   1      35.965  12.863  15.297  0.00  0.00     0.103 C 
BRANCH  98  99
HETATM   99  C   UNK N   1      36.739  14.078  14.929  0.00  0.00     0.215 C 
HETATM  100  N   UNK N   1      36.589  14.618  13.706  0.00  0.00    -0.370 N 
HETATM  101  H   UNK N   1      37.325  15.067  13.229  0.00  0.00     0.159 HD
HETATM  102  H   UNK N   1      35.709  14.561  13.269  0.00  0.00     0.159 HD
HETATM  103  O   UNK N   1      37.514  14.580  15.726  0.00  0.00    -0.274 OA
ENDBRANCH  98  99
ENDBRANCH  97  98
ENDBRANCH  57  97
BRANCH  46 104
HETATM  104  O   UNK N   1      41.942  14.477   5.273  0.00  0.00    -0.388 OA
HETATM  105  H   UNK N   1      42.729  13.995   5.571  0.00  0.00     0.210 HD
ENDBRANCH  46 104
BRANCH  39 106
HETATM  106  C   UNK N   1      37.128  13.669   4.311  0.00  0.00     0.198 C 
BRANCH 106 107
HETATM  107  O   UNK N   1      37.246  13.457   2.933  0.00  0.00    -0.398 OA
HETATM  108  H   UNK N   1      37.679  14.038   2.289  0.00  0.00     0.209 HD
ENDBRANCH 106 107
ENDBRANCH  39 106
TORSDOF 19
ENDMDL
MODEL 6
REMARK VINA RESULT:      -5.6      5.718     11.823
REMARK  19 active torsions:
REMARK  status: ('A' for Active; 'I' for Inactive)
REMARK    1  A    between atoms: C_11  and  C_12 
REMARK    2  A    between atoms: C_12  and  C_13 
REMARK       I    between atoms: C_13  and  N_14 
REMARK    3  A    between atoms: C_34  and  C_36 
REMARK    4  A    between atoms: C_36  and  C_37 
REMARK       I    between atoms: C_37  and  N_38 
REMARK    5  A    between atoms: C_40  and  C_41 
REMARK    6  A    between atoms: C_41  and  C_42 
REMARK    7  A    between atoms: C_42  and  C_43 
REMARK       I    between atoms: C_43  and  N_44 
REMARK    8  A    between atoms: Co_46  and  C_47 
REMARK    9  A    between atoms: C_54  and  C_55 
REMARK   10  A    between atoms: C_55  and  O_56 
REMARK   11  A    between atoms: C_63  and  O_64 
REMARK   12  A    between atoms: C_73  and  C_75 
REMARK   13  A    between atoms: C_75  and  C_76 
REMARK       I    between atoms: C_76  and  N_77 
REMARK   14  A    between atoms: C_79  and  C_80 
REMARK   15  A    between atoms: C_80  and  C_81 
REMARK   16  A    between atoms: C_81  and  C_82 
REMARK       I    between atoms: C_82  and  N_83 
REMARK   17  A    between atoms: C_88  and  C_89 
REMARK   18  A    between atoms: C_89  and  C_90 
REMARK   19  A    between atoms: C_90  and  C_91 
REMARK       I    between atoms: C_91  and  N_92 
ROOT
HETATM    1  C   UNK N   1      32.507   7.376   0.208  0.00  0.00     0.148 C 
HETATM    2  C   UNK N   1      32.266   6.684   1.520  0.00  0.00     0.042 C 
HETATM    3  C   UNK N   1      33.045   8.790   0.359  0.00  0.00     0.154 C 
HETATM    4  N   UNK N   1      34.010   9.282  -0.598  0.00  0.00    -0.359 N 
HETATM    5  C   UNK N   1      35.298   8.894  -0.534  0.00  0.00     0.217 C 
HETATM    6  O   UNK N   1      35.595   7.729  -0.752  0.00  0.00    -0.274 OA
HETATM    7  C   UNK N   1      36.195   9.656   0.334  0.00  0.00     0.104 C 
HETATM    8  C   UNK N   1      36.107   8.822   1.598  0.00  0.00     0.025 C 
HETATM    9  C   UNK N   1      35.306   9.419   2.737  0.00  0.00     0.002 C 
HETATM   10  C   UNK N   1      35.184   8.320   3.775  0.00  0.00     0.022 C 
HETATM   11  C   UNK N   1      36.325  10.544   3.083  0.00  0.00     0.030 C 
HETATM   12  C   UNK N   1      35.507  11.797   3.078  0.00  0.00     0.116 C 
HETATM   13  N   UNK N   1      34.348  11.544   2.190  0.00  0.00    -0.206 NA
HETATM   14  C   UNK N   1      33.961  10.253   2.462  0.00  0.00     0.021 C 
HETATM   15  C   UNK N   1      32.624   9.967   2.837  0.00  0.00    -0.018 C 
HETATM   16  C   UNK N   1      32.304   8.664   3.464  0.00  0.00     0.052 C 
HETATM   17  C   UNK N   1      31.439  10.970   2.836  0.00  0.00     0.047 C 
HETATM   18  N   UNK N   1      31.633  12.202   2.753  0.00  0.00    -0.256 N 
HETATM   19  C   UNK N   1      30.394  12.922   2.814  0.00  0.00     0.042 C 
HETATM   20  C   UNK N   1      30.180  14.235   2.626  0.00  0.00     0.028 C 
HETATM   21  C   UNK N   1      31.214  15.261   2.612  0.00  0.00     0.138 C 
HETATM   22  N   UNK N   1      32.371  14.797   2.888  0.00  0.00    -0.283 N 
HETATM   23  C   UNK N   1      32.499  15.235   4.300  0.00  0.00     0.046 C 
HETATM   24  C   UNK N   1      32.333  14.284   5.244  0.00  0.00    -0.012 C 
HETATM   25  C   UNK N   1      31.557  14.379   6.504  0.00  0.00     0.052 C 
HETATM   26  C   UNK N   1      33.278  13.317   5.246  0.00  0.00     0.042 C 
HETATM   27  N   UNK N   1      33.783  12.870   4.153  0.00  0.00    -0.280 N 
HETATM   28  C   UNK N   1      34.877  12.040   4.479  0.00  0.00     0.076 C 
HETATM   29  C   UNK N   1      34.327  10.707   5.102  0.00  0.00     0.043 C 
HETATM   30  C   UNK N   1      35.504  12.786   5.714  0.00  0.00     0.002 C 
HETATM   31  C   UNK N   1      36.029  14.165   5.301  0.00  0.00     0.019 C 
HETATM   32  C   UNK N   1      34.148  12.966   6.440  0.00  0.00     0.049 C 
HETATM   33 Co   UNK N   1      33.189  13.012   2.264  0.00  0.00     0.000 Co
HETATM   34  N   UNK N   1      32.586  12.486   0.183  0.00  0.00    -0.242 N 
HETATM   35  C   UNK N   1      31.356  11.826  -0.056  0.00  0.00     0.213 A 
HETATM   36  N   UNK N   1      31.225  11.263  -1.331  0.00  0.00    -0.309 N 
HETATM   37  C   UNK N   1      30.036  10.525  -2.012  0.00  0.00     0.261 C 
HETATM   38  O   UNK N   1      29.321   9.793  -1.068  0.00  0.00    -0.353 OA
HETATM   39  C   UNK N   1      29.416   8.428  -1.424  0.00  0.00     0.180 C 
HETATM   40  C   UNK N   1      30.467   8.178  -2.544  0.00  0.00     0.198 C 
HETATM   41  O   UNK N   1      31.809   8.392  -2.193  0.00  0.00    -0.279 OA
HETATM   42  P   UNK N   1      32.842   6.973  -2.258  0.00  0.00     0.409 P 
HETATM   43  O   UNK N   1      32.371   5.588  -3.182  0.00  0.00    -0.624 OA
HETATM   44  O   UNK N   1      34.165   7.477  -2.895  0.00  0.00    -0.624 OA
HETATM   45  O   UNK N   1      33.274   6.550  -0.621  0.00  0.00    -0.283 OA
HETATM   46  C   UNK N   1      30.124   9.463  -3.197  0.00  0.00     0.199 C 
HETATM   47  C   UNK N   1      32.362  11.531  -1.924  0.00  0.00     0.067 A 
HETATM   48  C   UNK N   1      32.689  11.107  -3.187  0.00  0.00     0.039 A 
HETATM   49  C   UNK N   1      33.940  11.324  -3.683  0.00  0.00    -0.054 A 
HETATM   50  C   UNK N   1      34.245  10.800  -5.057  0.00  0.00     0.049 C 
HETATM   51  C   UNK N   1      34.885  11.998  -2.867  0.00  0.00    -0.054 A 
HETATM   52  C   UNK N   1      36.256  12.207  -3.410  0.00  0.00     0.049 C 
HETATM   53  C   UNK N   1      34.537  12.464  -1.534  0.00  0.00     0.041 A 
HETATM   54  C   UNK N   1      33.217  12.241  -1.044  0.00  0.00     0.085 A 
HETATM   55  C   UNK N   1      32.000  16.593   4.519  0.00  0.00     0.015 C 
HETATM   56  C   UNK N   1      33.098  17.433   3.895  0.00  0.00     0.023 C 
HETATM   57  C   UNK N   1      30.849  16.531   3.491  0.00  0.00     0.029 C 
HETATM   58  C   UNK N   1      29.357  12.068   3.408  0.00  0.00     0.006 C 
HETATM   59  C   UNK N   1      27.904  12.534   3.229  0.00  0.00     0.022 C 
HETATM   60  C   UNK N   1      29.563  12.133   4.910  0.00  0.00     0.022 C 
HETATM   61  C   UNK N   1      29.884  10.692   2.892  0.00  0.00     0.052 C 
HETATM   62  H   UNK N   1      33.723   9.908  -1.303  0.00  0.00     0.162 HD
ENDROOT
BRANCH  30  63
HETATM   63  C   UNK N   1      36.653  12.155   6.538  0.00  0.00     0.115 C 
BRANCH  63  64
HETATM   64  C   UNK N   1      37.746  12.999   7.133  0.00  0.00     0.216 C 
HETATM   65  N   UNK N   1      37.512  13.665   8.279  0.00  0.00    -0.370 N 
HETATM   66  H   UNK N   1      37.589  14.645   8.323  0.00  0.00     0.159 HD
HETATM   67  H   UNK N   1      37.260  13.162   9.087  0.00  0.00     0.159 HD
HETATM   68  O   UNK N   1      38.787  13.192   6.531  0.00  0.00    -0.274 OA
ENDBRANCH  63  64
ENDBRANCH  30  63
BRANCH  32  69
HETATM   69  C   UNK N   1      33.919  13.498   7.863  0.00  0.00     0.021 C 
BRANCH  69  70
HETATM   70  C   UNK N   1      33.812  12.428   8.927  0.00  0.00     0.103 C 
BRANCH  70  71
HETATM   71  C   UNK N   1      34.513  12.867  10.175  0.00  0.00     0.215 C 
HETATM   72  N   UNK N   1      34.421  12.119  11.292  0.00  0.00    -0.370 N 
HETATM   73  H   UNK N   1      33.594  11.622  11.485  0.00  0.00     0.159 HD
HETATM   74  H   UNK N   1      35.182  12.071  11.915  0.00  0.00     0.159 HD
HETATM   75  O   UNK N   1      35.187  13.886  10.182  0.00  0.00    -0.274 OA
ENDBRANCH  70  71
ENDBRANCH  69  70
ENDBRANCH  32  69
BRANCH  33  76
HETATM   76  C   UNK N   1      34.718  14.098   1.675  0.00  0.00     0.180 C 
HETATM   77  N   UNK N   1      35.484  14.765   1.105  0.00  0.00    -0.180 NA
ENDBRANCH  33  76
BRANCH  11  78
HETATM   78  C   UNK N   1      37.352  10.529   4.234  0.00  0.00     0.110 C 
BRANCH  78  79
HETATM   79  C   UNK N   1      38.803  10.478   3.924  0.00  0.00     0.215 C 
HETATM   80  N   UNK N   1      39.213  10.595   2.647  0.00  0.00    -0.370 N 
HETATM   81  H   UNK N   1      39.391  10.027   1.862  0.00  0.00     0.159 HD
HETATM   82  H   UNK N   1      39.389  11.538   2.432  0.00  0.00     0.159 HD
HETATM   83  O   UNK N   1      39.622  10.476   4.824  0.00  0.00    -0.274 OA
ENDBRANCH  78  79
ENDBRANCH  11  78
BRANCH  55  84
HETATM   84  C   UNK N   1      32.003  17.249   5.989  0.00  0.00     0.118 C 
BRANCH  84  85
HETATM   85  C   UNK N   1      33.086  17.538   7.046  0.00  0.00     0.216 C 
HETATM   86  N   UNK N   1      32.798  17.505   8.359  0.00  0.00    -0.370 N 
HETATM   87  H   UNK N   1      33.235  18.027   9.069  0.00  0.00     0.159 HD
HETATM   88  H   UNK N   1      32.077  16.896   8.637  0.00  0.00     0.159 HD
HETATM   89  O   UNK N   1      34.196  17.926   6.698  0.00  0.00    -0.274 OA
ENDBRANCH  84  85
ENDBRANCH  55  84
BRANCH  61  90
HETATM   90  C   UNK N   1      29.386  10.540   1.409  0.00  0.00     0.021 C 
BRANCH  90  91
HETATM   91  C   UNK N   1      27.874  10.774   0.997  0.00  0.00     0.103 C 
BRANCH  91  92
HETATM   92  C   UNK N   1      26.772   9.721   1.221  0.00  0.00     0.215 C 
HETATM   93  N   UNK N   1      26.775   8.898   2.285  0.00  0.00    -0.370 N 
HETATM   94  H   UNK N   1      26.506   8.746   3.220  0.00  0.00     0.159 HD
HETATM   95  H   UNK N   1      27.263   8.088   2.005  0.00  0.00     0.159 HD
HETATM   96  O   UNK N   1      25.933   9.541   0.354  0.00  0.00    -0.274 OA
ENDBRANCH  91  92
ENDBRANCH  90  91
ENDBRANCH  61  90
BRANCH  57  97
HETATM   97  C   UNK N   1      29.517  16.448   4.227  0.00  0.00     0.017 C 
BRANCH  97  98
HETATM   98  C   UNK N   1      28.596  17.561   3.752  0.00  0.00     0.103 C 
BRANCH  98  99
HETATM   99  C   UNK N   1      28.438  18.573   4.830  0.00  0.00     0.215 C 
HETATM  100  N   UNK N   1      28.505  18.190   6.117  0.00  0.00    -0.370 N 
HETATM  101  H   UNK N   1      27.982  18.625   6.830  0.00  0.00     0.159 HD
HETATM  102  H   UNK N   1      29.101  17.444   6.358  0.00  0.00     0.159 HD
HETATM  103  O   UNK N   1      28.239  19.744   4.551  0.00  0.00    -0.274 OA
ENDBRANCH  98  99
ENDBRANCH  97  98
ENDBRANCH  57  97
BRANCH  46 104
HETATM  104  O   UNK N   1      30.835   9.701  -4.372  0.00  0.00    -0.388 OA
HETATM  105  H   UNK N   1      31.736   9.709  -4.729  0.00  0.00     0.210 HD
ENDBRANCH  46 104
BRANCH  39 106
HETATM  106  C   UNK N   1      29.153   7.497  -0.240  0.00  0.00     0.198 C 
BRANCH 106 107
HETATM  107  O   UNK N   1      27.805   7.122  -0.219  0.00  0.00    -0.398 OA
HETATM  108  H   UNK N   1      27.442   6.238  -0.381  0.00  0.00     0.209 HD
ENDBRANCH 106 107
ENDBRANCH  39 106
TORSDOF 19
ENDMDL
MODEL 7
REMARK VINA RESULT:      -5.6      6.630     13.717
REMARK  19 active torsions:
REMARK  status: ('A' for Active; 'I' for Inactive)
REMARK    1  A    between atoms: C_11  and  C_12 
REMARK    2  A    between atoms: C_12  and  C_13 
REMARK       I    between atoms: C_13  and  N_14 
REMARK    3  A    between atoms: C_34  and  C_36 
REMARK    4  A    between atoms: C_36  and  C_37 
REMARK       I    between atoms: C_37  and  N_38 
REMARK    5  A    between atoms: C_40  and  C_41 
REMARK    6  A    between atoms: C_41  and  C_42 
REMARK    7  A    between atoms: C_42  and  C_43 
REMARK       I    between atoms: C_43  and  N_44 
REMARK    8  A    between atoms: Co_46  and  C_47 
REMARK    9  A    between atoms: C_54  and  C_55 
REMARK   10  A    between atoms: C_55  and  O_56 
REMARK   11  A    between atoms: C_63  and  O_64 
REMARK   12  A    between atoms: C_73  and  C_75 
REMARK   13  A    between atoms: C_75  and  C_76 
REMARK       I    between atoms: C_76  and  N_77 
REMARK   14  A    between atoms: C_79  and  C_80 
REMARK   15  A    between atoms: C_80  and  C_81 
REMARK   16  A    between atoms: C_81  and  C_82 
REMARK       I    between atoms: C_82  and  N_83 
REMARK   17  A    between atoms: C_88  and  C_89 
REMARK   18  A    between atoms: C_89  and  C_90 
REMARK   19  A    between atoms: C_90  and  C_91 
REMARK       I    between atoms: C_91  and  N_92 
ROOT
HETATM    1  C   UNK N   1      35.249  10.593  11.052  0.00  0.00     0.148 C 
HETATM    2  C   UNK N   1      33.815  10.860  11.415  0.00  0.00     0.042 C 
HETATM    3  C   UNK N   1      35.643  11.151   9.694  0.00  0.00     0.154 C 
HETATM    4  N   UNK N   1      36.974  11.688   9.513  0.00  0.00    -0.359 N 
HETATM    5  C   UNK N   1      37.292  12.905   9.993  0.00  0.00     0.217 C 
HETATM    6  O   UNK N   1      37.321  13.096  11.199  0.00  0.00    -0.274 OA
HETATM    7  C   UNK N   1      37.017  14.063   9.143  0.00  0.00     0.104 C 
HETATM    8  C   UNK N   1      35.648  14.454   9.669  0.00  0.00     0.025 C 
HETATM    9  C   UNK N   1      34.473  14.140   8.767  0.00  0.00     0.002 C 
HETATM   10  C   UNK N   1      33.233  14.413   9.597  0.00  0.00     0.022 C 
HETATM   11  C   UNK N   1      34.798  15.216   7.691  0.00  0.00     0.030 C 
HETATM   12  C   UNK N   1      34.802  14.459   6.400  0.00  0.00     0.116 C 
HETATM   13  N   UNK N   1      35.120  13.051   6.735  0.00  0.00    -0.206 NA
HETATM   14  C   UNK N   1      34.429  12.792   7.895  0.00  0.00     0.021 C 
HETATM   15  C   UNK N   1      33.537  11.692   7.970  0.00  0.00    -0.018 C 
HETATM   16  C   UNK N   1      32.547  11.627   9.069  0.00  0.00     0.052 C 
HETATM   17  C   UNK N   1      33.344  10.595   6.888  0.00  0.00     0.047 C 
HETATM   18  N   UNK N   1      33.782  10.747   5.727  0.00  0.00    -0.256 N 
HETATM   19  C   UNK N   1      33.447   9.622   4.902  0.00  0.00     0.042 C 
HETATM   20  C   UNK N   1      33.850   9.355   3.648  0.00  0.00     0.028 C 
HETATM   21  C   UNK N   1      34.482  10.311   2.748  0.00  0.00     0.138 C 
HETATM   22  N   UNK N   1      34.543  11.486   3.243  0.00  0.00    -0.283 N 
HETATM   23  C   UNK N   1      33.422  12.135   2.520  0.00  0.00     0.046 C 
HETATM   24  C   UNK N   1      32.286  12.333   3.222  0.00  0.00    -0.012 C 
HETATM   25  C   UNK N   1      30.891  12.086   2.783  0.00  0.00     0.052 C 
HETATM   26  C   UNK N   1      32.398  13.208   4.247  0.00  0.00     0.042 C 
HETATM   27  N   UNK N   1      33.461  13.265   4.966  0.00  0.00    -0.280 N 
HETATM   28  C   UNK N   1      33.368  14.401   5.801  0.00  0.00     0.076 C 
HETATM   29  C   UNK N   1      32.291  14.121   6.910  0.00  0.00     0.043 C 
HETATM   30  C   UNK N   1      32.661  15.446   4.862  0.00  0.00     0.002 C 
HETATM   31  C   UNK N   1      33.550  15.781   3.661  0.00  0.00     0.019 C 
HETATM   32  C   UNK N   1      31.556  14.461   4.405  0.00  0.00     0.049 C 
HETATM   33 Co   UNK N   1      34.980  12.008   5.188  0.00  0.00     0.000 Co
HETATM   34  N   UNK N   1      36.511  10.667   6.100  0.00  0.00    -0.242 N 
HETATM   35  C   UNK N   1      36.122   9.435   6.682  0.00  0.00     0.213 A 
HETATM   36  N   UNK N   1      37.090   8.835   7.496  0.00  0.00    -0.309 N 
HETATM   37  C   UNK N   1      37.096   7.476   8.255  0.00  0.00     0.261 C 
HETATM   38  O   UNK N   1      35.812   7.165   8.695  0.00  0.00    -0.353 OA
HETATM   39  C   UNK N   1      35.844   7.118  10.107  0.00  0.00     0.180 C 
HETATM   40  C   UNK N   1      37.176   7.672  10.691  0.00  0.00     0.198 C 
HETATM   41  O   UNK N   1      37.399   9.047  10.527  0.00  0.00    -0.279 OA
HETATM   42  P   UNK N   1      37.496   9.979  12.014  0.00  0.00     0.409 P 
HETATM   43  O   UNK N   1      37.829   9.192  13.519  0.00  0.00    -0.624 OA
HETATM   44  O   UNK N   1      38.671  10.967  11.783  0.00  0.00    -0.624 OA
HETATM   45  O   UNK N   1      36.079  10.991  12.105  0.00  0.00    -0.283 OA
HETATM   46  C   UNK N   1      37.944   7.111   9.554  0.00  0.00     0.199 C 
HETATM   47  C   UNK N   1      38.101   9.668   7.469  0.00  0.00     0.067 A 
HETATM   48  C   UNK N   1      39.257   9.496   8.187  0.00  0.00     0.039 A 
HETATM   49  C   UNK N   1      40.210  10.470   8.199  0.00  0.00    -0.054 A 
HETATM   50  C   UNK N   1      41.435  10.237   9.036  0.00  0.00     0.049 C 
HETATM   51  C   UNK N   1      39.979  11.654   7.450  0.00  0.00    -0.054 A 
HETATM   52  C   UNK N   1      41.017  12.721   7.491  0.00  0.00     0.049 C 
HETATM   53  C   UNK N   1      38.762  11.832   6.675  0.00  0.00     0.041 A 
HETATM   54  C   UNK N   1      37.787  10.792   6.664  0.00  0.00     0.085 A 
HETATM   55  C   UNK N   1      33.365  11.757   1.108  0.00  0.00     0.015 C 
HETATM   56  C   UNK N   1      34.525  12.543   0.528  0.00  0.00     0.023 C 
HETATM   57  C   UNK N   1      33.858  10.304   1.289  0.00  0.00     0.029 C 
HETATM   58  C   UNK N   1      32.332   8.882   5.508  0.00  0.00     0.006 C 
HETATM   59  C   UNK N   1      32.076   7.468   4.962  0.00  0.00     0.022 C 
HETATM   60  C   UNK N   1      31.069   9.636   5.134  0.00  0.00     0.022 C 
HETATM   61  C   UNK N   1      32.662   9.174   7.005  0.00  0.00     0.052 C 
HETATM   62  H   UNK N   1      37.652  11.159   9.033  0.00  0.00     0.162 HD
ENDROOT
BRANCH  30  63
HETATM   63  C   UNK N   1      32.187  16.819   5.399  0.00  0.00     0.115 C 
BRANCH  63  64
HETATM   64  C   UNK N   1      30.729  17.186   5.432  0.00  0.00     0.216 C 
HETATM   65  N   UNK N   1      30.218  17.938   4.440  0.00  0.00    -0.370 N 
HETATM   66  H   UNK N   1      29.799  18.809   4.625  0.00  0.00     0.159 HD
HETATM   67  H   UNK N   1      30.264  17.609   3.513  0.00  0.00     0.159 HD
HETATM   68  O   UNK N   1      30.039  16.928   6.403  0.00  0.00    -0.274 OA
ENDBRANCH  63  64
ENDBRANCH  30  63
BRANCH  32  69
HETATM   69  C   UNK N   1      30.317  14.784   3.557  0.00  0.00     0.021 C 
BRANCH  69  70
HETATM   70  C   UNK N   1      28.996  14.447   4.213  0.00  0.00     0.103 C 
BRANCH  70  71
HETATM   71  C   UNK N   1      27.891  15.242   3.591  0.00  0.00     0.215 C 
HETATM   72  N   UNK N   1      26.627  14.779   3.637  0.00  0.00    -0.370 N 
HETATM   73  H   UNK N   1      26.455  13.811   3.600  0.00  0.00     0.159 HD
HETATM   74  H   UNK N   1      25.874  15.410   3.708  0.00  0.00     0.159 HD
HETATM   75  O   UNK N   1      28.123  16.318   3.063  0.00  0.00    -0.274 OA
ENDBRANCH  70  71
ENDBRANCH  69  70
ENDBRANCH  32  69
BRANCH  33  76
HETATM   76  C   UNK N   1      36.324  13.206   4.401  0.00  0.00     0.180 C 
HETATM   77  N   UNK N   1      37.208  13.697   3.820  0.00  0.00    -0.180 NA
ENDBRANCH  33  76
BRANCH  11  78
HETATM   78  C   UNK N   1      34.131  16.599   7.546  0.00  0.00     0.110 C 
BRANCH  78  79
HETATM   79  C   UNK N   1      34.563  17.719   8.422  0.00  0.00     0.215 C 
HETATM   80  N   UNK N   1      34.543  17.561   9.758  0.00  0.00    -0.370 N 
HETATM   81  H   UNK N   1      33.928  17.679  10.518  0.00  0.00     0.159 HD
HETATM   82  H   UNK N   1      35.412  17.225  10.074  0.00  0.00     0.159 HD
HETATM   83  O   UNK N   1      35.066  18.716   7.938  0.00  0.00    -0.274 OA
ENDBRANCH  78  79
ENDBRANCH  11  78
BRANCH  55  84
HETATM   84  C   UNK N   1      32.197  12.312   0.149  0.00  0.00     0.118 C 
BRANCH  84  85
HETATM   85  C   UNK N   1      31.819  12.106  -1.331  0.00  0.00     0.216 C 
HETATM   86  N   UNK N   1      30.555  11.815  -1.688  0.00  0.00    -0.370 N 
HETATM   87  H   UNK N   1      30.272  11.292  -2.472  0.00  0.00     0.159 HD
HETATM   88  H   UNK N   1      29.842  12.160  -1.106  0.00  0.00     0.159 HD
HETATM   89  O   UNK N   1      32.693  12.080  -2.191  0.00  0.00    -0.274 OA
ENDBRANCH  84  85
ENDBRANCH  55  84
BRANCH  61  90
HETATM   90  C   UNK N   1      33.781   8.156   7.432  0.00  0.00     0.021 C 
BRANCH  90  91
HETATM   91  C   UNK N   1      33.599   6.588   7.285  0.00  0.00     0.103 C 
BRANCH  91  92
HETATM   92  C   UNK N   1      32.608   5.776   8.141  0.00  0.00     0.215 C 
HETATM   93  N   UNK N   1      32.975   4.657   8.791  0.00  0.00    -0.370 N 
HETATM   94  H   UNK N   1      33.341   4.255   9.612  0.00  0.00     0.159 HD
HETATM   95  H   UNK N   1      32.799   3.910   8.173  0.00  0.00     0.159 HD
HETATM   96  O   UNK N   1      31.428   6.083   8.139  0.00  0.00    -0.274 OA
ENDBRANCH  91  92
ENDBRANCH  90  91
ENDBRANCH  61  90
BRANCH  57  97
HETATM   97  C   UNK N   1      32.690   9.346   1.087  0.00  0.00     0.017 C 
BRANCH  97  98
HETATM   98  C   UNK N   1      33.059   8.295   0.051  0.00  0.00     0.103 C 
BRANCH  98  99
HETATM   99  C   UNK N   1      32.465   8.660  -1.262  0.00  0.00     0.215 C 
HETATM  100  N   UNK N   1      33.270   8.979  -2.292  0.00  0.00    -0.370 N 
HETATM  101  H   UNK N   1      33.019   9.640  -2.978  0.00  0.00     0.159 HD
HETATM  102  H   UNK N   1      34.144   8.533  -2.364  0.00  0.00     0.159 HD
HETATM  103  O   UNK N   1      31.254   8.682  -1.406  0.00  0.00    -0.274 OA
ENDBRANCH  98  99
ENDBRANCH  97  98
ENDBRANCH  57  97
BRANCH  46 104
HETATM  104  O   UNK N   1      39.317   7.330   9.645  0.00  0.00    -0.388 OA
HETATM  105  H   UNK N   1      40.009   7.585  10.275  0.00  0.00     0.210 HD
ENDBRANCH  46 104
BRANCH  39 106
HETATM  106  C   UNK N   1      34.461   7.316  10.729  0.00  0.00     0.198 C 
BRANCH 106 107
HETATM  107  O   UNK N   1      34.032   6.124  11.325  0.00  0.00    -0.398 OA
HETATM  108  H   UNK N   1      34.586   5.454  11.754  0.00  0.00     0.209 HD
ENDBRANCH 106 107
ENDBRANCH  39 106
TORSDOF 19
ENDMDL
MODEL 8
REMARK VINA RESULT:      -5.6      9.870     15.360
REMARK  19 active torsions:
REMARK  status: ('A' for Active; 'I' for Inactive)
REMARK    1  A    between atoms: C_11  and  C_12 
REMARK    2  A    between atoms: C_12  and  C_13 
REMARK       I    between atoms: C_13  and  N_14 
REMARK    3  A    between atoms: C_34  and  C_36 
REMARK    4  A    between atoms: C_36  and  C_37 
REMARK       I    between atoms: C_37  and  N_38 
REMARK    5  A    between atoms: C_40  and  C_41 
REMARK    6  A    between atoms: C_41  and  C_42 
REMARK    7  A    between atoms: C_42  and  C_43 
REMARK       I    between atoms: C_43  and  N_44 
REMARK    8  A    between atoms: Co_46  and  C_47 
REMARK    9  A    between atoms: C_54  and  C_55 
REMARK   10  A    between atoms: C_55  and  O_56 
REMARK   11  A    between atoms: C_63  and  O_64 
REMARK   12  A    between atoms: C_73  and  C_75 
REMARK   13  A    between atoms: C_75  and  C_76 
REMARK       I    between atoms: C_76  and  N_77 
REMARK   14  A    between atoms: C_79  and  C_80 
REMARK   15  A    between atoms: C_80  and  C_81 
REMARK   16  A    between atoms: C_81  and  C_82 
REMARK       I    between atoms: C_82  and  N_83 
REMARK   17  A    between atoms: C_88  and  C_89 
REMARK   18  A    between atoms: C_89  and  C_90 
REMARK   19  A    between atoms: C_90  and  C_91 
REMARK       I    between atoms: C_91  and  N_92 
ROOT
HETATM    1  C   UNK N   1      39.512   7.381  11.630  0.00  0.00     0.148 C 
HETATM    2  C   UNK N   1      40.740   8.167  11.265  0.00  0.00     0.042 C 
HETATM    3  C   UNK N   1      38.354   7.587  10.668  0.00  0.00     0.154 C 
HETATM    4  N   UNK N   1      37.486   6.472  10.362  0.00  0.00    -0.359 N 
HETATM    5  C   UNK N   1      37.886   5.506   9.513  0.00  0.00     0.217 C 
HETATM    6  O   UNK N   1      38.813   4.770   9.820  0.00  0.00    -0.274 OA
HETATM    7  C   UNK N   1      37.649   5.715   8.085  0.00  0.00     0.104 C 
HETATM    8  C   UNK N   1      38.983   6.318   7.685  0.00  0.00     0.025 C 
HETATM    9  C   UNK N   1      38.982   7.805   7.394  0.00  0.00     0.002 C 
HETATM   10  C   UNK N   1      40.440   8.194   7.242  0.00  0.00     0.022 C 
HETATM   11  C   UNK N   1      38.181   7.713   6.063  0.00  0.00     0.030 C 
HETATM   12  C   UNK N   1      37.059   8.687   6.240  0.00  0.00     0.116 C 
HETATM   13  N   UNK N   1      36.833   8.814   7.698  0.00  0.00    -0.206 NA
HETATM   14  C   UNK N   1      38.089   8.822   8.258  0.00  0.00     0.021 C 
HETATM   15  C   UNK N   1      38.490   9.881   9.112  0.00  0.00    -0.018 C 
HETATM   16  C   UNK N   1      39.926  10.070   9.416  0.00  0.00     0.052 C 
HETATM   17  C   UNK N   1      37.582  11.024   9.640  0.00  0.00     0.047 C 
HETATM   18  N   UNK N   1      36.463  11.251   9.129  0.00  0.00    -0.256 N 
HETATM   19  C   UNK N   1      35.832  12.377   9.756  0.00  0.00     0.042 C 
HETATM   20  C   UNK N   1      34.584  12.841   9.579  0.00  0.00     0.028 C 
HETATM   21  C   UNK N   1      33.698  12.471   8.483  0.00  0.00     0.138 C 
HETATM   22  N   UNK N   1      34.263  11.707   7.631  0.00  0.00    -0.283 N 
HETATM   23  C   UNK N   1      34.553  12.685   6.553  0.00  0.00     0.046 C 
HETATM   24  C   UNK N   1      35.835  13.093   6.438  0.00  0.00    -0.012 C 
HETATM   25  C   UNK N   1      36.334  14.474   6.228  0.00  0.00     0.052 C 
HETATM   26  C   UNK N   1      36.707  12.126   6.073  0.00  0.00     0.042 C 
HETATM   27  N   UNK N   1      36.590  10.921   6.502  0.00  0.00    -0.280 N 
HETATM   28  C   UNK N   1      37.499  10.109   5.790  0.00  0.00     0.076 C 
HETATM   29  C   UNK N   1      38.956  10.443   6.275  0.00  0.00     0.043 C 
HETATM   30  C   UNK N   1      37.445  10.736   4.348  0.00  0.00     0.002 C 
HETATM   31  C   UNK N   1      36.048  10.572   3.741  0.00  0.00     0.019 C 
HETATM   32  C   UNK N   1      37.603  12.193   4.849  0.00  0.00     0.049 C 
HETATM   33 Co   UNK N   1      35.552  10.145   8.005  0.00  0.00     0.000 Co
HETATM   34  N   UNK N   1      35.010   9.026   9.856  0.00  0.00    -0.242 N 
HETATM   35  C   UNK N   1      35.450   9.487  11.122  0.00  0.00     0.213 A 
HETATM   36  N   UNK N   1      35.334   8.557  12.162  0.00  0.00    -0.309 N 
HETATM   37  C   UNK N   1      35.633   8.677  13.685  0.00  0.00     0.261 C 
HETATM   38  O   UNK N   1      36.711   9.533  13.898  0.00  0.00    -0.353 OA
HETATM   39  C   UNK N   1      37.743   8.778  14.501  0.00  0.00     0.180 C 
HETATM   40  C   UNK N   1      37.452   7.249  14.479  0.00  0.00     0.198 C 
HETATM   41  O   UNK N   1      37.461   6.636  13.217  0.00  0.00    -0.279 OA
HETATM   42  P   UNK N   1      38.700   5.413  12.980  0.00  0.00     0.409 P 
HETATM   43  O   UNK N   1      39.466   4.669  14.341  0.00  0.00    -0.624 OA
HETATM   44  O   UNK N   1      37.982   4.267  12.218  0.00  0.00    -0.624 OA
HETATM   45  O   UNK N   1      39.861   6.042  11.839  0.00  0.00    -0.283 OA
HETATM   46  C   UNK N   1      36.004   7.490  14.682  0.00  0.00     0.199 C 
HETATM   47  C   UNK N   1      34.842   7.487  11.590  0.00  0.00     0.067 A 
HETATM   48  C   UNK N   1      34.620   6.301  12.242  0.00  0.00     0.039 A 
HETATM   49  C   UNK N   1      34.221   5.198  11.547  0.00  0.00    -0.054 A 
HETATM   50  C   UNK N   1      34.033   3.921  12.314  0.00  0.00     0.049 C 
HETATM   51  C   UNK N   1      34.037   5.311  10.144  0.00  0.00    -0.054 A 
HETATM   52  C   UNK N   1      33.625   4.094   9.392  0.00  0.00     0.049 C 
HETATM   53  C   UNK N   1      34.255   6.572   9.452  0.00  0.00     0.041 A 
HETATM   54  C   UNK N   1      34.656   7.715  10.203  0.00  0.00     0.085 A 
HETATM   55  C   UNK N   1      33.453  13.624   6.329  0.00  0.00     0.015 C 
HETATM   56  C   UNK N   1      32.441  12.751   5.610  0.00  0.00     0.023 C 
HETATM   57  C   UNK N   1      32.992  13.718   7.800  0.00  0.00     0.029 C 
HETATM   58  C   UNK N   1      36.844  13.183  10.452  0.00  0.00     0.006 C 
HETATM   59  C   UNK N   1      36.316  14.213  11.463  0.00  0.00     0.022 C 
HETATM   60  C   UNK N   1      37.506  14.041   9.391  0.00  0.00     0.022 C 
HETATM   61  C   UNK N   1      37.819  12.027  10.838  0.00  0.00     0.052 C 
HETATM   62  H   UNK N   1      36.594   6.419  10.777  0.00  0.00     0.162 HD
ENDROOT
BRANCH  30  63
HETATM   63  C   UNK N   1      38.417  10.278   3.234  0.00  0.00     0.115 C 
BRANCH  63  64
HETATM   64  C   UNK N   1      38.036  10.352   1.781  0.00  0.00     0.216 C 
HETATM   65  N   UNK N   1      37.769   9.215   1.112  0.00  0.00    -0.370 N 
HETATM   66  H   UNK N   1      38.289   8.958   0.317  0.00  0.00     0.159 HD
HETATM   67  H   UNK N   1      37.041   8.632   1.424  0.00  0.00     0.159 HD
HETATM   68  O   UNK N   1      38.093  11.405   1.171  0.00  0.00    -0.274 OA
ENDBRANCH  63  64
ENDBRANCH  30  63
BRANCH  32  69
HETATM   69  C   UNK N   1      37.808  13.453   3.995  0.00  0.00     0.021 C 
BRANCH  69  70
HETATM   70  C   UNK N   1      39.251  13.760   3.660  0.00  0.00     0.103 C 
BRANCH  70  71
HETATM   71  C   UNK N   1      39.980  14.220   4.884  0.00  0.00     0.215 C 
HETATM   72  N   UNK N   1      40.962  13.458   5.404  0.00  0.00    -0.370 N 
HETATM   73  H   UNK N   1      40.903  12.477   5.352  0.00  0.00     0.159 HD
HETATM   74  H   UNK N   1      41.738  13.883   5.835  0.00  0.00     0.159 HD
HETATM   75  O   UNK N   1      39.707  15.292   5.402  0.00  0.00    -0.274 OA
ENDBRANCH  70  71
ENDBRANCH  69  70
ENDBRANCH  32  69
BRANCH  33  76
HETATM   76  C   UNK N   1      34.351   9.084   6.868  0.00  0.00     0.180 C 
HETATM   77  N   UNK N   1      33.529   8.688   6.144  0.00  0.00    -0.180 NA
ENDBRANCH  33  76
BRANCH  11  78
HETATM   78  C   UNK N   1      38.764   7.757   4.636  0.00  0.00     0.110 C 
BRANCH  78  79
HETATM   79  C   UNK N   1      38.343   6.741   3.638  0.00  0.00     0.215 C 
HETATM   80  N   UNK N   1      39.072   5.621   3.483  0.00  0.00    -0.370 N 
HETATM   81  H   UNK N   1      39.840   5.292   2.961  0.00  0.00     0.159 HD
HETATM   82  H   UNK N   1      38.733   4.911   4.074  0.00  0.00     0.159 HD
HETATM   83  O   UNK N   1      37.273   6.851   3.068  0.00  0.00    -0.274 OA
ENDBRANCH  78  79
ENDBRANCH  11  78
BRANCH  55  84
HETATM   84  C   UNK N   1      33.576  14.798   5.235  0.00  0.00     0.118 C 
BRANCH  84  85
HETATM   85  C   UNK N   1      32.827  16.119   4.973  0.00  0.00     0.216 C 
HETATM   86  N   UNK N   1      33.463  17.302   5.050  0.00  0.00    -0.370 N 
HETATM   87  H   UNK N   1      33.066  18.167   5.299  0.00  0.00     0.159 HD
HETATM   88  H   UNK N   1      34.423  17.301   4.836  0.00  0.00     0.159 HD
HETATM   89  O   UNK N   1      31.611  16.115   4.814  0.00  0.00    -0.274 OA
ENDBRANCH  84  85
ENDBRANCH  55  84
BRANCH  61  90
HETATM   90  C   UNK N   1      37.235  11.351  12.132  0.00  0.00     0.021 C 
BRANCH  90  91
HETATM   91  C   UNK N   1      36.957  12.167  13.461  0.00  0.00     0.103 C 
BRANCH  91  92
HETATM   92  C   UNK N   1      35.537  12.474  13.973  0.00  0.00     0.215 C 
HETATM   93  N   UNK N   1      34.442  11.918  13.422  0.00  0.00    -0.370 N 
HETATM   94  H   UNK N   1      33.807  11.166  13.413  0.00  0.00     0.159 HD
HETATM   95  H   UNK N   1      34.144  12.538  12.717  0.00  0.00     0.159 HD
HETATM   96  O   UNK N   1      35.382  13.334  14.823  0.00  0.00    -0.274 OA
ENDBRANCH  91  92
ENDBRANCH  90  91
ENDBRANCH  61  90
BRANCH  57  97
HETATM   97  C   UNK N   1      33.387  15.076   8.367  0.00  0.00     0.017 C 
BRANCH  97  98
HETATM   98  C   UNK N   1      32.154  15.788   8.904  0.00  0.00     0.103 C 
BRANCH  98  99
HETATM   99  C   UNK N   1      32.239  17.239   8.589  0.00  0.00     0.215 C 
HETATM  100  N   UNK N   1      31.188  18.038   8.842  0.00  0.00    -0.370 N 
HETATM  101  H   UNK N   1      30.967  18.819   8.284  0.00  0.00     0.159 HD
HETATM  102  H   UNK N   1      30.615  17.834   9.616  0.00  0.00     0.159 HD
HETATM  103  O   UNK N   1      33.253  17.703   8.093  0.00  0.00    -0.274 OA
ENDBRANCH  98  99
ENDBRANCH  97  98
ENDBRANCH  57  97
BRANCH  46 104
HETATM  104  O   UNK N   1      35.251   6.321  14.776  0.00  0.00    -0.388 OA
HETATM  105  H   UNK N   1      35.344   5.360  14.868  0.00  0.00     0.210 HD
ENDBRANCH  46 104
BRANCH  39 106
HETATM  106  C   UNK N   1      39.120   9.415  14.309  0.00  0.00     0.198 C 
BRANCH 106 107
HETATM  107  O   UNK N   1      40.101   8.619  14.910  0.00  0.00    -0.398 OA
HETATM  108  H   UNK N   1      40.102   7.653  14.988  0.00  0.00     0.209 HD
ENDBRANCH 106 107
ENDBRANCH  39 106
TORSDOF 19
ENDMDL
MODEL 9
REMARK VINA RESULT:      -5.4      9.066     15.193
REMARK  19 active torsions:
REMARK  status: ('A' for Active; 'I' for Inactive)
REMARK    1  A    between atoms: C_11  and  C_12 
REMARK    2  A    between atoms: C_12  and  C_13 
REMARK       I    between atoms: C_13  and  N_14 
REMARK    3  A    between atoms: C_34  and  C_36 
REMARK    4  A    between atoms: C_36  and  C_37 
REMARK       I    between atoms: C_37  and  N_38 
REMARK    5  A    between atoms: C_40  and  C_41 
REMARK    6  A    between atoms: C_41  and  C_42 
REMARK    7  A    between atoms: C_42  and  C_43 
REMARK       I    between atoms: C_43  and  N_44 
REMARK    8  A    between atoms: Co_46  and  C_47 
REMARK    9  A    between atoms: C_54  and  C_55 
REMARK   10  A    between atoms: C_55  and  O_56 
REMARK   11  A    between atoms: C_63  and  O_64 
REMARK   12  A    between atoms: C_73  and  C_75 
REMARK   13  A    between atoms: C_75  and  C_76 
REMARK       I    between atoms: C_76  and  N_77 
REMARK   14  A    between atoms: C_79  and  C_80 
REMARK   15  A    between atoms: C_80  and  C_81 
REMARK   16  A    between atoms: C_81  and  C_82 
REMARK       I    between atoms: C_82  and  N_83 
REMARK   17  A    between atoms: C_88  and  C_89 
REMARK   18  A    between atoms: C_89  and  C_90 
REMARK   19  A    between atoms: C_90  and  C_91 
REMARK       I    between atoms: C_91  and  N_92 
ROOT
HETATM    1  C   UNK N   1      35.550   5.919  11.510  0.00  0.00     0.148 C 
HETATM    2  C   UNK N   1      34.185   6.309  12.003  0.00  0.00     0.042 C 
HETATM    3  C   UNK N   1      36.237   7.011  10.707  0.00  0.00     0.154 C 
HETATM    4  N   UNK N   1      37.669   7.177  10.826  0.00  0.00    -0.359 N 
HETATM    5  C   UNK N   1      38.200   7.778  11.908  0.00  0.00     0.217 C 
HETATM    6  O   UNK N   1      38.117   7.245  13.004  0.00  0.00    -0.274 OA
HETATM    7  C   UNK N   1      38.319   9.236  11.886  0.00  0.00     0.104 C 
HETATM    8  C   UNK N   1      37.025   9.614  12.582  0.00  0.00     0.025 C 
HETATM    9  C   UNK N   1      35.936  10.187  11.698  0.00  0.00     0.002 C 
HETATM   10  C   UNK N   1      34.699  10.269  12.572  0.00  0.00     0.022 C 
HETATM   11  C   UNK N   1      36.643  11.547  11.426  0.00  0.00     0.030 C 
HETATM   12  C   UNK N   1      36.636  11.674   9.935  0.00  0.00     0.116 C 
HETATM   13  N   UNK N   1      36.567  10.297   9.392  0.00  0.00    -0.206 NA
HETATM   14  C   UNK N   1      35.689   9.630  10.213  0.00  0.00     0.021 C 
HETATM   15  C   UNK N   1      34.560   8.964   9.670  0.00  0.00    -0.018 C 
HETATM   16  C   UNK N   1      33.449   8.563  10.562  0.00  0.00     0.052 C 
HETATM   17  C   UNK N   1      34.256   8.761   8.161  0.00  0.00     0.047 C 
HETATM   18  N   UNK N   1      34.864   9.413   7.284  0.00  0.00    -0.256 N 
HETATM   19  C   UNK N   1      34.383   9.082   5.974  0.00  0.00     0.042 C 
HETATM   20  C   UNK N   1      34.871   9.467   4.782  0.00  0.00     0.028 C 
HETATM   21  C   UNK N   1      35.822  10.551   4.575  0.00  0.00     0.138 C 
HETATM   22  N   UNK N   1      36.095  11.179   5.653  0.00  0.00    -0.283 N 
HETATM   23  C   UNK N   1      35.262  12.393   5.467  0.00  0.00     0.046 C 
HETATM   24  C   UNK N   1      34.123  12.459   6.190  0.00  0.00    -0.012 C 
HETATM   25  C   UNK N   1      32.779  12.885   5.732  0.00  0.00     0.052 C 
HETATM   26  C   UNK N   1      34.305  12.542   7.528  0.00  0.00     0.042 C 
HETATM   27  N   UNK N   1      35.249  11.900   8.117  0.00  0.00    -0.280 N 
HETATM   28  C   UNK N   1      35.319  12.348   9.454  0.00  0.00     0.076 C 
HETATM   29  C   UNK N   1      34.071  11.796  10.234  0.00  0.00     0.043 C 
HETATM   30  C   UNK N   1      35.006  13.882   9.307  0.00  0.00     0.002 C 
HETATM   31  C   UNK N   1      36.098  14.579   8.489  0.00  0.00     0.019 C 
HETATM   32  C   UNK N   1      33.769  13.661   8.402  0.00  0.00     0.049 C 
HETATM   33 Co   UNK N   1      36.386  10.383   7.530  0.00  0.00     0.000 Co
HETATM   34  N   UNK N   1      37.425   8.411   7.461  0.00  0.00    -0.242 N 
HETATM   35  C   UNK N   1      36.685   7.223   7.243  0.00  0.00     0.213 A 
HETATM   36  N   UNK N   1      37.370   6.038   7.535  0.00  0.00    -0.309 N 
HETATM   37  C   UNK N   1      36.956   4.545   7.376  0.00  0.00     0.261 C 
HETATM   38  O   UNK N   1      35.589   4.399   7.597  0.00  0.00    -0.353 OA
HETATM   39  C   UNK N   1      35.425   3.563   8.725  0.00  0.00     0.180 C 
HETATM   40  C   UNK N   1      36.763   3.314   9.480  0.00  0.00     0.198 C 
HETATM   41  O   UNK N   1      37.323   4.425  10.129  0.00  0.00    -0.279 OA
HETATM   42  P   UNK N   1      37.444   4.297  11.876  0.00  0.00     0.409 P 
HETATM   43  O   UNK N   1      37.384   2.748  12.646  0.00  0.00    -0.624 OA
HETATM   44  O   UNK N   1      38.839   4.887  12.219  0.00  0.00    -0.624 OA
HETATM   45  O   UNK N   1      36.306   5.419  12.576  0.00  0.00    -0.283 OA
HETATM   46  C   UNK N   1      37.518   3.305   8.204  0.00  0.00     0.199 C 
HETATM   47  C   UNK N   1      38.543   6.436   7.960  0.00  0.00     0.067 A 
HETATM   48  C   UNK N   1      39.523   5.589   8.414  0.00  0.00     0.039 A 
HETATM   49  C   UNK N   1      40.669   6.092   8.954  0.00  0.00    -0.054 A 
HETATM   50  C   UNK N   1      41.685   5.113   9.468  0.00  0.00     0.049 C 
HETATM   51  C   UNK N   1      40.823   7.501   9.027  0.00  0.00    -0.054 A 
HETATM   52  C   UNK N   1      42.069   8.038   9.642  0.00  0.00     0.049 C 
HETATM   53  C   UNK N   1      39.793   8.400   8.532  0.00  0.00     0.041 A 
HETATM   54  C   UNK N   1      38.611   7.852   7.956  0.00  0.00     0.085 A 
HETATM   55  C   UNK N   1      35.301  12.903   4.096  0.00  0.00     0.015 C 
HETATM   56  C   UNK N   1      36.679  13.533   4.038  0.00  0.00     0.023 C 
HETATM   57  C   UNK N   1      35.409  11.530   3.396  0.00  0.00     0.029 C 
HETATM   58  C   UNK N   1      33.056   8.461   6.079  0.00  0.00     0.006 C 
HETATM   59  C   UNK N   1      32.547   7.727   4.829  0.00  0.00     0.022 C 
HETATM   60  C   UNK N   1      32.067   9.599   6.244  0.00  0.00     0.022 C 
HETATM   61  C   UNK N   1      33.249   7.764   7.462  0.00  0.00     0.052 C 
HETATM   62  H   UNK N   1      38.260   6.849  10.110  0.00  0.00     0.162 HD
ENDROOT
BRANCH  30  63
HETATM   63  C   UNK N   1      34.804  14.785  10.549  0.00  0.00     0.115 C 
BRANCH  63  64
HETATM   64  C   UNK N   1      35.321  16.196  10.584  0.00  0.00     0.216 C 
HETATM   65  N   UNK N   1      34.562  17.188  10.082  0.00  0.00    -0.370 N 
HETATM   66  H   UNK N   1      34.885  17.752   9.343  0.00  0.00     0.159 HD
HETATM   67  H   UNK N   1      33.669  17.351  10.461  0.00  0.00     0.159 HD
HETATM   68  O   UNK N   1      36.462  16.437  10.937  0.00  0.00    -0.274 OA
ENDBRANCH  63  64
ENDBRANCH  30  63
BRANCH  32  69
HETATM   69  C   UNK N   1      32.762  14.721   7.930  0.00  0.00     0.021 C 
BRANCH  69  70
HETATM   70  C   UNK N   1      31.807  15.205   8.999  0.00  0.00     0.103 C 
BRANCH  70  71
HETATM   71  C   UNK N   1      31.478  16.650   8.784  0.00  0.00     0.215 C 
HETATM   72  N   UNK N   1      30.438  17.203   9.437  0.00  0.00    -0.370 N 
HETATM   73  H   UNK N   1      29.639  16.665   9.637  0.00  0.00     0.159 HD
HETATM   74  H   UNK N   1      30.479  18.147   9.716  0.00  0.00     0.159 HD
HETATM   75  O   UNK N   1      32.158  17.336   8.037  0.00  0.00    -0.274 OA
ENDBRANCH  70  71
ENDBRANCH  69  70
ENDBRANCH  32  69
BRANCH  33  76
HETATM   76  C   UNK N   1      38.065  11.403   7.533  0.00  0.00     0.180 C 
HETATM   77  N   UNK N   1      39.091  11.904   7.297  0.00  0.00    -0.180 NA
ENDBRANCH  33  76
BRANCH  11  78
HETATM   78  C   UNK N   1      36.346  12.891  12.121  0.00  0.00     0.110 C 
BRANCH  78  79
HETATM   79  C   UNK N   1      36.412  12.983  13.602  0.00  0.00     0.215 C 
HETATM   80  N   UNK N   1      37.562  12.687  14.235  0.00  0.00    -0.370 N 
HETATM   81  H   UNK N   1      38.028  11.909  14.621  0.00  0.00     0.159 HD
HETATM   82  H   UNK N   1      38.108  13.499  14.345  0.00  0.00     0.159 HD
HETATM   83  O   UNK N   1      35.482  13.458  14.228  0.00  0.00    -0.274 OA
ENDBRANCH  78  79
ENDBRANCH  11  78
BRANCH  55  84
HETATM   84  C   UNK N   1      34.432  14.187   3.665  0.00  0.00     0.118 C 
BRANCH  84  85
HETATM   85  C   UNK N   1      34.204  14.950   2.345  0.00  0.00     0.216 C 
HETATM   86  N   UNK N   1      34.937  14.675   1.252  0.00  0.00    -0.370 N 
HETATM   87  H   UNK N   1      35.175  15.301   0.532  0.00  0.00     0.159 HD
HETATM   88  H   UNK N   1      35.270  13.753   1.165  0.00  0.00     0.159 HD
HETATM   89  O   UNK N   1      33.438  15.906   2.313  0.00  0.00    -0.274 OA
ENDBRANCH  84  85
ENDBRANCH  55  84
BRANCH  61  90
HETATM   90  C   UNK N   1      34.031   6.426   7.193  0.00  0.00     0.021 C 
BRANCH  90  91
HETATM   91  C   UNK N   1      33.557   5.373   6.109  0.00  0.00     0.103 C 
BRANCH  91  92
HETATM   92  C   UNK N   1      32.351   4.437   6.321  0.00  0.00     0.215 C 
HETATM   93  N   UNK N   1      31.159   4.892   6.749  0.00  0.00    -0.370 N 
HETATM   94  H   UNK N   1      30.278   5.263   6.513  0.00  0.00     0.159 HD
HETATM   95  H   UNK N   1      31.176   4.825   7.732  0.00  0.00     0.159 HD
HETATM   96  O   UNK N   1      32.504   3.232   6.215  0.00  0.00    -0.274 OA
ENDBRANCH  91  92
ENDBRANCH  90  91
ENDBRANCH  61  90
BRANCH  57  97
HETATM   97  C   UNK N   1      34.085  11.204   2.717  0.00  0.00     0.017 C 
BRANCH  97  98
HETATM   98  C   UNK N   1      34.292  11.088   1.214  0.00  0.00     0.103 C 
BRANCH  98  99
HETATM   99  C   UNK N   1      33.169  11.756   0.504  0.00  0.00     0.215 C 
HETATM  100  N   UNK N   1      31.910  11.324   0.692  0.00  0.00    -0.370 N 
HETATM  101  H   UNK N   1      31.226  11.353  -0.016  0.00  0.00     0.159 HD
HETATM  102  H   UNK N   1      31.661  10.963   1.574  0.00  0.00     0.159 HD
HETATM  103  O   UNK N   1      33.387  12.687  -0.255  0.00  0.00    -0.274 OA
ENDBRANCH  98  99
ENDBRANCH  97  98
ENDBRANCH  57  97
BRANCH  46 104
HETATM  104  O   UNK N   1      38.880   3.059   8.362  0.00  0.00    -0.388 OA
HETATM  105  H   UNK N   1      39.750   3.464   8.219  0.00  0.00     0.210 HD
ENDBRANCH  46 104
BRANCH  39 106
HETATM  106  C   UNK N   1      34.060   3.740   9.389  0.00  0.00     0.198 C 
BRANCH 106 107
HETATM  107  O   UNK N   1      33.975   2.930  10.527  0.00  0.00    -0.398 OA
HETATM  108  H   UNK N   1      33.309   2.250  10.711  0.00  0.00     0.209 HD
ENDBRANCH 106 107
ENDBRANCH  39 106
TORSDOF 19
ENDMDL
