MODEL 1
REMARK VINA RESULT:      -7.5      0.000      0.000
REMARK  7 active torsions:
REMARK  status: ('A' for Active; 'I' for Inactive)
REMARK    1  A    between atoms: C_5  and  C_3 
REMARK    2  A    between atoms: C_9  and  C_3 
REMARK    3  A    between atoms: N_27  and  C_9 
REMARK    4  A    between atoms: C_15  and  C_14 
REMARK    5  A    between atoms: N_28  and  C_14 
REMARK    6  A    between atoms: O_29  and  C_15 
REMARK    7  A    between atoms: C_23  and  C_17 
ROOT
HETATM    1  C   UNK N   1      34.844   7.053  11.149  0.00  0.00     0.001 A 
HETATM    2  C   UNK N   1      35.290   5.998  11.934  0.00  0.00     0.001 A 
HETATM    3  C   UNK N   1      34.812   8.343  11.677  0.00  0.00     0.013 A 
HETATM    4  C   UNK N   1      34.922  11.032  12.598  0.00  0.00    -0.012 C 
HETATM    5  C   UNK N   1      35.705   6.238  13.240  0.00  0.00     0.020 A 
HETATM    6  C   UNK N   1      35.787  10.930  17.725  0.00  0.00     0.017 A 
HETATM    7  C   UNK N   1      36.058   9.659  17.239  0.00  0.00     0.020 A 
HETATM    8  C   UNK N   1      35.136  11.611  15.509  0.00  0.00     0.029 A 
HETATM    9  C   UNK N   1      35.319  11.917  16.864  0.00  0.00     0.048 A 
HETATM   10  C   UNK N   1      35.176  10.035  13.511  0.00  0.00    -0.017 C 
HETATM   11  C   UNK N   1      35.221   8.616  13.002  0.00  0.00    -0.008 A 
HETATM   12  C   UNK N   1      35.411  10.329  14.982  0.00  0.00    -0.007 A 
HETATM   13  C   UNK N   1      35.674   7.529  13.784  0.00  0.00     0.016 A 
HETATM   14  C   UNK N   1      35.871   9.342  15.889  0.00  0.00     0.016 A 
HETATM   15  S   UNK N   1      36.314   7.674  15.441  0.00  0.00    -0.089 SA
ENDROOT
BRANCH   4  16
HETATM   16  C   UNK N   1      34.957  12.495  12.902  0.00  0.00     0.058 C 
BRANCH  16  17
HETATM   17  C   UNK N   1      35.976  13.274  12.085  0.00  0.00     0.276 C 
BRANCH  17  18
HETATM   18  N   UNK N   1      35.278  14.401  11.487  0.00  0.00     0.092 N 
HETATM   19  C   UNK N   1      34.779  13.983  10.185  0.00  0.00     0.302 C 
HETATM   20  C   UNK N   1      33.929  15.105   9.618  0.00  0.00     0.302 C 
HETATM   21  N   UNK N   1      34.754  16.297   9.415  0.00  0.00     0.093 N 
HETATM   22  C   UNK N   1      35.375  16.696  10.685  0.00  0.00     0.302 C 
HETATM   23  C   UNK N   1      36.180  15.532  11.285  0.00  0.00     0.302 C 
BRANCH  21  24
HETATM   24  C   UNK N   1      33.858  17.373   9.007  0.00  0.00     0.298 C 
BRANCH  24  25
HETATM   25  C   UNK N   1      34.497  18.214   7.911  0.00  0.00     0.194 C 
BRANCH  25  26
HETATM   26  O   UNK N   1      35.250  19.238   8.485  0.00  0.00    -0.399 OA
HETATM   27  H   UNK N   1      35.785  19.917   8.046  0.00  0.00     0.209 HD
ENDBRANCH  25  26
ENDBRANCH  24  25
ENDBRANCH  21  24
ENDBRANCH  17  18
ENDBRANCH  16  17
ENDBRANCH   4  16
BRANCH   9  28
HETATM   28  C   UNK N   1      35.013  13.293  17.385  0.00  0.00     0.417 C 
HETATM   29  F   UNK N   1      34.875  13.247  18.761  0.00  0.00    -0.166 F 
HETATM   30  F   UNK N   1      36.040  14.154  17.049  0.00  0.00    -0.166 F 
HETATM   31  F   UNK N   1      33.838  13.785  16.841  0.00  0.00    -0.166 F 
ENDBRANCH   9  28
TORSDOF 7
ENDMDL
MODEL 2
REMARK VINA RESULT:      -7.4      2.790      5.020
REMARK  7 active torsions:
REMARK  status: ('A' for Active; 'I' for Inactive)
REMARK    1  A    between atoms: C_5  and  C_3 
REMARK    2  A    between atoms: C_9  and  C_3 
REMARK    3  A    between atoms: N_27  and  C_9 
REMARK    4  A    between atoms: C_15  and  C_14 
REMARK    5  A    between atoms: N_28  and  C_14 
REMARK    6  A    between atoms: O_29  and  C_15 
REMARK    7  A    between atoms: C_23  and  C_17 
ROOT
HETATM    1  C   UNK N   1      35.261  13.770  18.670  0.00  0.00     0.001 A 
HETATM    2  C   UNK N   1      35.228  12.774  19.638  0.00  0.00     0.001 A 
HETATM    3  C   UNK N   1      35.290  13.423  17.321  0.00  0.00     0.013 A 
HETATM    4  C   UNK N   1      35.127  12.809  14.548  0.00  0.00    -0.012 C 
HETATM    5  C   UNK N   1      35.218  11.438  19.251  0.00  0.00     0.020 A 
HETATM    6  C   UNK N   1      35.944   7.704  13.991  0.00  0.00     0.017 A 
HETATM    7  C   UNK N   1      35.702   7.935  15.337  0.00  0.00     0.020 A 
HETATM    8  C   UNK N   1      35.768  10.070  13.580  0.00  0.00     0.029 A 
HETATM    9  C   UNK N   1      35.983   8.771  13.100  0.00  0.00     0.048 A 
HETATM   10  C   UNK N   1      35.306  11.762  15.423  0.00  0.00    -0.017 C 
HETATM   11  C   UNK N   1      35.288  12.074  16.898  0.00  0.00    -0.008 A 
HETATM   12  C   UNK N   1      35.510  10.336  14.943  0.00  0.00    -0.007 A 
HETATM   13  C   UNK N   1      35.251  11.075  17.898  0.00  0.00     0.016 A 
HETATM   14  C   UNK N   1      35.493   9.229  15.827  0.00  0.00     0.016 A 
HETATM   15  S   UNK N   1      35.153   9.326  17.575  0.00  0.00    -0.089 SA
ENDROOT
BRANCH   4  16
HETATM   16  C   UNK N   1      34.998  12.668  13.065  0.00  0.00     0.058 C 
BRANCH  16  17
HETATM   17  C   UNK N   1      35.994  13.503  12.275  0.00  0.00     0.276 C 
BRANCH  17  18
HETATM   18  N   UNK N   1      35.242  14.559  11.615  0.00  0.00     0.092 N 
HETATM   19  C   UNK N   1      34.613  13.992  10.431  0.00  0.00     0.302 C 
HETATM   20  C   UNK N   1      33.713  15.048   9.817  0.00  0.00     0.302 C 
HETATM   21  N   UNK N   1      34.517  16.194   9.387  0.00  0.00     0.093 N 
HETATM   22  C   UNK N   1      35.265  16.736  10.529  0.00  0.00     0.302 C 
HETATM   23  C   UNK N   1      36.122  15.642  11.185  0.00  0.00     0.302 C 
BRANCH  21  24
HETATM   24  C   UNK N   1      33.588  17.225   8.941  0.00  0.00     0.298 C 
BRANCH  24  25
HETATM   25  C   UNK N   1      34.312  18.270   8.103  0.00  0.00     0.194 C 
BRANCH  25  26
HETATM   26  O   UNK N   1      34.632  17.732   6.858  0.00  0.00    -0.399 OA
HETATM   27  H   UNK N   1      34.420  16.855   6.502  0.00  0.00     0.209 HD
ENDBRANCH  25  26
ENDBRANCH  24  25
ENDBRANCH  21  24
ENDBRANCH  17  18
ENDBRANCH  16  17
ENDBRANCH   4  16
BRANCH   9  28
HETATM   28  C   UNK N   1      36.256   8.530  11.642  0.00  0.00     0.417 C 
HETATM   29  F   UNK N   1      35.525   7.438  11.208  0.00  0.00    -0.166 F 
HETATM   30  F   UNK N   1      35.898   9.648  10.913  0.00  0.00    -0.166 F 
HETATM   31  F   UNK N   1      37.599   8.278  11.418  0.00  0.00    -0.166 F 
ENDBRANCH   9  28
TORSDOF 7
ENDMDL
MODEL 3
REMARK VINA RESULT:      -7.4     12.657     16.618
REMARK  7 active torsions:
REMARK  status: ('A' for Active; 'I' for Inactive)
REMARK    1  A    between atoms: C_5  and  C_3 
REMARK    2  A    between atoms: C_9  and  C_3 
REMARK    3  A    between atoms: N_27  and  C_9 
REMARK    4  A    between atoms: C_15  and  C_14 
REMARK    5  A    between atoms: N_28  and  C_14 
REMARK    6  A    between atoms: O_29  and  C_15 
REMARK    7  A    between atoms: C_23  and  C_17 
ROOT
HETATM    1  C   UNK N   1      19.781  19.496   2.486  0.00  0.00     0.001 A 
HETATM    2  C   UNK N   1      20.548  20.537   1.978  0.00  0.00     0.001 A 
HETATM    3  C   UNK N   1      20.371  18.543   3.314  0.00  0.00     0.013 A 
HETATM    4  C   UNK N   1      21.439  16.685   5.184  0.00  0.00    -0.012 C 
HETATM    5  C   UNK N   1      21.898  20.621   2.304  0.00  0.00     0.020 A 
HETATM    6  C   UNK N   1      26.611  17.219   5.193  0.00  0.00     0.017 A 
HETATM    7  C   UNK N   1      26.087  18.326   4.542  0.00  0.00     0.020 A 
HETATM    8  C   UNK N   1      24.383  16.341   5.441  0.00  0.00     0.029 A 
HETATM    9  C   UNK N   1      25.763  16.214   5.646  0.00  0.00     0.048 A 
HETATM   10  C   UNK N   1      22.318  17.546   4.569  0.00  0.00    -0.017 C 
HETATM   11  C   UNK N   1      21.741  18.599   3.657  0.00  0.00    -0.008 A 
HETATM   12  C   UNK N   1      23.818  17.460   4.789  0.00  0.00    -0.007 A 
HETATM   13  C   UNK N   1      22.504  19.668   3.132  0.00  0.00     0.016 A 
HETATM   14  C   UNK N   1      24.711  18.459   4.327  0.00  0.00     0.016 A 
HETATM   15  S   UNK N   1      24.218  19.968   3.514  0.00  0.00    -0.089 SA
ENDROOT
BRANCH   4  16
HETATM   16  C   UNK N   1      21.821  15.661   6.205  0.00  0.00     0.058 C 
BRANCH  16  17
HETATM   17  C   UNK N   1      20.733  15.368   7.226  0.00  0.00     0.276 C 
BRANCH  17  18
HETATM   18  N   UNK N   1      21.173  14.221   8.006  0.00  0.00     0.092 N 
HETATM   19  C   UNK N   1      20.925  14.510   9.411  0.00  0.00     0.302 C 
HETATM   20  C   UNK N   1      21.248  13.266  10.218  0.00  0.00     0.302 C 
HETATM   21  N   UNK N   1      22.669  12.939  10.076  0.00  0.00     0.093 N 
HETATM   22  C   UNK N   1      22.997  12.749   8.657  0.00  0.00     0.302 C 
HETATM   23  C   UNK N   1      22.605  13.989   7.837  0.00  0.00     0.302 C 
BRANCH  21  24
HETATM   24  C   UNK N   1      22.884  11.665  10.751  0.00  0.00     0.298 C 
BRANCH  24  25
HETATM   25  C   UNK N   1      23.682  11.868  12.032  0.00  0.00     0.194 C 
BRANCH  25  26
HETATM   26  O   UNK N   1      24.969  12.303  11.718  0.00  0.00    -0.399 OA
HETATM   27  H   UNK N   1      25.818  11.875  11.907  0.00  0.00     0.209 HD
ENDBRANCH  25  26
ENDBRANCH  24  25
ENDBRANCH  21  24
ENDBRANCH  17  18
ENDBRANCH  16  17
ENDBRANCH   4  16
BRANCH   9  28
HETATM   28  C   UNK N   1      26.325  15.007   6.341  0.00  0.00     0.417 C 
HETATM   29  F   UNK N   1      25.647  13.874   5.926  0.00  0.00    -0.166 F 
HETATM   30  F   UNK N   1      27.668  14.881   6.038  0.00  0.00    -0.166 F 
HETATM   31  F   UNK N   1      26.199  15.116   7.716  0.00  0.00    -0.166 F 
ENDBRANCH   9  28
TORSDOF 7
ENDMDL
MODEL 4
REMARK VINA RESULT:      -7.4     12.255     16.410
REMARK  7 active torsions:
REMARK  status: ('A' for Active; 'I' for Inactive)
REMARK    1  A    between atoms: C_5  and  C_3 
REMARK    2  A    between atoms: C_9  and  C_3 
REMARK    3  A    between atoms: N_27  and  C_9 
REMARK    4  A    between atoms: C_15  and  C_14 
REMARK    5  A    between atoms: N_28  and  C_14 
REMARK    6  A    between atoms: O_29  and  C_15 
REMARK    7  A    between atoms: C_23  and  C_17 
ROOT
HETATM    1  C   UNK N   1      19.906  18.310   3.092  0.00  0.00     0.001 A 
HETATM    2  C   UNK N   1      19.990  19.556   2.482  0.00  0.00     0.001 A 
HETATM    3  C   UNK N   1      21.036  17.755   3.689  0.00  0.00     0.013 A 
HETATM    4  C   UNK N   1      23.231  16.649   5.120  0.00  0.00    -0.012 C 
HETATM    5  C   UNK N   1      21.201  20.240   2.478  0.00  0.00     0.020 A 
HETATM    6  C   UNK N   1      27.475  19.401   3.914  0.00  0.00     0.017 A 
HETATM    7  C   UNK N   1      26.378  20.131   3.482  0.00  0.00     0.020 A 
HETATM    8  C   UNK N   1      25.992  17.647   4.635  0.00  0.00     0.029 A 
HETATM    9  C   UNK N   1      27.292  18.149   4.492  0.00  0.00     0.048 A 
HETATM   10  C   UNK N   1      23.464  17.777   4.369  0.00  0.00    -0.017 C 
HETATM   11  C   UNK N   1      22.281  18.424   3.693  0.00  0.00    -0.008 A 
HETATM   12  C   UNK N   1      24.854  18.370   4.214  0.00  0.00    -0.007 A 
HETATM   13  C   UNK N   1      22.345  19.692   3.070  0.00  0.00     0.016 A 
HETATM   14  C   UNK N   1      25.076  19.636   3.615  0.00  0.00     0.016 A 
HETATM   15  S   UNK N   1      23.791  20.732   3.046  0.00  0.00    -0.089 SA
ENDROOT
BRANCH   4  16
HETATM   16  C   UNK N   1      24.260  15.949   5.950  0.00  0.00     0.058 C 
BRANCH  16  17
HETATM   17  C   UNK N   1      24.047  14.448   6.065  0.00  0.00     0.276 C 
BRANCH  17  18
HETATM   18  N   UNK N   1      23.669  14.172   7.443  0.00  0.00     0.092 N 
HETATM   19  C   UNK N   1      24.542  13.122   7.947  0.00  0.00     0.302 C 
HETATM   20  C   UNK N   1      24.250  12.928   9.424  0.00  0.00     0.302 C 
HETATM   21  N   UNK N   1      22.867  12.479   9.601  0.00  0.00     0.093 N 
HETATM   22  C   UNK N   1      21.946  13.455   9.003  0.00  0.00     0.302 C 
HETATM   23  C   UNK N   1      22.292  13.694   7.525  0.00  0.00     0.302 C 
BRANCH  21  24
HETATM   24  C   UNK N   1      22.607  12.449  11.035  0.00  0.00     0.298 C 
BRANCH  24  25
HETATM   25  C   UNK N   1      23.806  11.883  11.783  0.00  0.00     0.194 C 
BRANCH  25  26
HETATM   26  O   UNK N   1      23.863  12.436  13.062  0.00  0.00    -0.399 OA
HETATM   27  H   UNK N   1      23.430  12.133  13.874  0.00  0.00     0.209 HD
ENDBRANCH  25  26
ENDBRANCH  24  25
ENDBRANCH  21  24
ENDBRANCH  17  18
ENDBRANCH  16  17
ENDBRANCH   4  16
BRANCH   9  28
HETATM   28  C   UNK N   1      28.477  17.347   4.951  0.00  0.00     0.417 C 
HETATM   29  F   UNK N   1      29.574  18.178   5.091  0.00  0.00    -0.166 F 
HETATM   30  F   UNK N   1      28.189  16.751   6.164  0.00  0.00    -0.166 F 
HETATM   31  F   UNK N   1      28.792  16.351   4.042  0.00  0.00    -0.166 F 
ENDBRANCH   9  28
TORSDOF 7
ENDMDL
MODEL 5
REMARK VINA RESULT:      -7.4      6.093     10.262
REMARK  7 active torsions:
REMARK  status: ('A' for Active; 'I' for Inactive)
REMARK    1  A    between atoms: C_5  and  C_3 
REMARK    2  A    between atoms: C_9  and  C_3 
REMARK    3  A    between atoms: N_27  and  C_9 
REMARK    4  A    between atoms: C_15  and  C_14 
REMARK    5  A    between atoms: N_28  and  C_14 
REMARK    6  A    between atoms: O_29  and  C_15 
REMARK    7  A    between atoms: C_23  and  C_17 
ROOT
HETATM    1  C   UNK N   1      34.157  14.519   2.918  0.00  0.00     0.001 A 
HETATM    2  C   UNK N   1      33.224  13.697   2.298  0.00  0.00     0.001 A 
HETATM    3  C   UNK N   1      33.770  15.310   3.999  0.00  0.00     0.013 A 
HETATM    4  C   UNK N   1      33.124  16.786   6.343  0.00  0.00    -0.012 C 
HETATM    5  C   UNK N   1      31.914  13.668   2.764  0.00  0.00     0.020 A 
HETATM    6  C   UNK N   1      27.952  16.751   6.879  0.00  0.00     0.017 A 
HETATM    7  C   UNK N   1      28.273  15.776   5.945  0.00  0.00     0.020 A 
HETATM    8  C   UNK N   1      30.283  17.336   7.031  0.00  0.00     0.029 A 
HETATM    9  C   UNK N   1      28.955  17.543   7.429  0.00  0.00     0.048 A 
HETATM   10  C   UNK N   1      32.092  16.174   5.671  0.00  0.00    -0.017 C 
HETATM   11  C   UNK N   1      32.445  15.306   4.489  0.00  0.00    -0.008 A 
HETATM   12  C   UNK N   1      30.642  16.347   6.089  0.00  0.00    -0.007 A 
HETATM   13  C   UNK N   1      31.512  14.461   3.846  0.00  0.00     0.016 A 
HETATM   14  C   UNK N   1      29.595  15.567   5.537  0.00  0.00     0.016 A 
HETATM   15  S   UNK N   1      29.821  14.244   4.364  0.00  0.00    -0.089 SA
ENDROOT
BRANCH   4  16
HETATM   16  C   UNK N   1      32.971  17.582   7.599  0.00  0.00     0.058 C 
BRANCH  16  17
HETATM   17  C   UNK N   1      34.282  17.877   8.311  0.00  0.00     0.276 C 
BRANCH  17  18
HETATM   18  N   UNK N   1      34.640  16.684   9.064  0.00  0.00     0.092 N 
HETATM   19  C   UNK N   1      33.413  15.978   9.400  0.00  0.00     0.302 C 
HETATM   20  C   UNK N   1      33.784  14.663  10.059  0.00  0.00     0.302 C 
HETATM   21  N   UNK N   1      34.504  14.921  11.308  0.00  0.00     0.093 N 
HETATM   22  C   UNK N   1      35.698  15.733  11.037  0.00  0.00     0.302 C 
HETATM   23  C   UNK N   1      35.318  17.033  10.309  0.00  0.00     0.302 C 
BRANCH  21  24
HETATM   24  C   UNK N   1      34.955  13.632  11.817  0.00  0.00     0.298 C 
BRANCH  24  25
HETATM   25  C   UNK N   1      35.693  13.807  13.137  0.00  0.00     0.194 C 
BRANCH  25  26
HETATM   26  O   UNK N   1      34.854  13.456  14.193  0.00  0.00    -0.399 OA
HETATM   27  H   UNK N   1      33.911  13.650  14.310  0.00  0.00     0.209 HD
ENDBRANCH  25  26
ENDBRANCH  24  25
ENDBRANCH  21  24
ENDBRANCH  17  18
ENDBRANCH  16  17
ENDBRANCH   4  16
BRANCH   9  28
HETATM   28  C   UNK N   1      28.613  18.607   8.432  0.00  0.00     0.417 C 
HETATM   29  F   UNK N   1      29.775  19.113   8.986  0.00  0.00    -0.166 F 
HETATM   30  F   UNK N   1      27.916  19.624   7.808  0.00  0.00    -0.166 F 
HETATM   31  F   UNK N   1      27.823  18.101   9.451  0.00  0.00    -0.166 F 
ENDBRANCH   9  28
TORSDOF 7
ENDMDL
MODEL 6
REMARK VINA RESULT:      -7.3     20.378     22.881
REMARK  7 active torsions:
REMARK  status: ('A' for Active; 'I' for Inactive)
REMARK    1  A    between atoms: C_5  and  C_3 
REMARK    2  A    between atoms: C_9  and  C_3 
REMARK    3  A    between atoms: N_27  and  C_9 
REMARK    4  A    between atoms: C_15  and  C_14 
REMARK    5  A    between atoms: N_28  and  C_14 
REMARK    6  A    between atoms: O_29  and  C_15 
REMARK    7  A    between atoms: C_23  and  C_17 
ROOT
HETATM    1  C   UNK N   1      29.703  18.985 -10.169  0.00  0.00     0.001 A 
HETATM    2  C   UNK N   1      30.924  18.340 -10.017  0.00  0.00     0.001 A 
HETATM    3  C   UNK N   1      29.282  19.904  -9.209  0.00  0.00     0.013 A 
HETATM    4  C   UNK N   1      28.448  21.951  -7.419  0.00  0.00    -0.012 C 
HETATM    5  C   UNK N   1      31.718  18.622  -8.910  0.00  0.00     0.020 A 
HETATM    6  C   UNK N   1      31.534  21.773  -3.238  0.00  0.00     0.017 A 
HETATM    7  C   UNK N   1      32.139  21.010  -4.226  0.00  0.00     0.020 A 
HETATM    8  C   UNK N   1      29.680  22.175  -4.720  0.00  0.00     0.029 A 
HETATM    9  C   UNK N   1      30.295  22.360  -3.475  0.00  0.00     0.048 A 
HETATM   10  C   UNK N   1      29.560  21.219  -7.075  0.00  0.00    -0.017 C 
HETATM   11  C   UNK N   1      30.064  20.204  -8.071  0.00  0.00    -0.008 A 
HETATM   12  C   UNK N   1      30.275  21.411  -5.749  0.00  0.00    -0.007 A 
HETATM   13  C   UNK N   1      31.305  19.540  -7.936  0.00  0.00     0.016 A 
HETATM   14  C   UNK N   1      31.529  20.814  -5.470  0.00  0.00     0.016 A 
HETATM   15  S   UNK N   1      32.475  19.843  -6.627  0.00  0.00    -0.089 SA
ENDROOT
BRANCH   4  16
HETATM   16  C   UNK N   1      27.883  23.075  -6.610  0.00  0.00     0.058 C 
BRANCH  16  17
HETATM   17  C   UNK N   1      26.369  23.193  -6.685  0.00  0.00     0.276 C 
BRANCH  17  18
HETATM   18  N   UNK N   1      25.976  24.263  -5.780  0.00  0.00     0.092 N 
HETATM   19  C   UNK N   1      25.743  25.461  -6.574  0.00  0.00     0.302 C 
HETATM   20  C   UNK N   1      25.196  26.540  -5.659  0.00  0.00     0.302 C 
HETATM   21  N   UNK N   1      26.190  26.872  -4.636  0.00  0.00     0.093 N 
HETATM   22  C   UNK N   1      26.546  25.666  -3.876  0.00  0.00     0.302 C 
HETATM   23  C   UNK N   1      27.036  24.555  -4.819  0.00  0.00     0.302 C 
BRANCH  21  24
HETATM   24  C   UNK N   1      25.556  27.803  -3.710  0.00  0.00     0.298 C 
BRANCH  24  25
HETATM   25  C   UNK N   1      26.336  29.109  -3.648  0.00  0.00     0.194 C 
BRANCH  25  26
HETATM   26  O   UNK N   1      27.023  29.187  -2.438  0.00  0.00    -0.399 OA
HETATM   27  H   UNK N   1      26.666  29.313  -1.544  0.00  0.00     0.209 HD
ENDBRANCH  25  26
ENDBRANCH  24  25
ENDBRANCH  21  24
ENDBRANCH  17  18
ENDBRANCH  16  17
ENDBRANCH   4  16
BRANCH   9  28
HETATM   28  C   UNK N   1      29.629  23.177  -2.406  0.00  0.00     0.417 C 
HETATM   29  F   UNK N   1      30.237  22.933  -1.187  0.00  0.00    -0.166 F 
HETATM   30  F   UNK N   1      29.735  24.520  -2.716  0.00  0.00    -0.166 F 
HETATM   31  F   UNK N   1      28.284  22.862  -2.298  0.00  0.00    -0.166 F 
ENDBRANCH   9  28
TORSDOF 7
ENDMDL
MODEL 7
REMARK VINA RESULT:      -7.3      2.385      3.940
REMARK  7 active torsions:
REMARK  status: ('A' for Active; 'I' for Inactive)
REMARK    1  A    between atoms: C_5  and  C_3 
REMARK    2  A    between atoms: C_9  and  C_3 
REMARK    3  A    between atoms: N_27  and  C_9 
REMARK    4  A    between atoms: C_15  and  C_14 
REMARK    5  A    between atoms: N_28  and  C_14 
REMARK    6  A    between atoms: O_29  and  C_15 
REMARK    7  A    between atoms: C_23  and  C_17 
ROOT
HETATM    1  C   UNK N   1      35.159   4.993  17.351  0.00  0.00     0.001 A 
HETATM    2  C   UNK N   1      35.196   4.785  18.724  0.00  0.00     0.001 A 
HETATM    3  C   UNK N   1      35.266   6.287  16.845  0.00  0.00     0.013 A 
HETATM    4  C   UNK N   1      35.698   8.863  15.719  0.00  0.00    -0.012 C 
HETATM    5  C   UNK N   1      35.343   5.871  19.581  0.00  0.00     0.020 A 
HETATM    6  C   UNK N   1      35.341  12.362  19.550  0.00  0.00     0.017 A 
HETATM    7  C   UNK N   1      35.456  11.114  20.145  0.00  0.00     0.020 A 
HETATM    8  C   UNK N   1      35.359  11.304  17.387  0.00  0.00     0.029 A 
HETATM    9  C   UNK N   1      35.288  12.468  18.164  0.00  0.00     0.048 A 
HETATM   10  C   UNK N   1      35.535   8.783  17.083  0.00  0.00    -0.017 C 
HETATM   11  C   UNK N   1      35.410   7.409  17.692  0.00  0.00    -0.008 A 
HETATM   12  C   UNK N   1      35.485  10.020  17.963  0.00  0.00    -0.007 A 
HETATM   13  C   UNK N   1      35.448   7.177  19.086  0.00  0.00     0.016 A 
HETATM   14  C   UNK N   1      35.521   9.945  19.378  0.00  0.00     0.016 A 
HETATM   15  S   UNK N   1      35.712   8.440  20.314  0.00  0.00    -0.089 SA
ENDROOT
BRANCH   4  16
HETATM   16  C   UNK N   1      35.955  10.128  14.964  0.00  0.00     0.058 C 
BRANCH  16  17
HETATM   17  C   UNK N   1      34.957  10.398  13.849  0.00  0.00     0.276 C 
BRANCH  17  18
HETATM   18  N   UNK N   1      35.032  11.818  13.539  0.00  0.00     0.092 N 
HETATM   19  C   UNK N   1      34.927  11.970  12.095  0.00  0.00     0.302 C 
HETATM   20  C   UNK N   1      34.861  13.452  11.775  0.00  0.00     0.302 C 
HETATM   21  N   UNK N   1      36.100  14.106  12.202  0.00  0.00     0.093 N 
HETATM   22  C   UNK N   1      36.312  13.884  13.638  0.00  0.00     0.302 C 
HETATM   23  C   UNK N   1      36.311  12.381  13.962  0.00  0.00     0.302 C 
BRANCH  21  24
HETATM   24  C   UNK N   1      35.918  15.538  12.000  0.00  0.00     0.298 C 
BRANCH  24  25
HETATM   25  C   UNK N   1      35.518  15.829  10.560  0.00  0.00     0.194 C 
BRANCH  25  26
HETATM   26  O   UNK N   1      34.859  17.056  10.496  0.00  0.00    -0.399 OA
HETATM   27  H   UNK N   1      34.860  17.708   9.778  0.00  0.00     0.209 HD
ENDBRANCH  25  26
ENDBRANCH  24  25
ENDBRANCH  21  24
ENDBRANCH  17  18
ENDBRANCH  16  17
ENDBRANCH   4  16
BRANCH   9  28
HETATM   28  C   UNK N   1      35.152  13.815  17.513  0.00  0.00     0.417 C 
HETATM   29  F   UNK N   1      36.339  14.149  16.885  0.00  0.00    -0.166 F 
HETATM   30  F   UNK N   1      34.130  13.778  16.584  0.00  0.00    -0.166 F 
HETATM   31  F   UNK N   1      34.856  14.795  18.446  0.00  0.00    -0.166 F 
ENDBRANCH   9  28
TORSDOF 7
ENDMDL
MODEL 8
REMARK VINA RESULT:      -7.2     12.454     14.692
REMARK  7 active torsions:
REMARK  status: ('A' for Active; 'I' for Inactive)
REMARK    1  A    between atoms: C_5  and  C_3 
REMARK    2  A    between atoms: C_9  and  C_3 
REMARK    3  A    between atoms: N_27  and  C_9 
REMARK    4  A    between atoms: C_15  and  C_14 
REMARK    5  A    between atoms: N_28  and  C_14 
REMARK    6  A    between atoms: O_29  and  C_15 
REMARK    7  A    between atoms: C_23  and  C_17 
ROOT
HETATM    1  C   UNK N   1      24.341  11.870  10.797  0.00  0.00     0.001 A 
HETATM    2  C   UNK N   1      23.109  11.932  11.435  0.00  0.00     0.001 A 
HETATM    3  C   UNK N   1      24.536  12.560   9.602  0.00  0.00     0.013 A 
HETATM    4  C   UNK N   1      25.088  14.110   7.281  0.00  0.00    -0.012 C 
HETATM    5  C   UNK N   1      22.082  12.686  10.878  0.00  0.00     0.020 A 
HETATM    6  C   UNK N   1      20.570  15.927   5.461  0.00  0.00     0.017 A 
HETATM    7  C   UNK N   1      20.335  15.460   6.746  0.00  0.00     0.020 A 
HETATM    8  C   UNK N   1      22.858  15.201   5.643  0.00  0.00     0.029 A 
HETATM    9  C   UNK N   1      21.834  15.799   4.896  0.00  0.00     0.048 A 
HETATM   10  C   UNK N   1      23.786  14.063   7.721  0.00  0.00    -0.017 C 
HETATM   11  C   UNK N   1      23.508  13.328   9.008  0.00  0.00    -0.008 A 
HETATM   12  C   UNK N   1      22.652  14.724   6.957  0.00  0.00    -0.007 A 
HETATM   13  C   UNK N   1      22.263  13.380   9.675  0.00  0.00     0.016 A 
HETATM   14  C   UNK N   1      21.349  14.857   7.497  0.00  0.00     0.016 A 
HETATM   15  S   UNK N   1      20.873  14.360   9.142  0.00  0.00    -0.089 SA
ENDROOT
BRANCH   4  16
HETATM   16  C   UNK N   1      25.561  14.889   6.096  0.00  0.00     0.058 C 
BRANCH  16  17
HETATM   17  C   UNK N   1      26.723  15.824   6.392  0.00  0.00     0.276 C 
BRANCH  17  18
HETATM   18  N   UNK N   1      26.464  17.069   5.685  0.00  0.00     0.092 N 
HETATM   19  C   UNK N   1      26.712  16.842   4.268  0.00  0.00     0.302 C 
HETATM   20  C   UNK N   1      26.308  18.091   3.507  0.00  0.00     0.302 C 
HETATM   21  N   UNK N   1      27.142  19.219   3.928  0.00  0.00     0.093 N 
HETATM   22  C   UNK N   1      27.015  19.419   5.378  0.00  0.00     0.302 C 
HETATM   23  C   UNK N   1      27.362  18.127   6.137  0.00  0.00     0.302 C 
BRANCH  21  24
HETATM   24  C   UNK N   1      26.614  20.409   3.273  0.00  0.00     0.298 C 
BRANCH  24  25
HETATM   25  C   UNK N   1      25.098  20.466   3.408  0.00  0.00     0.194 C 
BRANCH  25  26
HETATM   26  O   UNK N   1      24.537  20.887   2.204  0.00  0.00    -0.399 OA
HETATM   27  H   UNK N   1      23.619  21.140   2.017  0.00  0.00     0.209 HD
ENDBRANCH  25  26
ENDBRANCH  24  25
ENDBRANCH  21  24
ENDBRANCH  17  18
ENDBRANCH  16  17
ENDBRANCH   4  16
BRANCH   9  28
HETATM   28  C   UNK N   1      22.092  16.291   3.500  0.00  0.00     0.417 C 
HETATM   29  F   UNK N   1      22.171  15.215   2.635  0.00  0.00    -0.166 F 
HETATM   30  F   UNK N   1      21.066  17.129   3.108  0.00  0.00    -0.166 F 
HETATM   31  F   UNK N   1      23.281  17.000   3.431  0.00  0.00    -0.166 F 
ENDBRANCH   9  28
TORSDOF 7
ENDMDL
MODEL 9
REMARK VINA RESULT:      -7.2      6.327     10.526
REMARK  7 active torsions:
REMARK  status: ('A' for Active; 'I' for Inactive)
REMARK    1  A    between atoms: C_5  and  C_3 
REMARK    2  A    between atoms: C_9  and  C_3 
REMARK    3  A    between atoms: N_27  and  C_9 
REMARK    4  A    between atoms: C_15  and  C_14 
REMARK    5  A    between atoms: N_28  and  C_14 
REMARK    6  A    between atoms: O_29  and  C_15 
REMARK    7  A    between atoms: C_23  and  C_17 
ROOT
HETATM    1  C   UNK N   1      28.132  14.940   2.063  0.00  0.00     0.001 A 
HETATM    2  C   UNK N   1      26.953  15.291   2.707  0.00  0.00     0.001 A 
HETATM    3  C   UNK N   1      29.353  15.117   2.711  0.00  0.00     0.013 A 
HETATM    4  C   UNK N   1      31.866  15.237   4.039  0.00  0.00    -0.012 C 
HETATM    5  C   UNK N   1      27.001  15.812   3.996  0.00  0.00     0.020 A 
HETATM    6  C   UNK N   1      31.239  18.003   8.398  0.00  0.00     0.017 A 
HETATM    7  C   UNK N   1      29.972  17.676   7.935  0.00  0.00     0.020 A 
HETATM    8  C   UNK N   1      32.194  16.915   6.474  0.00  0.00     0.029 A 
HETATM    9  C   UNK N   1      32.362  17.628   7.669  0.00  0.00     0.048 A 
HETATM   10  C   UNK N   1      30.784  15.804   4.671  0.00  0.00    -0.017 C 
HETATM   11  C   UNK N   1      29.433  15.651   4.018  0.00  0.00    -0.008 A 
HETATM   12  C   UNK N   1      30.919  16.559   5.982  0.00  0.00    -0.007 A 
HETATM   13  C   UNK N   1      28.221  15.999   4.657  0.00  0.00     0.016 A 
HETATM   14  C   UNK N   1      29.794  16.969   6.741  0.00  0.00     0.016 A 
HETATM   15  S   UNK N   1      28.099  16.601   6.330  0.00  0.00    -0.089 SA
ENDROOT
BRANCH   4  16
HETATM   16  C   UNK N   1      33.252  15.190   4.599  0.00  0.00     0.058 C 
BRANCH  16  17
HETATM   17  C   UNK N   1      33.851  13.794   4.655  0.00  0.00     0.276 C 
BRANCH  17  18
HETATM   18  N   UNK N   1      34.290  13.568   6.023  0.00  0.00     0.092 N 
HETATM   19  C   UNK N   1      33.107  13.474   6.867  0.00  0.00     0.302 C 
HETATM   20  C   UNK N   1      33.549  13.098   8.268  0.00  0.00     0.302 C 
HETATM   21  N   UNK N   1      34.404  14.153   8.818  0.00  0.00     0.093 N 
HETATM   22  C   UNK N   1      35.561  14.367   7.938  0.00  0.00     0.302 C 
HETATM   23  C   UNK N   1      35.102  14.682   6.505  0.00  0.00     0.302 C 
BRANCH  21  24
HETATM   24  C   UNK N   1      34.909  13.671  10.098  0.00  0.00     0.298 C 
BRANCH  24  25
HETATM   25  C   UNK N   1      34.543  14.639  11.215  0.00  0.00     0.194 C 
BRANCH  25  26
HETATM   26  O   UNK N   1      33.181  14.929  11.155  0.00  0.00    -0.399 OA
HETATM   27  H   UNK N   1      32.459  14.386  10.803  0.00  0.00     0.209 HD
ENDBRANCH  25  26
ENDBRANCH  24  25
ENDBRANCH  21  24
ENDBRANCH  17  18
ENDBRANCH  16  17
ENDBRANCH   4  16
BRANCH   9  28
HETATM   28  C   UNK N   1      33.736  17.990   8.157  0.00  0.00     0.417 C 
HETATM   29  F   UNK N   1      33.817  19.358   8.345  0.00  0.00    -0.166 F 
HETATM   30  F   UNK N   1      33.987  17.342   9.352  0.00  0.00    -0.166 F 
HETATM   31  F   UNK N   1      34.708  17.612   7.246  0.00  0.00    -0.166 F 
ENDBRANCH   9  28
TORSDOF 7
ENDMDL
