MODEL 1
REMARK VINA RESULT:      -4.1      0.000      0.000
REMARK  5 active torsions:
REMARK  status: ('A' for Active; 'I' for Inactive)
REMARK    1  A    between atoms: O_3  and  C_2 
REMARK    2  A    between atoms: C_4  and  C_2 
REMARK    3  A    between atoms: C_4  and  N_5 
REMARK    4  A    between atoms: C_6  and  C_4 
REMARK    5  A    between atoms: C_6  and  O_7 
ROOT
HETATM    1  C   UNK N   1      20.226  19.355   2.031  0.00  0.00     0.202 C 
ENDROOT
BRANCH   1   2
HETATM    2  C   UNK N   1      20.864  20.476   1.244  0.00  0.00     0.165 C 
HETATM    3  O   UNK N   1      21.558  21.301   1.801  0.00  0.00    -0.648 OA
BRANCH   2   4
HETATM    4  O   UNK N   1      20.629  20.592  -0.083  0.00  0.00    -0.775 OA
HETATM    5  H   UNK N   1      19.787  20.420  -0.457  0.00  0.00     0.167 HD
ENDBRANCH   2   4
ENDBRANCH   1   2
BRANCH   1   6
HETATM    6  N   UNK N   1      20.122  18.162   1.204  0.00  0.00    -0.416 N 
HETATM    7  H   UNK N   1      20.757  17.377   1.339  0.00  0.00     0.150 HD
HETATM    8  H   UNK N   1      19.404  18.112   0.481  0.00  0.00     0.150 HD
ENDBRANCH   1   6
BRANCH   1   9
HETATM    9  C   UNK N   1      20.992  19.035   3.321  0.00  0.00     0.146 C 
HETATM   10  C   UNK N   1      20.559  17.690   3.877  0.00  0.00     0.042 C 
BRANCH   9  11
HETATM   11  O   UNK N   1      20.732  20.010   4.287  0.00  0.00    -0.393 OA
HETATM   12  H   UNK N   1      19.843  20.133   4.654  0.00  0.00     0.210 HD
ENDBRANCH   9  11
ENDBRANCH   1   9
TORSDOF 5
ENDMDL
MODEL 2
REMARK VINA RESULT:      -4.0     15.039     15.583
REMARK  5 active torsions:
REMARK  status: ('A' for Active; 'I' for Inactive)
REMARK    1  A    between atoms: O_3  and  C_2 
REMARK    2  A    between atoms: C_4  and  C_2 
REMARK    3  A    between atoms: C_4  and  N_5 
REMARK    4  A    between atoms: C_6  and  C_4 
REMARK    5  A    between atoms: C_6  and  O_7 
ROOT
HETATM    1  C   UNK N   1      33.924  17.230   8.957  0.00  0.00     0.202 C 
ENDROOT
BRANCH   1   2
HETATM    2  C   UNK N   1      34.540  18.248   8.025  0.00  0.00     0.165 C 
HETATM    3  O   UNK N   1      34.402  18.145   6.824  0.00  0.00    -0.648 OA
BRANCH   2   4
HETATM    4  O   UNK N   1      35.287  19.259   8.525  0.00  0.00    -0.775 OA
HETATM    5  H   UNK N   1      34.916  19.945   9.044  0.00  0.00     0.167 HD
ENDBRANCH   2   4
ENDBRANCH   1   2
BRANCH   1   6
HETATM    6  N   UNK N   1      33.044  16.342   8.213  0.00  0.00    -0.416 N 
HETATM    7  H   UNK N   1      33.027  16.356   7.194  0.00  0.00     0.150 HD
HETATM    8  H   UNK N   1      32.436  15.696   8.718  0.00  0.00     0.150 HD
ENDBRANCH   1   6
BRANCH   1   9
HETATM    9  C   UNK N   1      34.980  16.413   9.712  0.00  0.00     0.146 C 
HETATM   10  C   UNK N   1      34.317  15.338  10.556  0.00  0.00     0.042 C 
BRANCH   9  11
HETATM   11  O   UNK N   1      35.711  17.245  10.563  0.00  0.00    -0.393 OA
HETATM   12  H   UNK N   1      36.569  17.611  10.297  0.00  0.00     0.210 HD
ENDBRANCH   9  11
ENDBRANCH   1   9
TORSDOF 5
ENDMDL
MODEL 3
REMARK VINA RESULT:      -4.0     14.259     14.792
REMARK  5 active torsions:
REMARK  status: ('A' for Active; 'I' for Inactive)
REMARK    1  A    between atoms: O_3  and  C_2 
REMARK    2  A    between atoms: C_4  and  C_2 
REMARK    3  A    between atoms: C_4  and  N_5 
REMARK    4  A    between atoms: C_6  and  C_4 
REMARK    5  A    between atoms: C_6  and  O_7 
ROOT
HETATM    1  C   UNK N   1      34.288  16.973   8.897  0.00  0.00     0.202 C 
ENDROOT
BRANCH   1   2
HETATM    2  C   UNK N   1      34.592  18.156   8.007  0.00  0.00     0.165 C 
HETATM    3  O   UNK N   1      35.006  19.192   8.482  0.00  0.00    -0.648 OA
BRANCH   2   4
HETATM    4  O   UNK N   1      34.361  18.079   6.676  0.00  0.00    -0.775 OA
HETATM    5  H   UNK N   1      33.574  17.710   6.327  0.00  0.00     0.167 HD
ENDBRANCH   2   4
ENDBRANCH   1   2
BRANCH   1   6
HETATM    6  N   UNK N   1      34.859  17.184  10.219  0.00  0.00    -0.416 N 
HETATM    7  H   UNK N   1      35.666  16.645  10.531  0.00  0.00     0.150 HD
HETATM    8  H   UNK N   1      34.446  17.879  10.841  0.00  0.00     0.150 HD
ENDBRANCH   1   6
BRANCH   1   9
HETATM    9  C   UNK N   1      32.784  16.697   9.012  0.00  0.00     0.146 C 
HETATM   10  C   UNK N   1      32.362  15.625   8.021  0.00  0.00     0.042 C 
BRANCH   9  11
HETATM   11  O   UNK N   1      32.061  17.859   8.730  0.00  0.00    -0.393 OA
HETATM   12  H   UNK N   1      31.926  18.162   7.819  0.00  0.00     0.210 HD
ENDBRANCH   9  11
ENDBRANCH   1   9
TORSDOF 5
ENDMDL
MODEL 4
REMARK VINA RESULT:      -3.9     10.303     12.030
REMARK  5 active torsions:
REMARK  status: ('A' for Active; 'I' for Inactive)
REMARK    1  A    between atoms: O_3  and  C_2 
REMARK    2  A    between atoms: C_4  and  C_2 
REMARK    3  A    between atoms: C_4  and  N_5 
REMARK    4  A    between atoms: C_6  and  C_4 
REMARK    5  A    between atoms: C_6  and  O_7 
ROOT
HETATM    1  C   UNK N   1      22.609  11.989  11.133  0.00  0.00     0.202 C 
ENDROOT
BRANCH   1   2
HETATM    2  C   UNK N   1      23.771  12.082  12.096  0.00  0.00     0.165 C 
HETATM    3  O   UNK N   1      23.586  11.999  13.292  0.00  0.00    -0.648 OA
BRANCH   2   4
HETATM    4  O   UNK N   1      25.022  12.301  11.629  0.00  0.00    -0.775 OA
HETATM    5  H   UNK N   1      25.666  11.622  11.588  0.00  0.00     0.167 HD
ENDBRANCH   2   4
ENDBRANCH   1   2
BRANCH   1   6
HETATM    6  N   UNK N   1      21.369  11.791  11.867  0.00  0.00    -0.416 N 
HETATM    7  H   UNK N   1      21.365  11.313  12.767  0.00  0.00     0.150 HD
HETATM    8  H   UNK N   1      20.491  12.134  11.475  0.00  0.00     0.150 HD
ENDBRANCH   1   6
BRANCH   1   9
HETATM    9  C   UNK N   1      22.496  13.226  10.233  0.00  0.00     0.146 C 
HETATM   10  C   UNK N   1      21.122  13.290   9.588  0.00  0.00     0.042 C 
BRANCH   9  11
HETATM   11  O   UNK N   1      23.451  13.167   9.216  0.00  0.00    -0.393 OA
HETATM   12  H   UNK N   1      23.226  12.845   8.329  0.00  0.00     0.210 HD
ENDBRANCH   9  11
ENDBRANCH   1   9
TORSDOF 5
ENDMDL
MODEL 5
REMARK VINA RESULT:      -3.8     17.399     18.309
REMARK  5 active torsions:
REMARK  status: ('A' for Active; 'I' for Inactive)
REMARK    1  A    between atoms: O_3  and  C_2 
REMARK    2  A    between atoms: C_4  and  C_2 
REMARK    3  A    between atoms: C_4  and  N_5 
REMARK    4  A    between atoms: C_6  and  C_4 
REMARK    5  A    between atoms: C_6  and  O_7 
ROOT
HETATM    1  C   UNK N   1      35.078  14.784  11.216  0.00  0.00     0.202 C 
ENDROOT
BRANCH   1   2
HETATM    2  C   UNK N   1      35.501  14.163  12.528  0.00  0.00     0.165 C 
HETATM    3  O   UNK N   1      34.701  13.552  13.205  0.00  0.00    -0.648 OA
BRANCH   2   4
HETATM    4  O   UNK N   1      36.767  14.323  12.976  0.00  0.00    -0.775 OA
HETATM    5  H   UNK N   1      37.487  14.478  12.396  0.00  0.00     0.167 HD
ENDBRANCH   2   4
ENDBRANCH   1   2
BRANCH   1   6
HETATM    6  N   UNK N   1      33.627  14.807  11.120  0.00  0.00    -0.416 N 
HETATM    7  H   UNK N   1      33.049  14.858  11.959  0.00  0.00     0.150 HD
HETATM    8  H   UNK N   1      33.182  14.771  10.203  0.00  0.00     0.150 HD
ENDBRANCH   1   6
BRANCH   1   9
HETATM    9  C   UNK N   1      35.640  16.199  11.031  0.00  0.00     0.146 C 
HETATM   10  C   UNK N   1      34.998  16.873   9.830  0.00  0.00     0.042 C 
BRANCH   9  11
HETATM   11  O   UNK N   1      37.018  16.143  10.813  0.00  0.00    -0.393 OA
HETATM   12  H   UNK N   1      37.439  16.654  10.104  0.00  0.00     0.210 HD
ENDBRANCH   9  11
ENDBRANCH   1   9
TORSDOF 5
ENDMDL
MODEL 6
REMARK VINA RESULT:      -3.8     14.073     14.731
REMARK  5 active torsions:
REMARK  status: ('A' for Active; 'I' for Inactive)
REMARK    1  A    between atoms: O_3  and  C_2 
REMARK    2  A    between atoms: C_4  and  C_2 
REMARK    3  A    between atoms: C_4  and  N_5 
REMARK    4  A    between atoms: C_6  and  C_4 
REMARK    5  A    between atoms: C_6  and  O_7 
ROOT
HETATM    1  C   UNK N   1      33.556  17.122   8.228  0.00  0.00     0.202 C 
ENDROOT
BRANCH   1   2
HETATM    2  C   UNK N   1      34.694  17.901   8.847  0.00  0.00     0.165 C 
HETATM    3  O   UNK N   1      35.280  17.468   9.816  0.00  0.00    -0.648 OA
BRANCH   2   4
HETATM    4  O   UNK N   1      35.037  19.111   8.348  0.00  0.00    -0.775 OA
HETATM    5  H   UNK N   1      34.567  19.512   7.644  0.00  0.00     0.167 HD
ENDBRANCH   2   4
ENDBRANCH   1   2
BRANCH   1   6
HETATM    6  N   UNK N   1      32.395  17.154   9.104  0.00  0.00    -0.416 N 
HETATM    7  H   UNK N   1      32.243  16.420   9.795  0.00  0.00     0.150 HD
HETATM    8  H   UNK N   1      31.725  17.919   9.026  0.00  0.00     0.150 HD
ENDBRANCH   1   6
BRANCH   1   9
HETATM    9  C   UNK N   1      33.179  17.644   6.836  0.00  0.00     0.146 C 
HETATM   10  C   UNK N   1      32.195  16.702   6.163  0.00  0.00     0.042 C 
BRANCH   9  11
HETATM   11  O   UNK N   1      34.317  17.730   6.031  0.00  0.00    -0.393 OA
HETATM   12  H   UNK N   1      34.512  18.527   5.514  0.00  0.00     0.210 HD
ENDBRANCH   9  11
ENDBRANCH   1   9
TORSDOF 5
ENDMDL
MODEL 7
REMARK VINA RESULT:      -3.7     11.046     11.835
REMARK  5 active torsions:
REMARK  status: ('A' for Active; 'I' for Inactive)
REMARK    1  A    between atoms: O_3  and  C_2 
REMARK    2  A    between atoms: C_4  and  C_2 
REMARK    3  A    between atoms: C_4  and  N_5 
REMARK    4  A    between atoms: C_6  and  C_4 
REMARK    5  A    between atoms: C_6  and  O_7 
ROOT
HETATM    1  C   UNK N   1      22.910  11.751  11.053  0.00  0.00     0.202 C 
ENDROOT
BRANCH   1   2
HETATM    2  C   UNK N   1      24.288  12.227  10.653  0.00  0.00     0.165 C 
HETATM    3  O   UNK N   1      24.586  12.331   9.482  0.00  0.00    -0.648 OA
BRANCH   2   4
HETATM    4  O   UNK N   1      25.213  12.499  11.602  0.00  0.00    -0.775 OA
HETATM    5  H   UNK N   1      24.981  12.854  12.438  0.00  0.00     0.167 HD
ENDBRANCH   2   4
ENDBRANCH   1   2
BRANCH   1   6
HETATM    6  N   UNK N   1      22.811  11.675  12.503  0.00  0.00    -0.416 N 
HETATM    7  H   UNK N   1      22.742  10.774  12.974  0.00  0.00     0.150 HD
HETATM    8  H   UNK N   1      22.810  12.533  13.054  0.00  0.00     0.150 HD
ENDBRANCH   1   6
BRANCH   1   9
HETATM    9  C   UNK N   1      21.797  12.647  10.496  0.00  0.00     0.146 C 
HETATM   10  C   UNK N   1      20.484  12.368  11.208  0.00  0.00     0.042 C 
BRANCH   9  11
HETATM   11  O   UNK N   1      21.616  12.395   9.134  0.00  0.00    -0.393 OA
HETATM   12  H   UNK N   1      22.351  12.459   8.506  0.00  0.00     0.210 HD
ENDBRANCH   9  11
ENDBRANCH   1   9
TORSDOF 5
ENDMDL
MODEL 8
REMARK VINA RESULT:      -3.6     11.247     12.053
REMARK  5 active torsions:
REMARK  status: ('A' for Active; 'I' for Inactive)
REMARK    1  A    between atoms: O_3  and  C_2 
REMARK    2  A    between atoms: C_4  and  C_2 
REMARK    3  A    between atoms: C_4  and  N_5 
REMARK    4  A    between atoms: C_6  and  C_4 
REMARK    5  A    between atoms: C_6  and  O_7 
ROOT
HETATM    1  C   UNK N   1      30.731  21.505  -3.269  0.00  0.00     0.202 C 
ENDROOT
BRANCH   1   2
HETATM    2  C   UNK N   1      30.101  22.650  -2.512  0.00  0.00     0.165 C 
HETATM    3  O   UNK N   1      30.555  23.006  -1.444  0.00  0.00    -0.648 OA
BRANCH   2   4
HETATM    4  O   UNK N   1      28.996  23.259  -3.001  0.00  0.00    -0.775 OA
HETATM    5  H   UNK N   1      28.728  24.111  -2.716  0.00  0.00     0.167 HD
ENDBRANCH   2   4
ENDBRANCH   1   2
BRANCH   1   6
HETATM    6  N   UNK N   1      30.260  21.497  -4.646  0.00  0.00    -0.416 N 
HETATM    7  H   UNK N   1      29.422  20.980  -4.907  0.00  0.00     0.150 HD
HETATM    8  H   UNK N   1      30.774  22.017  -5.357  0.00  0.00     0.150 HD
ENDBRANCH   1   6
BRANCH   1   9
HETATM    9  C   UNK N   1      32.264  21.556  -3.238  0.00  0.00     0.146 C 
HETATM   10  C   UNK N   1      32.849  20.599  -4.264  0.00  0.00     0.042 C 
BRANCH   9  11
HETATM   11  O   UNK N   1      32.731  21.181  -1.977  0.00  0.00    -0.393 OA
HETATM   12  H   UNK N   1      32.202  21.327  -1.178  0.00  0.00     0.210 HD
ENDBRANCH   9  11
ENDBRANCH   1   9
TORSDOF 5
ENDMDL
MODEL 9
REMARK VINA RESULT:      -3.6     16.127     16.902
REMARK  5 active torsions:
REMARK  status: ('A' for Active; 'I' for Inactive)
REMARK    1  A    between atoms: O_3  and  C_2 
REMARK    2  A    between atoms: C_4  and  C_2 
REMARK    3  A    between atoms: C_4  and  N_5 
REMARK    4  A    between atoms: C_6  and  C_4 
REMARK    5  A    between atoms: C_6  and  O_7 
ROOT
HETATM    1  C   UNK N   1      35.112  15.358   9.389  0.00  0.00     0.202 C 
ENDROOT
BRANCH   1   2
HETATM    2  C   UNK N   1      35.759  16.347  10.331  0.00  0.00     0.165 C 
HETATM    3  O   UNK N   1      35.342  17.483  10.411  0.00  0.00    -0.648 OA
BRANCH   2   4
HETATM    4  O   UNK N   1      36.838  15.982  11.061  0.00  0.00    -0.775 OA
HETATM    5  H   UNK N   1      36.874  15.169  11.527  0.00  0.00     0.167 HD
ENDBRANCH   2   4
ENDBRANCH   1   2
BRANCH   1   6
HETATM    6  N   UNK N   1      36.081  14.353   8.980  0.00  0.00    -0.416 N 
HETATM    7  H   UNK N   1      36.846  14.083   9.598  0.00  0.00     0.150 HD
HETATM    8  H   UNK N   1      35.994  13.913   8.064  0.00  0.00     0.150 HD
ENDBRANCH   1   6
BRANCH   1   9
HETATM    9  C   UNK N   1      33.881  14.682  10.005  0.00  0.00     0.146 C 
HETATM   10  C   UNK N   1      32.616  15.131   9.294  0.00  0.00     0.042 C 
BRANCH   9  11
HETATM   11  O   UNK N   1      33.769  15.028  11.354  0.00  0.00    -0.393 OA
HETATM   12  H   UNK N   1      33.956  14.387  12.057  0.00  0.00     0.210 HD
ENDBRANCH   9  11
ENDBRANCH   1   9
TORSDOF 5
ENDMDL
