MODEL 1
REMARK VINA RESULT:      -4.5      0.000      0.000
REMARK  2 active torsions:
REMARK  status: ('A' for Active; 'I' for Inactive)
REMARK    1  A    between atoms: N_1  and  C_2 
REMARK    2  A    between atoms: C_4  and  C_5 
ROOT
HETATM    1  C   UNK N   1      25.555  24.940  -5.172  0.00  0.00     0.083 A 
HETATM    2  C   UNK N   1      25.853  25.394  -6.581  0.00  0.00     0.036 A 
HETATM    3  C   UNK N   1      25.058  26.312  -5.663  0.00  0.00     0.043 A 
ENDROOT
BRANCH   3   4
HETATM    4  C   UNK N   1      25.887  27.522  -5.330  0.00  0.00    -0.052 A 
HETATM    5  C   UNK N   1      26.895  27.947  -6.212  0.00  0.00     0.007 A 
HETATM    6  C   UNK N   1      27.640  29.094  -5.936  0.00  0.00     0.001 A 
HETATM    7  C   UNK N   1      27.383  29.833  -4.776  0.00  0.00     0.000 A 
HETATM    8  C   UNK N   1      26.374  29.425  -3.899  0.00  0.00     0.001 A 
HETATM    9  C   UNK N   1      25.623  28.282  -4.178  0.00  0.00     0.007 A 
ENDBRANCH   3   4
BRANCH   1  10
HETATM   10  N   UNK N   1      26.770  25.017  -4.377  0.00  0.00    -0.425 N 
HETATM   11  H   UNK N   1      27.021  25.171  -3.400  0.00  0.00     0.150 HD
HETATM   12  H   UNK N   1      27.600  24.879  -4.955  0.00  0.00     0.150 HD
ENDBRANCH   1  10
TORSDOF 2
ENDMDL
MODEL 2
REMARK VINA RESULT:      -4.4     26.779     27.950
REMARK  2 active torsions:
REMARK  status: ('A' for Active; 'I' for Inactive)
REMARK    1  A    between atoms: N_1  and  C_2 
REMARK    2  A    between atoms: C_4  and  C_5 
ROOT
HETATM    1  C   UNK N   1      36.448  12.458  13.867  0.00  0.00     0.083 A 
HETATM    2  C   UNK N   1      35.617  13.684  14.164  0.00  0.00     0.036 A 
HETATM    3  C   UNK N   1      35.145  12.331  14.678  0.00  0.00     0.043 A 
ENDROOT
BRANCH   3   4
HETATM    4  C   UNK N   1      35.249  12.306  16.179  0.00  0.00    -0.052 A 
HETATM    5  C   UNK N   1      35.112  13.497  16.912  0.00  0.00     0.007 A 
HETATM    6  C   UNK N   1      35.161  13.479  18.306  0.00  0.00     0.001 A 
HETATM    7  C   UNK N   1      35.344  12.270  18.985  0.00  0.00     0.000 A 
HETATM    8  C   UNK N   1      35.470  11.078  18.264  0.00  0.00     0.001 A 
HETATM    9  C   UNK N   1      35.413  11.094  16.869  0.00  0.00     0.007 A 
ENDBRANCH   3   4
BRANCH   1  10
HETATM   10  N   UNK N   1      37.643  12.479  14.695  0.00  0.00    -0.425 N 
HETATM   11  H   UNK N   1      38.461  11.888  14.849  0.00  0.00     0.150 HD
HETATM   12  H   UNK N   1      37.673  13.313  15.282  0.00  0.00     0.150 HD
ENDBRANCH   1  10
TORSDOF 2
ENDMDL
MODEL 3
REMARK VINA RESULT:      -4.3      1.860      2.622
REMARK  2 active torsions:
REMARK  status: ('A' for Active; 'I' for Inactive)
REMARK    1  A    between atoms: N_1  and  C_2 
REMARK    2  A    between atoms: C_4  and  C_5 
ROOT
HETATM    1  C   UNK N   1      27.295  23.395  -6.291  0.00  0.00     0.083 A 
HETATM    2  C   UNK N   1      25.943  23.656  -6.910  0.00  0.00     0.036 A 
HETATM    3  C   UNK N   1      26.094  23.754  -5.398  0.00  0.00     0.043 A 
ENDROOT
BRANCH   3   4
HETATM    4  C   UNK N   1      25.934  25.188  -4.974  0.00  0.00    -0.052 A 
HETATM    5  C   UNK N   1      25.192  26.077  -5.770  0.00  0.00     0.007 A 
HETATM    6  C   UNK N   1      24.999  27.398  -5.364  0.00  0.00     0.001 A 
HETATM    7  C   UNK N   1      25.542  27.845  -4.155  0.00  0.00     0.000 A 
HETATM    8  C   UNK N   1      26.271  26.965  -3.350  0.00  0.00     0.001 A 
HETATM    9  C   UNK N   1      26.458  25.641  -3.752  0.00  0.00     0.007 A 
ENDBRANCH   3   4
BRANCH   1  10
HETATM   10  N   UNK N   1      28.171  24.524  -6.560  0.00  0.00    -0.425 N 
HETATM   11  H   UNK N   1      28.191  25.525  -6.358  0.00  0.00     0.150 HD
HETATM   12  H   UNK N   1      28.989  24.239  -7.099  0.00  0.00     0.150 HD
ENDBRANCH   1  10
TORSDOF 2
ENDMDL
MODEL 4
REMARK VINA RESULT:      -4.2     27.219     28.383
REMARK  2 active torsions:
REMARK  status: ('A' for Active; 'I' for Inactive)
REMARK    1  A    between atoms: N_1  and  C_2 
REMARK    2  A    between atoms: C_4  and  C_5 
ROOT
HETATM    1  C   UNK N   1      34.738  10.579  14.190  0.00  0.00     0.083 A 
HETATM    2  C   UNK N   1      35.503   9.607  15.056  0.00  0.00     0.036 A 
HETATM    3  C   UNK N   1      35.925  11.070  15.038  0.00  0.00     0.043 A 
ENDROOT
BRANCH   3   4
HETATM    4  C   UNK N   1      35.627  11.691  16.375  0.00  0.00    -0.052 A 
HETATM    5  C   UNK N   1      35.631  10.897  17.534  0.00  0.00     0.007 A 
HETATM    6  C   UNK N   1      35.401  11.469  18.785  0.00  0.00     0.001 A 
HETATM    7  C   UNK N   1      35.167  12.844  18.893  0.00  0.00     0.000 A 
HETATM    8  C   UNK N   1      35.172  13.645  17.747  0.00  0.00     0.001 A 
HETATM    9  C   UNK N   1      35.411  13.074  16.495  0.00  0.00     0.007 A 
ENDBRANCH   3   4
BRANCH   1  10
HETATM   10  N   UNK N   1      33.445  10.846  14.798  0.00  0.00    -0.425 N 
HETATM   11  H   UNK N   1      32.632  10.309  15.104  0.00  0.00     0.150 HD
HETATM   12  H   UNK N   1      33.313  11.844  14.965  0.00  0.00     0.150 HD
ENDBRANCH   1  10
TORSDOF 2
ENDMDL
MODEL 5
REMARK VINA RESULT:      -4.2     13.280     14.646
REMARK  2 active torsions:
REMARK  status: ('A' for Active; 'I' for Inactive)
REMARK    1  A    between atoms: N_1  and  C_2 
REMARK    2  A    between atoms: C_4  and  C_5 
ROOT
HETATM    1  C   UNK N   1      28.296  17.147   8.020  0.00  0.00     0.083 A 
HETATM    2  C   UNK N   1      28.208  18.465   8.752  0.00  0.00     0.036 A 
HETATM    3  C   UNK N   1      28.914  18.415   7.404  0.00  0.00     0.043 A 
ENDROOT
BRANCH   3   4
HETATM    4  C   UNK N   1      28.103  19.173   6.390  0.00  0.00    -0.052 A 
HETATM    5  C   UNK N   1      27.314  20.263   6.795  0.00  0.00     0.007 A 
HETATM    6  C   UNK N   1      26.593  21.002   5.857  0.00  0.00     0.001 A 
HETATM    7  C   UNK N   1      26.656  20.663   4.501  0.00  0.00     0.000 A 
HETATM    8  C   UNK N   1      27.448  19.588   4.087  0.00  0.00     0.001 A 
HETATM    9  C   UNK N   1      28.176  18.853   5.024  0.00  0.00     0.007 A 
ENDBRANCH   3   4
BRANCH   1  10
HETATM   10  N   UNK N   1      26.990  16.817   7.472  0.00  0.00    -0.425 N 
HETATM   11  H   UNK N   1      26.082  17.272   7.366  0.00  0.00     0.150 HD
HETATM   12  H   UNK N   1      26.978  15.873   7.086  0.00  0.00     0.150 HD
ENDBRANCH   1  10
TORSDOF 2
ENDMDL
MODEL 6
REMARK VINA RESULT:      -4.2      1.483      3.931
REMARK  2 active torsions:
REMARK  status: ('A' for Active; 'I' for Inactive)
REMARK    1  A    between atoms: N_1  and  C_2 
REMARK    2  A    between atoms: C_4  and  C_5 
ROOT
HETATM    1  C   UNK N   1      28.172  29.477  -3.640  0.00  0.00     0.083 A 
HETATM    2  C   UNK N   1      26.706  29.579  -3.295  0.00  0.00     0.036 A 
HETATM    3  C   UNK N   1      27.128  29.666  -4.756  0.00  0.00     0.043 A 
ENDROOT
BRANCH   3   4
HETATM    4  C   UNK N   1      26.647  28.441  -5.486  0.00  0.00    -0.052 A 
HETATM    5  C   UNK N   1      25.502  27.762  -5.038  0.00  0.00     0.007 A 
HETATM    6  C   UNK N   1      25.020  26.652  -5.733  0.00  0.00     0.001 A 
HETATM    7  C   UNK N   1      25.676  26.211  -6.887  0.00  0.00     0.000 A 
HETATM    8  C   UNK N   1      26.810  26.888  -7.347  0.00  0.00     0.001 A 
HETATM    9  C   UNK N   1      27.288  28.003  -6.657  0.00  0.00     0.007 A 
ENDBRANCH   3   4
BRANCH   1  10
HETATM   10  N   UNK N   1      28.605  28.098  -3.483  0.00  0.00    -0.425 N 
HETATM   11  H   UNK N   1      28.489  27.212  -3.978  0.00  0.00     0.150 HD
HETATM   12  H   UNK N   1      29.184  27.984  -2.651  0.00  0.00     0.150 HD
ENDBRANCH   1  10
TORSDOF 2
ENDMDL
MODEL 7
REMARK VINA RESULT:      -4.2      1.760      4.096
REMARK  2 active torsions:
REMARK  status: ('A' for Active; 'I' for Inactive)
REMARK    1  A    between atoms: N_1  and  C_2 
REMARK    2  A    between atoms: C_4  and  C_5 
ROOT
HETATM    1  C   UNK N   1      26.942  29.857  -4.442  0.00  0.00     0.083 A 
HETATM    2  C   UNK N   1      27.187  29.216  -3.097  0.00  0.00     0.036 A 
HETATM    3  C   UNK N   1      25.890  28.911  -3.834  0.00  0.00     0.043 A 
ENDROOT
BRANCH   3   4
HETATM    4  C   UNK N   1      25.896  27.473  -4.277  0.00  0.00    -0.052 A 
HETATM    5  C   UNK N   1      26.516  26.496  -3.481  0.00  0.00     0.007 A 
HETATM    6  C   UNK N   1      26.489  25.153  -3.859  0.00  0.00     0.001 A 
HETATM    7  C   UNK N   1      25.836  24.771  -5.036  0.00  0.00     0.000 A 
HETATM    8  C   UNK N   1      25.206  25.735  -5.829  0.00  0.00     0.001 A 
HETATM    9  C   UNK N   1      25.226  27.077  -5.447  0.00  0.00     0.007 A 
ENDBRANCH   3   4
BRANCH   1  10
HETATM   10  N   UNK N   1      27.786  29.218  -5.438  0.00  0.00    -0.425 N 
HETATM   11  H   UNK N   1      27.730  28.978  -6.429  0.00  0.00     0.150 HD
HETATM   12  H   UNK N   1      28.679  28.930  -5.038  0.00  0.00     0.150 HD
ENDBRANCH   1  10
TORSDOF 2
ENDMDL
MODEL 8
REMARK VINA RESULT:      -4.2     17.029     17.680
REMARK  2 active torsions:
REMARK  status: ('A' for Active; 'I' for Inactive)
REMARK    1  A    between atoms: N_1  and  C_2 
REMARK    2  A    between atoms: C_4  and  C_5 
ROOT
HETATM    1  C   UNK N   1      33.075  16.390   8.153  0.00  0.00     0.083 A 
HETATM    2  C   UNK N   1      33.174  17.884   8.348  0.00  0.00     0.036 A 
HETATM    3  C   UNK N   1      32.133  17.333   7.383  0.00  0.00     0.043 A 
ENDROOT
BRANCH   3   4
HETATM    4  C   UNK N   1      30.758  17.571   7.947  0.00  0.00    -0.052 A 
HETATM    5  C   UNK N   1      30.589  18.432   9.044  0.00  0.00     0.007 A 
HETATM    6  C   UNK N   1      29.315  18.695   9.547  0.00  0.00     0.001 A 
HETATM    7  C   UNK N   1      28.193  18.104   8.955  0.00  0.00     0.000 A 
HETATM    8  C   UNK N   1      28.351  17.256   7.855  0.00  0.00     0.001 A 
HETATM    9  C   UNK N   1      29.625  16.998   7.347  0.00  0.00     0.007 A 
ENDBRANCH   3   4
BRANCH   1  10
HETATM   10  N   UNK N   1      32.460  15.794   9.329  0.00  0.00    -0.425 N 
HETATM   11  H   UNK N   1      32.695  15.080  10.019  0.00  0.00     0.150 HD
HETATM   12  H   UNK N   1      31.544  16.203   9.515  0.00  0.00     0.150 HD
ENDBRANCH   1  10
TORSDOF 2
ENDMDL
MODEL 9
REMARK VINA RESULT:      -4.1      2.007      3.165
REMARK  2 active torsions:
REMARK  status: ('A' for Active; 'I' for Inactive)
REMARK    1  A    between atoms: N_1  and  C_2 
REMARK    2  A    between atoms: C_4  and  C_5 
ROOT
HETATM    1  C   UNK N   1      28.749  24.418  -3.716  0.00  0.00     0.083 A 
HETATM    2  C   UNK N   1      27.881  23.699  -4.721  0.00  0.00     0.036 A 
HETATM    3  C   UNK N   1      27.220  24.388  -3.535  0.00  0.00     0.043 A 
ENDROOT
BRANCH   3   4
HETATM    4  C   UNK N   1      26.429  25.570  -4.023  0.00  0.00    -0.052 A 
HETATM    5  C   UNK N   1      26.343  26.731  -3.236  0.00  0.00     0.007 A 
HETATM    6  C   UNK N   1      25.650  27.850  -3.699  0.00  0.00     0.001 A 
HETATM    7  C   UNK N   1      25.039  27.823  -4.957  0.00  0.00     0.000 A 
HETATM    8  C   UNK N   1      25.129  26.677  -5.752  0.00  0.00     0.001 A 
HETATM    9  C   UNK N   1      25.829  25.560  -5.294  0.00  0.00     0.007 A 
ENDBRANCH   3   4
BRANCH   1  10
HETATM   10  N   UNK N   1      29.236  25.656  -4.303  0.00  0.00    -0.425 N 
HETATM   11  H   UNK N   1      29.007  26.650  -4.259  0.00  0.00     0.150 HD
HETATM   12  H   UNK N   1      30.021  25.484  -4.931  0.00  0.00     0.150 HD
ENDBRANCH   1  10
TORSDOF 2
ENDMDL
