MODEL 1
REMARK VINA RESULT:      -6.4      0.000      0.000
REMARK  7 active torsions:
REMARK  status: ('A' for Active; 'I' for Inactive)
REMARK    1  A    between atoms: C_3  and  O_17 
REMARK    2  A    between atoms: C_6  and  C_11 
REMARK    3  A    between atoms: C_12  and  C_21 
REMARK    4  A    between atoms: C_13  and  C_14 
REMARK    5  A    between atoms: C_15  and  C_23 
REMARK    6  A    between atoms: C_16  and  C_19 
REMARK    7  A    between atoms: C_19  and  O_20 
ROOT
HETATM    1  C   UNK N   1      27.972  18.623   6.737  0.00  0.00     0.013 C 
HETATM    2  C   UNK N   1      27.976  19.868   6.261  0.00  0.00     0.007 C 
ENDROOT
BRANCH   2   3
HETATM    3  C   UNK N   1      26.762  20.683   6.024  0.00  0.00    -0.062 C 
HETATM    4  C   UNK N   1      26.031  20.683   4.898  0.00  0.00     0.007 C 
HETATM    5  C   UNK N   1      26.313  21.576   7.125  0.00  0.00     0.048 C 
BRANCH   4   6
HETATM    6  C   UNK N   1      26.270  19.890   3.677  0.00  0.00     0.001 C 
HETATM    7  C   UNK N   1      25.678  18.700   3.455  0.00  0.00     0.007 C 
BRANCH   7   8
HETATM    8  C   UNK N   1      24.720  18.004   4.362  0.00  0.00    -0.056 C 
HETATM    9  C   UNK N   1      23.455  18.457   4.413  0.00  0.00     0.087 C 
HETATM   10  C   UNK N   1      25.145  16.829   5.197  0.00  0.00     0.048 C 
BRANCH   9  11
HETATM   11  C   UNK N   1      22.363  17.895   5.253  0.00  0.00     0.165 C 
HETATM   12  O   UNK N   1      21.650  16.990   4.850  0.00  0.00    -0.647 OA
BRANCH  11  13
HETATM   13  O   UNK N   1      22.158  18.398   6.484  0.00  0.00    -0.773 OA
HETATM   14  H   UNK N   1      22.237  17.844   7.235  0.00  0.00     0.167 HD
ENDBRANCH  11  13
ENDBRANCH   9  11
ENDBRANCH   7   8
ENDBRANCH   4   6
ENDBRANCH   2   3
BRANCH   1  15
HETATM   15  C   UNK N   1      29.191  17.795   6.979  0.00  0.00    -0.024 A 
HETATM   16  C   UNK N   1      29.881  17.082   5.955  0.00  0.00    -0.043 A 
HETATM   17  C   UNK N   1      31.031  16.320   6.273  0.00  0.00    -0.022 A 
HETATM   18  C   UNK N   1      29.415  17.118   4.529  0.00  0.00     0.049 C 
HETATM   19  C   UNK N   1      31.496  16.268   7.617  0.00  0.00     0.075 A 
HETATM   20  C   UNK N   1      31.731  15.582   5.171  0.00  0.00     0.052 C 
HETATM   21  C   UNK N   1      30.804  16.974   8.597  0.00  0.00     0.044 A 
HETATM   22  C   UNK N   1      29.673  17.725   8.298  0.00  0.00    -0.049 A 
HETATM   23  C   UNK N   1      28.995  18.450   9.415  0.00  0.00     0.049 C 
BRANCH  19  24
HETATM   24  O   UNK N   1      32.589  15.567   8.030  0.00  0.00    -0.355 OA
HETATM   25  C   UNK N   1      33.470  15.921   9.025  0.00  0.00     0.210 C 
ENDBRANCH  19  24
ENDBRANCH   1  15
TORSDOF 7
ENDMDL
MODEL 2
REMARK VINA RESULT:      -6.4     12.608     17.437
REMARK  7 active torsions:
REMARK  status: ('A' for Active; 'I' for Inactive)
REMARK    1  A    between atoms: C_3  and  O_17 
REMARK    2  A    between atoms: C_6  and  C_11 
REMARK    3  A    between atoms: C_12  and  C_21 
REMARK    4  A    between atoms: C_13  and  C_14 
REMARK    5  A    between atoms: C_15  and  C_23 
REMARK    6  A    between atoms: C_16  and  C_19 
REMARK    7  A    between atoms: C_19  and  O_20 
ROOT
HETATM    1  C   UNK N   1      35.205   8.928  18.156  0.00  0.00     0.013 C 
HETATM    2  C   UNK N   1      34.075   8.318  18.511  0.00  0.00     0.007 C 
ENDROOT
BRANCH   2   3
HETATM    3  C   UNK N   1      34.005   7.009  19.202  0.00  0.00    -0.062 C 
HETATM    4  C   UNK N   1      32.890   6.444  19.692  0.00  0.00     0.007 C 
HETATM    5  C   UNK N   1      35.277   6.256  19.366  0.00  0.00     0.048 C 
BRANCH   4   6
HETATM    6  C   UNK N   1      31.520   6.989  19.652  0.00  0.00     0.001 C 
HETATM    7  C   UNK N   1      31.055   7.856  20.573  0.00  0.00     0.007 C 
BRANCH   7   8
HETATM    8  C   UNK N   1      31.807   8.393  21.743  0.00  0.00    -0.056 C 
HETATM    9  C   UNK N   1      32.501   9.534  21.579  0.00  0.00     0.087 C 
HETATM   10  C   UNK N   1      31.797   7.691  23.071  0.00  0.00     0.048 C 
BRANCH   9  11
HETATM   11  C   UNK N   1      33.308  10.220  22.624  0.00  0.00     0.165 C 
HETATM   12  O   UNK N   1      34.437   9.851  22.902  0.00  0.00    -0.647 OA
BRANCH  11  13
HETATM   13  O   UNK N   1      32.778  11.270  23.276  0.00  0.00    -0.773 OA
HETATM   14  H   UNK N   1      32.837  12.129  22.907  0.00  0.00     0.167 HD
ENDBRANCH  11  13
ENDBRANCH   9  11
ENDBRANCH   7   8
ENDBRANCH   4   6
ENDBRANCH   2   3
BRANCH   1  15
HETATM   15  C   UNK N   1      35.284  10.246  17.459  0.00  0.00    -0.024 A 
HETATM   16  C   UNK N   1      35.263  11.502  18.134  0.00  0.00    -0.043 A 
HETATM   17  C   UNK N   1      35.343  12.706  17.394  0.00  0.00    -0.022 A 
HETATM   18  C   UNK N   1      35.157  11.583  19.629  0.00  0.00     0.049 C 
HETATM   19  C   UNK N   1      35.446  12.659  15.975  0.00  0.00     0.075 A 
HETATM   20  C   UNK N   1      35.318  14.009  18.136  0.00  0.00     0.052 C 
HETATM   21  C   UNK N   1      35.465  11.420  15.341  0.00  0.00     0.044 A 
HETATM   22  C   UNK N   1      35.386  10.230  16.057  0.00  0.00    -0.049 A 
HETATM   23  C   UNK N   1      35.413   8.947  15.293  0.00  0.00     0.049 C 
BRANCH  19  24
HETATM   24  O   UNK N   1      35.528  13.755  15.170  0.00  0.00    -0.355 OA
HETATM   25  C   UNK N   1      35.737  13.767  13.810  0.00  0.00     0.210 C 
ENDBRANCH  19  24
ENDBRANCH   1  15
TORSDOF 7
ENDMDL
MODEL 3
REMARK VINA RESULT:      -6.3     11.802     15.657
REMARK  7 active torsions:
REMARK  status: ('A' for Active; 'I' for Inactive)
REMARK    1  A    between atoms: C_3  and  O_17 
REMARK    2  A    between atoms: C_6  and  C_11 
REMARK    3  A    between atoms: C_12  and  C_21 
REMARK    4  A    between atoms: C_13  and  C_14 
REMARK    5  A    between atoms: C_15  and  C_23 
REMARK    6  A    between atoms: C_16  and  C_19 
REMARK    7  A    between atoms: C_19  and  O_20 
ROOT
HETATM    1  C   UNK N   1      34.989  12.630  16.448  0.00  0.00     0.013 C 
HETATM    2  C   UNK N   1      35.480  11.718  17.286  0.00  0.00     0.007 C 
ENDROOT
BRANCH   2   3
HETATM    3  C   UNK N   1      35.182  11.659  18.736  0.00  0.00    -0.062 C 
HETATM    4  C   UNK N   1      34.833  10.556  19.416  0.00  0.00     0.007 C 
HETATM    5  C   UNK N   1      35.278  12.928  19.504  0.00  0.00     0.048 C 
BRANCH   4   6
HETATM    6  C   UNK N   1      34.672   9.190  18.881  0.00  0.00     0.001 C 
HETATM    7  C   UNK N   1      33.727   8.340  19.330  0.00  0.00     0.007 C 
BRANCH   7   8
HETATM    8  C   UNK N   1      32.723   8.615  20.398  0.00  0.00    -0.056 C 
HETATM    9  C   UNK N   1      33.171   8.816  21.650  0.00  0.00     0.087 C 
HETATM   10  C   UNK N   1      31.253   8.669  20.095  0.00  0.00     0.048 C 
BRANCH   9  11
HETATM   11  C   UNK N   1      32.326   9.102  22.841  0.00  0.00     0.165 C 
HETATM   12  O   UNK N   1      31.761   8.209  23.451  0.00  0.00    -0.647 OA
BRANCH  11  13
HETATM   13  O   UNK N   1      32.183  10.375  23.251  0.00  0.00    -0.773 OA
HETATM   14  H   UNK N   1      32.687  10.694  23.974  0.00  0.00     0.167 HD
ENDBRANCH  11  13
ENDBRANCH   9  11
ENDBRANCH   7   8
ENDBRANCH   4   6
ENDBRANCH   2   3
BRANCH   1  15
HETATM   15  C   UNK N   1      35.284  12.698  14.986  0.00  0.00    -0.024 A 
HETATM   16  C   UNK N   1      34.677  11.850  14.014  0.00  0.00    -0.043 A 
HETATM   17  C   UNK N   1      35.016  11.983  12.646  0.00  0.00    -0.022 A 
HETATM   18  C   UNK N   1      33.673  10.806  14.407  0.00  0.00     0.049 C 
HETATM   19  C   UNK N   1      35.964  12.965  12.244  0.00  0.00     0.075 A 
HETATM   20  C   UNK N   1      34.357  11.074  11.651  0.00  0.00     0.052 C 
HETATM   21  C   UNK N   1      36.542  13.780  13.213  0.00  0.00     0.044 A 
HETATM   22  C   UNK N   1      36.218  13.659  14.560  0.00  0.00    -0.049 A 
HETATM   23  C   UNK N   1      36.889  14.577  15.530  0.00  0.00     0.049 C 
BRANCH  19  24
HETATM   24  O   UNK N   1      36.360  13.176  10.958  0.00  0.00    -0.355 OA
HETATM   25  C   UNK N   1      37.612  12.955  10.432  0.00  0.00     0.210 C 
ENDBRANCH  19  24
ENDBRANCH   1  15
TORSDOF 7
ENDMDL
MODEL 4
REMARK VINA RESULT:      -6.2      5.819      7.628
REMARK  7 active torsions:
REMARK  status: ('A' for Active; 'I' for Inactive)
REMARK    1  A    between atoms: C_3  and  O_17 
REMARK    2  A    between atoms: C_6  and  C_11 
REMARK    3  A    between atoms: C_12  and  C_21 
REMARK    4  A    between atoms: C_13  and  C_14 
REMARK    5  A    between atoms: C_15  and  C_23 
REMARK    6  A    between atoms: C_16  and  C_19 
REMARK    7  A    between atoms: C_19  and  O_20 
ROOT
HETATM    1  C   UNK N   1      23.073  15.069   5.797  0.00  0.00     0.013 C 
HETATM    2  C   UNK N   1      22.834  14.440   4.647  0.00  0.00     0.007 C 
ENDROOT
BRANCH   2   3
HETATM    3  C   UNK N   1      23.019  15.039   3.305  0.00  0.00    -0.062 C 
HETATM    4  C   UNK N   1      22.052  15.594   2.558  0.00  0.00     0.007 C 
HETATM    5  C   UNK N   1      24.393  15.024   2.735  0.00  0.00     0.048 C 
BRANCH   4   6
HETATM    6  C   UNK N   1      20.623  15.727   2.901  0.00  0.00     0.001 C 
HETATM    7  C   UNK N   1      20.090  16.875   3.363  0.00  0.00     0.007 C 
BRANCH   7   8
HETATM    8  C   UNK N   1      20.815  18.157   3.600  0.00  0.00    -0.056 C 
HETATM    9  C   UNK N   1      20.856  19.054   2.598  0.00  0.00     0.087 C 
HETATM   10  C   UNK N   1      21.484  18.448   4.913  0.00  0.00     0.048 C 
BRANCH   9  11
HETATM   11  C   UNK N   1      21.527  20.381   2.646  0.00  0.00     0.165 C 
HETATM   12  O   UNK N   1      22.678  20.527   2.266  0.00  0.00    -0.647 OA
BRANCH  11  13
HETATM   13  O   UNK N   1      20.849  21.442   3.119  0.00  0.00    -0.773 OA
HETATM   14  H   UNK N   1      20.805  22.231   2.618  0.00  0.00     0.167 HD
ENDBRANCH  11  13
ENDBRANCH   9  11
ENDBRANCH   7   8
ENDBRANCH   4   6
ENDBRANCH   2   3
BRANCH   1  15
HETATM   15  C   UNK N   1      22.889  14.474   7.154  0.00  0.00    -0.024 A 
HETATM   16  C   UNK N   1      21.654  14.492   7.866  0.00  0.00    -0.043 A 
HETATM   17  C   UNK N   1      21.567  13.903   9.150  0.00  0.00    -0.022 A 
HETATM   18  C   UNK N   1      20.425  15.127   7.283  0.00  0.00     0.049 C 
HETATM   19  C   UNK N   1      22.716  13.292   9.728  0.00  0.00     0.075 A 
HETATM   20  C   UNK N   1      20.252  13.940   9.871  0.00  0.00     0.052 C 
HETATM   21  C   UNK N   1      23.909  13.288   9.011  0.00  0.00     0.044 A 
HETATM   22  C   UNK N   1      24.007  13.865   7.750  0.00  0.00    -0.049 A 
HETATM   23  C   UNK N   1      25.329  13.814   7.054  0.00  0.00     0.049 C 
BRANCH  19  24
HETATM   24  O   UNK N   1      22.741  12.698  10.954  0.00  0.00    -0.355 OA
HETATM   25  C   UNK N   1      23.751  11.926  11.477  0.00  0.00     0.210 C 
ENDBRANCH  19  24
ENDBRANCH   1  15
TORSDOF 7
ENDMDL
MODEL 5
REMARK VINA RESULT:      -6.2      0.812      2.160
REMARK  7 active torsions:
REMARK  status: ('A' for Active; 'I' for Inactive)
REMARK    1  A    between atoms: C_3  and  O_17 
REMARK    2  A    between atoms: C_6  and  C_11 
REMARK    3  A    between atoms: C_12  and  C_21 
REMARK    4  A    between atoms: C_13  and  C_14 
REMARK    5  A    between atoms: C_15  and  C_23 
REMARK    6  A    between atoms: C_16  and  C_19 
REMARK    7  A    between atoms: C_19  and  O_20 
ROOT
HETATM    1  C   UNK N   1      27.982  18.579   6.312  0.00  0.00     0.013 C 
HETATM    2  C   UNK N   1      27.971  19.867   5.966  0.00  0.00     0.007 C 
ENDROOT
BRANCH   2   3
HETATM    3  C   UNK N   1      26.759  20.718   5.928  0.00  0.00    -0.062 C 
HETATM    4  C   UNK N   1      25.927  20.844   4.883  0.00  0.00     0.007 C 
HETATM    5  C   UNK N   1      26.437  21.500   7.151  0.00  0.00     0.048 C 
BRANCH   4   6
HETATM    6  C   UNK N   1      26.032  20.178   3.571  0.00  0.00     0.001 C 
HETATM    7  C   UNK N   1      25.393  19.025   3.287  0.00  0.00     0.007 C 
BRANCH   7   8
HETATM    8  C   UNK N   1      24.508  18.253   4.206  0.00  0.00    -0.056 C 
HETATM    9  C   UNK N   1      23.233  18.659   4.344  0.00  0.00     0.087 C 
HETATM   10  C   UNK N   1      25.015  17.057   4.960  0.00  0.00     0.048 C 
BRANCH   9  11
HETATM   11  C   UNK N   1      22.206  18.019   5.209  0.00  0.00     0.165 C 
HETATM   12  O   UNK N   1      21.441  17.174   4.773  0.00  0.00    -0.647 OA
BRANCH  11  13
HETATM   13  O   UNK N   1      22.120  18.382   6.501  0.00  0.00    -0.773 OA
HETATM   14  H   UNK N   1      22.228  17.742   7.177  0.00  0.00     0.167 HD
ENDBRANCH  11  13
ENDBRANCH   9  11
ENDBRANCH   7   8
ENDBRANCH   4   6
ENDBRANCH   2   3
BRANCH   1  15
HETATM   15  C   UNK N   1      29.198  17.714   6.352  0.00  0.00    -0.024 A 
HETATM   16  C   UNK N   1      30.030  17.568   7.500  0.00  0.00    -0.043 A 
HETATM   17  C   UNK N   1      31.166  16.725   7.450  0.00  0.00    -0.022 A 
HETATM   18  C   UNK N   1      29.731  18.296   8.778  0.00  0.00     0.049 C 
HETATM   19  C   UNK N   1      31.474  16.022   6.251  0.00  0.00     0.075 A 
HETATM   20  C   UNK N   1      32.020  16.596   8.677  0.00  0.00     0.052 C 
HETATM   21  C   UNK N   1      30.644  16.182   5.145  0.00  0.00     0.044 A 
HETATM   22  C   UNK N   1      29.527  17.008   5.181  0.00  0.00    -0.049 A 
HETATM   23  C   UNK N   1      28.694  17.119   3.945  0.00  0.00     0.049 C 
BRANCH  19  24
HETATM   24  O   UNK N   1      32.540  15.188   6.097  0.00  0.00    -0.355 OA
HETATM   25  C   UNK N   1      33.737  15.482   5.487  0.00  0.00     0.210 C 
ENDBRANCH  19  24
ENDBRANCH   1  15
TORSDOF 7
ENDMDL
MODEL 6
REMARK VINA RESULT:      -6.2      9.666     14.129
REMARK  7 active torsions:
REMARK  status: ('A' for Active; 'I' for Inactive)
REMARK    1  A    between atoms: C_3  and  O_17 
REMARK    2  A    between atoms: C_6  and  C_11 
REMARK    3  A    between atoms: C_12  and  C_21 
REMARK    4  A    between atoms: C_13  and  C_14 
REMARK    5  A    between atoms: C_15  and  C_23 
REMARK    6  A    between atoms: C_16  and  C_19 
REMARK    7  A    between atoms: C_19  and  O_20 
ROOT
HETATM    1  C   UNK N   1      34.733  10.428  14.919  0.00  0.00     0.013 C 
HETATM    2  C   UNK N   1      35.518  10.739  13.888  0.00  0.00     0.007 C 
ENDROOT
BRANCH   2   3
HETATM    3  C   UNK N   1      35.132  10.603  12.464  0.00  0.00    -0.062 C 
HETATM    4  C   UNK N   1      35.890  10.955  11.413  0.00  0.00     0.007 C 
HETATM    5  C   UNK N   1      33.792  10.028  12.172  0.00  0.00     0.048 C 
BRANCH   4   6
HETATM    6  C   UNK N   1      37.243  11.542  11.444  0.00  0.00     0.001 C 
HETATM    7  C   UNK N   1      37.465  12.847  11.695  0.00  0.00     0.007 C 
BRANCH   7   8
HETATM    8  C   UNK N   1      36.430  13.884  11.973  0.00  0.00    -0.056 C 
HETATM    9  C   UNK N   1      35.849  14.494  10.924  0.00  0.00     0.087 C 
HETATM   10  C   UNK N   1      36.040  14.244  13.378  0.00  0.00     0.048 C 
BRANCH   9  11
HETATM   11  C   UNK N   1      34.801  15.547  11.002  0.00  0.00     0.165 C 
HETATM   12  O   UNK N   1      35.079  16.732  10.902  0.00  0.00    -0.647 OA
BRANCH  11  13
HETATM   13  O   UNK N   1      33.519  15.185  11.187  0.00  0.00    -0.773 OA
HETATM   14  H   UNK N   1      32.922  15.772  11.606  0.00  0.00     0.167 HD
ENDBRANCH  11  13
ENDBRANCH   9  11
ENDBRANCH   7   8
ENDBRANCH   4   6
ENDBRANCH   2   3
BRANCH   1  15
HETATM   15  C   UNK N   1      35.114  10.561  16.356  0.00  0.00    -0.024 A 
HETATM   16  C   UNK N   1      35.011  11.776  17.095  0.00  0.00    -0.043 A 
HETATM   17  C   UNK N   1      35.395  11.813  18.457  0.00  0.00    -0.022 A 
HETATM   18  C   UNK N   1      34.498  13.035  16.459  0.00  0.00     0.049 C 
HETATM   19  C   UNK N   1      35.884  10.634  19.086  0.00  0.00     0.075 A 
HETATM   20  C   UNK N   1      35.273  13.109  19.203  0.00  0.00     0.052 C 
HETATM   21  C   UNK N   1      35.975   9.461  18.343  0.00  0.00     0.044 A 
HETATM   22  C   UNK N   1      35.602   9.412  17.004  0.00  0.00    -0.049 A 
HETATM   23  C   UNK N   1      35.734   8.109  16.284  0.00  0.00     0.049 C 
BRANCH  19  24
HETATM   24  O   UNK N   1      36.280  10.561  20.388  0.00  0.00    -0.355 OA
HETATM   25  C   UNK N   1      36.117   9.495  21.242  0.00  0.00     0.210 C 
ENDBRANCH  19  24
ENDBRANCH   1  15
TORSDOF 7
ENDMDL
MODEL 7
REMARK VINA RESULT:      -6.2      2.299      3.511
REMARK  7 active torsions:
REMARK  status: ('A' for Active; 'I' for Inactive)
REMARK    1  A    between atoms: C_3  and  O_17 
REMARK    2  A    between atoms: C_6  and  C_11 
REMARK    3  A    between atoms: C_12  and  C_21 
REMARK    4  A    between atoms: C_13  and  C_14 
REMARK    5  A    between atoms: C_15  and  C_23 
REMARK    6  A    between atoms: C_16  and  C_19 
REMARK    7  A    between atoms: C_19  and  O_20 
ROOT
HETATM    1  C   UNK N   1      28.538  16.830   6.427  0.00  0.00     0.013 C 
HETATM    2  C   UNK N   1      27.973  15.680   6.059  0.00  0.00     0.007 C 
ENDROOT
BRANCH   2   3
HETATM    3  C   UNK N   1      26.512  15.435   6.019  0.00  0.00    -0.062 C 
HETATM    4  C   UNK N   1      25.715  15.645   4.960  0.00  0.00     0.007 C 
HETATM    5  C   UNK N   1      25.874  14.910   7.255  0.00  0.00     0.048 C 
BRANCH   4   6
HETATM    6  C   UNK N   1      26.109  16.156   3.632  0.00  0.00     0.001 C 
HETATM    7  C   UNK N   1      26.205  17.472   3.359  0.00  0.00     0.007 C 
BRANCH   7   8
HETATM    8  C   UNK N   1      25.943  18.595   4.304  0.00  0.00    -0.056 C 
HETATM    9  C   UNK N   1      27.001  19.200   4.875  0.00  0.00     0.087 C 
HETATM   10  C   UNK N   1      24.545  19.046   4.617  0.00  0.00     0.048 C 
BRANCH   9  11
HETATM   11  C   UNK N   1      26.940  20.332   5.838  0.00  0.00     0.165 C 
HETATM   12  O   UNK N   1      27.034  21.491   5.467  0.00  0.00    -0.647 OA
BRANCH  11  13
HETATM   13  O   UNK N   1      26.777  20.071   7.147  0.00  0.00    -0.773 OA
HETATM   14  H   UNK N   1      25.919  19.923   7.493  0.00  0.00     0.167 HD
ENDBRANCH  11  13
ENDBRANCH   9  11
ENDBRANCH   7   8
ENDBRANCH   4   6
ENDBRANCH   2   3
BRANCH   1  15
HETATM   15  C   UNK N   1      30.008  17.085   6.471  0.00  0.00    -0.024 A 
HETATM   16  C   UNK N   1      30.846  17.101   5.318  0.00  0.00    -0.043 A 
HETATM   17  C   UNK N   1      32.233  17.352   5.451  0.00  0.00    -0.022 A 
HETATM   18  C   UNK N   1      30.290  16.855   3.946  0.00  0.00     0.049 C 
HETATM   19  C   UNK N   1      32.788  17.589   6.741  0.00  0.00     0.075 A 
HETATM   20  C   UNK N   1      33.084  17.360   4.217  0.00  0.00     0.052 C 
HETATM   21  C   UNK N   1      31.948  17.569   7.850  0.00  0.00     0.044 A 
HETATM   22  C   UNK N   1      30.584  17.322   7.732  0.00  0.00    -0.049 A 
HETATM   23  C   UNK N   1      29.760  17.319   8.978  0.00  0.00     0.049 C 
BRANCH  19  24
HETATM   24  O   UNK N   1      34.105  17.840   6.980  0.00  0.00    -0.355 OA
HETATM   25  C   UNK N   1      34.667  18.239   8.170  0.00  0.00     0.210 C 
ENDBRANCH  19  24
ENDBRANCH   1  15
TORSDOF 7
ENDMDL
MODEL 8
REMARK VINA RESULT:      -6.1     11.849     16.917
REMARK  7 active torsions:
REMARK  status: ('A' for Active; 'I' for Inactive)
REMARK    1  A    between atoms: C_3  and  O_17 
REMARK    2  A    between atoms: C_6  and  C_11 
REMARK    3  A    between atoms: C_12  and  C_21 
REMARK    4  A    between atoms: C_13  and  C_14 
REMARK    5  A    between atoms: C_15  and  C_23 
REMARK    6  A    between atoms: C_16  and  C_19 
REMARK    7  A    between atoms: C_19  and  O_20 
ROOT
HETATM    1  C   UNK N   1      35.632  10.909  18.953  0.00  0.00     0.013 C 
HETATM    2  C   UNK N   1      34.741  10.433  19.822  0.00  0.00     0.007 C 
ENDROOT
BRANCH   2   3
HETATM    3  C   UNK N   1      35.053  10.034  21.214  0.00  0.00    -0.062 C 
HETATM    4  C   UNK N   1      34.177   9.997  22.230  0.00  0.00     0.007 C 
HETATM    5  C   UNK N   1      36.456   9.641  21.513  0.00  0.00     0.048 C 
BRANCH   4   6
HETATM    6  C   UNK N   1      32.742  10.337  22.186  0.00  0.00     0.001 C 
HETATM    7  C   UNK N   1      31.798   9.459  21.795  0.00  0.00     0.007 C 
BRANCH   7   8
HETATM    8  C   UNK N   1      32.024   8.052  21.356  0.00  0.00    -0.056 C 
HETATM    9  C   UNK N   1      32.190   7.819  20.042  0.00  0.00     0.087 C 
HETATM   10  C   UNK N   1      32.068   6.921  22.344  0.00  0.00     0.048 C 
BRANCH   9  11
HETATM   11  C   UNK N   1      32.426   6.489  19.417  0.00  0.00     0.165 C 
HETATM   12  O   UNK N   1      33.554   6.075  19.206  0.00  0.00    -0.647 OA
BRANCH  11  13
HETATM   13  O   UNK N   1      31.370   5.728  19.079  0.00  0.00    -0.773 OA
HETATM   14  H   UNK N   1      31.309   4.846  19.389  0.00  0.00     0.167 HD
ENDBRANCH  11  13
ENDBRANCH   9  11
ENDBRANCH   7   8
ENDBRANCH   4   6
ENDBRANCH   2   3
BRANCH   1  15
HETATM   15  C   UNK N   1      35.326  11.312  17.548  0.00  0.00    -0.024 A 
HETATM   16  C   UNK N   1      35.222  10.393  16.464  0.00  0.00    -0.043 A 
HETATM   17  C   UNK N   1      34.928  10.862  15.161  0.00  0.00    -0.022 A 
HETATM   18  C   UNK N   1      35.419   8.919  16.668  0.00  0.00     0.049 C 
HETATM   19  C   UNK N   1      34.736  12.254  14.937  0.00  0.00     0.075 A 
HETATM   20  C   UNK N   1      34.827   9.866  14.044  0.00  0.00     0.052 C 
HETATM   21  C   UNK N   1      34.842  13.130  16.013  0.00  0.00     0.044 A 
HETATM   22  C   UNK N   1      35.131  12.682  17.297  0.00  0.00    -0.049 A 
HETATM   23  C   UNK N   1      35.227  13.695  18.391  0.00  0.00     0.049 C 
BRANCH  19  24
HETATM   24  O   UNK N   1      34.450  12.810  13.727  0.00  0.00    -0.355 OA
HETATM   25  C   UNK N   1      35.335  13.417  12.867  0.00  0.00     0.210 C 
ENDBRANCH  19  24
ENDBRANCH   1  15
TORSDOF 7
ENDMDL
MODEL 9
REMARK VINA RESULT:      -6.1      6.022      7.899
REMARK  7 active torsions:
REMARK  status: ('A' for Active; 'I' for Inactive)
REMARK    1  A    between atoms: C_3  and  O_17 
REMARK    2  A    between atoms: C_6  and  C_11 
REMARK    3  A    between atoms: C_12  and  C_21 
REMARK    4  A    between atoms: C_13  and  C_14 
REMARK    5  A    between atoms: C_15  and  C_23 
REMARK    6  A    between atoms: C_16  and  C_19 
REMARK    7  A    between atoms: C_19  and  O_20 
ROOT
HETATM    1  C   UNK N   1      22.717  15.030   5.876  0.00  0.00     0.013 C 
HETATM    2  C   UNK N   1      22.461  14.396   4.732  0.00  0.00     0.007 C 
ENDROOT
BRANCH   2   3
HETATM    3  C   UNK N   1      22.569  15.009   3.388  0.00  0.00    -0.062 C 
HETATM    4  C   UNK N   1      21.652  15.805   2.817  0.00  0.00     0.007 C 
HETATM    5  C   UNK N   1      23.799  14.718   2.603  0.00  0.00     0.048 C 
BRANCH   4   6
HETATM    6  C   UNK N   1      20.362  16.236   3.389  0.00  0.00     0.001 C 
HETATM    7  C   UNK N   1      19.983  17.528   3.437  0.00  0.00     0.007 C 
BRANCH   7   8
HETATM    8  C   UNK N   1      20.765  18.699   2.945  0.00  0.00    -0.056 C 
HETATM    9  C   UNK N   1      20.266  19.403   1.913  0.00  0.00     0.087 C 
HETATM   10  C   UNK N   1      22.070  19.091   3.576  0.00  0.00     0.048 C 
BRANCH   9  11
HETATM   11  C   UNK N   1      20.897  20.596   1.288  0.00  0.00     0.165 C 
HETATM   12  O   UNK N   1      21.290  20.577   0.132  0.00  0.00    -0.647 OA
BRANCH  11  13
HETATM   13  O   UNK N   1      21.037  21.719   2.013  0.00  0.00    -0.773 OA
HETATM   14  H   UNK N   1      20.331  22.331   2.072  0.00  0.00     0.167 HD
ENDBRANCH  11  13
ENDBRANCH   9  11
ENDBRANCH   7   8
ENDBRANCH   4   6
ENDBRANCH   2   3
BRANCH   1  15
HETATM   15  C   UNK N   1      22.610  14.421   7.235  0.00  0.00    -0.024 A 
HETATM   16  C   UNK N   1      23.698  13.800   7.914  0.00  0.00    -0.043 A 
HETATM   17  C   UNK N   1      23.508  13.247   9.203  0.00  0.00    -0.022 A 
HETATM   18  C   UNK N   1      25.061  13.716   7.291  0.00  0.00     0.049 C 
HETATM   19  C   UNK N   1      22.226  13.313   9.819  0.00  0.00     0.075 A 
HETATM   20  C   UNK N   1      24.676  12.601   9.889  0.00  0.00     0.052 C 
HETATM   21  C   UNK N   1      21.180  13.925   9.134  0.00  0.00     0.044 A 
HETATM   22  C   UNK N   1      21.355  14.471   7.868  0.00  0.00    -0.049 A 
HETATM   23  C   UNK N   1      20.175  15.108   7.208  0.00  0.00     0.049 C 
BRANCH  19  24
HETATM   24  O   UNK N   1      21.936  12.814  11.053  0.00  0.00    -0.355 OA
HETATM   25  C   UNK N   1      20.745  12.257  11.459  0.00  0.00     0.210 C 
ENDBRANCH  19  24
ENDBRANCH   1  15
TORSDOF 7
ENDMDL
