REMARK  23 active torsions:
REMARK  status: ('A' for Active; 'I' for Inactive)
REMARK    1  A    between atoms: C_17  and  C_1 
REMARK    2  A    between atoms: C_2  and  C_8 
REMARK       I    between atoms: N_7  and  C_2 
REMARK    3  A    between atoms: C_3  and  C_12 
REMARK       I    between atoms: N_10  and  C_3 
REMARK    4  A    between atoms: C_4  and  C_20 
REMARK       I    between atoms: N_6  and  C_4 
REMARK    5  A    between atoms: C_8  and  N_6 
REMARK    6  A    between atoms: C_14  and  N_7 
REMARK    7  A    between atoms: C_8  and  C_11 
REMARK    8  A    between atoms: C_20  and  N_10 
REMARK    9  A    between atoms: C_21  and  C_11 
REMARK   10  A    between atoms: C_12  and  C_17 
REMARK   11  A    between atoms: N_18  and  C_12 
REMARK       I    between atoms: C_13  and  N_33 
REMARK   12  A    between atoms: O_23  and  C_13 
REMARK   13  A    between atoms: C_15  and  C_14 
REMARK   14  A    between atoms: C_14  and  C_28 
REMARK       I    between atoms: N_35  and  C_15 
REMARK       I    between atoms: C_19  and  N_18 
REMARK   15  A    between atoms: C_27  and  C_19 
REMARK   16  A    between atoms: C_20  and  C_37 
REMARK   17  A    between atoms: O_38  and  C_21 
REMARK   18  A    between atoms: C_34  and  O_23 
REMARK   19  A    between atoms: C_36  and  C_27 
REMARK   20  A    between atoms: C_39  and  C_28 
REMARK   21  A    between atoms: N_33  and  C_36 
REMARK   22  A    between atoms: C_42  and  C_37 
REMARK   23  A    between atoms: S_40  and  C_42 
ROOT
HETATM    1  C   UNK N   1       0.117  -1.025  -0.302  0.00  0.00     0.177 C 
ENDROOT
BRANCH   1   2
HETATM    2  C   UNK N   1       0.352   0.398   0.023  0.00  0.00     0.241 C 
HETATM    3  N   UNK N   1       1.018   1.095  -0.928  0.00  0.00    -0.346 N 
HETATM    4  H   UNK N   1       0.888   0.815  -1.864  0.00  0.00     0.163 HD
HETATM    5  O   UNK N   1       0.244   0.815   1.168  0.00  0.00    -0.271 OA
BRANCH   3   6
HETATM    6  C   UNK N   1       1.899   2.208  -0.692  0.00  0.00     0.186 C 
BRANCH   6   7
HETATM    7  C   UNK N   1       3.204   1.756  -0.095  0.00  0.00     0.241 C 
HETATM    8  N   UNK N   1       3.510   2.107   1.177  0.00  0.00    -0.346 N 
HETATM    9  H   UNK N   1       2.769   2.385   1.764  0.00  0.00     0.163 HD
HETATM   10  O   UNK N   1       4.015   1.170  -0.795  0.00  0.00    -0.271 OA
BRANCH   8  11
HETATM   11  C   UNK N   1       4.841   2.103   1.739  0.00  0.00     0.180 C 
BRANCH  11  12
HETATM   12  C   UNK N   1       5.669   3.205   1.149  0.00  0.00     0.238 C 
HETATM   13  O   UNK N   1       5.745   4.268   1.740  0.00  0.00    -0.271 OA
HETATM   14  N   UNK N   1       6.191   3.094  -0.087  0.00  0.00    -0.368 N 
HETATM   15  H   UNK N   1       6.312   2.723  -0.991  0.00  0.00     0.159 HD
HETATM   16  H   UNK N   1       6.850   3.825  -0.087  0.00  0.00     0.159 HD
ENDBRANCH  11  12
BRANCH  11  17
HETATM   17  C   UNK N   1       5.496   0.752   2.104  0.00  0.00     0.073 C 
BRANCH  17  18
HETATM   18  C   UNK N   1       6.150  -0.085   1.041  0.00  0.00    -0.056 A 
HETATM   19  C   UNK N   1       7.189   0.424   0.250  0.00  0.00     0.007 A 
HETATM   20  C   UNK N   1       7.840  -0.395  -0.678  0.00  0.00     0.001 A 
HETATM   21  C   UNK N   1       7.477  -1.739  -0.797  0.00  0.00     0.000 A 
HETATM   22  C   UNK N   1       6.461  -2.261   0.008  0.00  0.00     0.001 A 
HETATM   23  C   UNK N   1       5.800  -1.436   0.925  0.00  0.00     0.007 A 
ENDBRANCH  17  18
ENDBRANCH  11  17
ENDBRANCH   8  11
ENDBRANCH   6   7
BRANCH   6  24
HETATM   24  C   UNK N   1       1.278   3.387   0.028  0.00  0.00     0.144 C 
BRANCH  24  25
HETATM   25  C   UNK N   1       1.606   4.641  -0.715  0.00  0.00     0.141 C 
HETATM   26  O   UNK N   1       1.103   4.851  -1.807  0.00  0.00    -0.650 OA
BRANCH  25  27
HETATM   27  O   UNK N   1       2.455   5.540  -0.184  0.00  0.00    -0.776 OA
HETATM   28  H   UNK N   1       3.293   5.341   0.186  0.00  0.00     0.167 HD
ENDBRANCH  25  27
ENDBRANCH  24  25
ENDBRANCH   6  24
ENDBRANCH   3   6
ENDBRANCH   1   2
BRANCH   1  29
HETATM   29  N   UNK N   1      -1.169  -1.689  -0.291  0.00  0.00    -0.346 N 
HETATM   30  C   UNK N   1      -2.378  -1.314  -0.782  0.00  0.00     0.241 C 
HETATM   31  O   UNK N   1      -3.077  -2.191  -1.251  0.00  0.00    -0.271 OA
HETATM   32  H   UNK N   1      -1.167  -2.569   0.151  0.00  0.00     0.163 HD
BRANCH  30  33
HETATM   33  C   UNK N   1      -3.022   0.041  -0.609  0.00  0.00     0.180 C 
BRANCH  33  34
HETATM   34  C   UNK N   1      -2.286   1.281  -1.096  0.00  0.00     0.075 C 
BRANCH  34  35
HETATM   35  C   UNK N   1      -3.091   2.523  -0.833  0.00  0.00    -0.028 A 
HETATM   36  C   UNK N   1      -4.380   2.806  -1.283  0.00  0.00     0.096 A 
HETATM   37  N   UNK N   1      -4.764   4.026  -0.822  0.00  0.00    -0.365 N 
HETATM   38  C   UNK N   1      -3.729   4.496  -0.104  0.00  0.00     0.042 A 
HETATM   39  H   UNK N   1      -5.626   4.474  -0.983  0.00  0.00     0.165 HD
HETATM   40  C   UNK N   1      -2.699   3.603  -0.088  0.00  0.00    -0.002 A 
HETATM   41  C   UNK N   1      -3.648   5.722   0.554  0.00  0.00     0.030 A 
HETATM   42  C   UNK N   1      -1.519   3.859   0.592  0.00  0.00     0.014 A 
HETATM   43  C   UNK N   1      -1.393   5.089   1.260  0.00  0.00     0.001 A 
HETATM   44  C   UNK N   1      -2.455   6.019   1.241  0.00  0.00     0.002 A 
ENDBRANCH  34  35
ENDBRANCH  33  34
BRANCH  33  45
HETATM   45  N   UNK N   1      -3.555   0.160   0.729  0.00  0.00    -0.347 N 
HETATM   46  C   UNK N   1      -4.892   0.211   0.991  0.00  0.00     0.219 C 
HETATM   47  O   UNK N   1      -5.266   0.240   2.152  0.00  0.00    -0.274 OA
HETATM   48  H   UNK N   1      -2.926   0.207   1.485  0.00  0.00     0.163 HD
BRANCH  46  49
HETATM   49  C   UNK N   1      -5.944   0.276  -0.096  0.00  0.00     0.122 C 
BRANCH  49  50
HETATM   50  C   UNK N   1      -5.898  -0.816  -1.166  0.00  0.00     0.134 C 
BRANCH  50  51
HETATM   51  N   UNK N   1      -5.631  -2.127  -0.621  0.00  0.00    -0.336 N 
HETATM   52  C   UNK N   1      -6.544  -2.863   0.059  0.00  0.00     0.361 C 
HETATM   53  O   UNK N   1      -7.664  -2.430   0.252  0.00  0.00    -0.238 OA
HETATM   54  H   UNK N   1      -4.733  -2.509  -0.752  0.00  0.00     0.164 HD
BRANCH  52  55
HETATM   55  O   UNK N   1      -6.215  -4.107   0.517  0.00  0.00    -0.294 OA
BRANCH  55  56
HETATM   56  C   UNK N   1      -4.976  -4.719   0.394  0.00  0.00     0.061 C 
HETATM   57  C   UNK N   1      -3.905  -3.935   1.138  0.00  0.00     0.046 C 
HETATM   58  C   UNK N   1      -4.580  -4.883  -1.066  0.00  0.00     0.046 C 
HETATM   59  C   UNK N   1      -5.055  -6.099   1.010  0.00  0.00     0.046 C 
ENDBRANCH  55  56
ENDBRANCH  52  55
ENDBRANCH  50  51
ENDBRANCH  49  50
ENDBRANCH  46  49
ENDBRANCH  33  45
ENDBRANCH  30  33
ENDBRANCH   1  29
BRANCH   1  60
HETATM   60  C   UNK N   1       1.174  -1.865   0.384  0.00  0.00     0.045 C 
BRANCH  60  61
HETATM   61  C   UNK N   1       1.500  -3.082  -0.452  0.00  0.00     0.076 C 
BRANCH  61  62
HETATM   62  S   UNK N   1       0.719  -4.536   0.289  0.00  0.00    -0.173 SA
HETATM   63  C   UNK N   1       2.161  -4.827   1.351  0.00  0.00     0.089 C 
ENDBRANCH  61  62
ENDBRANCH  60  61
ENDBRANCH   1  60
TORSDOF 23
