MODEL 1
REMARK VINA RESULT:      -7.0      0.000      0.000
REMARK  5 active torsions:
REMARK  status: ('A' for Active; 'I' for Inactive)
REMARK    1  A    between atoms: C_4  and  C_5 
REMARK    2  A    between atoms: S_11  and  C_5 
REMARK    3  A    between atoms: C_8  and  O_9 
REMARK    4  A    between atoms: S_11  and  C_12 
REMARK    5  A    between atoms: C_21  and  O_22 
ROOT
HETATM    1  O   UNK N   1      36.748  14.155  14.888  0.00  0.00    -0.249 OA
HETATM    2  S   UNK N   1      36.493  12.927  14.002  0.00  0.00     0.090 S 
ENDROOT
BRANCH   2   3
HETATM    3  C   UNK N   1      35.858  13.881  12.624  0.00  0.00     0.176 A 
HETATM    4  N   UNK N   1      34.796  13.497  11.869  0.00  0.00    -0.333 N 
HETATM    5  C   UNK N   1      34.622  14.519  11.023  0.00  0.00     0.061 A 
HETATM    6  H   UNK N   1      34.277  12.663  11.930  0.00  0.00     0.168 HD
HETATM    7  C   UNK N   1      33.644  14.659  10.045  0.00  0.00     0.035 A 
HETATM    8  C   UNK N   1      35.549  15.483  11.265  0.00  0.00     0.063 A 
HETATM    9  C   UNK N   1      33.633  15.858   9.310  0.00  0.00     0.039 A 
HETATM   10  C   UNK N   1      34.595  16.877   9.566  0.00  0.00     0.070 A 
HETATM   11  C   UNK N   1      35.578  16.679  10.557  0.00  0.00     0.068 A 
HETATM   12  N   UNK N   1      36.344  15.100  12.276  0.00  0.00    -0.333 N 
ATOM     13  HN  UNK N   1      37.128  15.607  12.687  1.00  0.00     0.168 HD
BRANCH  10  14
HETATM   14  O   UNK N   1      34.572  18.051   8.892  0.00  0.00    -0.356 OA
HETATM   15  C   UNK N   1      33.599  18.371   7.972  0.00  0.00     0.210 C 
ENDBRANCH  10  14
ENDBRANCH   2   3
BRANCH   2  16
HETATM   16  C   UNK N   1      34.834  12.694  14.690  0.00  0.00     0.175 C 
BRANCH  16  17
HETATM   17  C   UNK N   1      34.967  12.333  16.127  0.00  0.00     0.029 A 
HETATM   18  C   UNK N   1      34.985  10.989  16.534  0.00  0.00    -0.005 A 
HETATM   19  C   UNK N   1      35.139  10.673  17.894  0.00  0.00     0.083 A 
HETATM   20  C   UNK N   1      34.857   9.891  15.521  0.00  0.00     0.053 C 
HETATM   21  C   UNK N   1      35.270  11.741  18.828  0.00  0.00    -0.013 A 
HETATM   22  C   UNK N   1      35.241  13.056  18.367  0.00  0.00     0.097 A 
HETATM   23  C   UNK N   1      35.445  11.536  20.294  0.00  0.00     0.052 C 
HETATM   24  N   UNK N   1      35.096  13.324  17.046  0.00  0.00    -0.367 N 
ATOM     25  HN  UNK N   1      35.082  14.296  16.735  1.00  0.00     0.165 HD
BRANCH  19  26
HETATM   26  O   UNK N   1      35.157   9.355  18.241  0.00  0.00    -0.355 OA
HETATM   27  C   UNK N   1      34.127   8.641  18.808  0.00  0.00     0.210 C 
ENDBRANCH  19  26
ENDBRANCH  16  17
ENDBRANCH   2  16
TORSDOF 5
ENDMDL
MODEL 2
REMARK VINA RESULT:      -6.9      0.977      1.907
REMARK  5 active torsions:
REMARK  status: ('A' for Active; 'I' for Inactive)
REMARK    1  A    between atoms: C_4  and  C_5 
REMARK    2  A    between atoms: S_11  and  C_5 
REMARK    3  A    between atoms: C_8  and  O_9 
REMARK    4  A    between atoms: S_11  and  C_12 
REMARK    5  A    between atoms: C_21  and  O_22 
ROOT
HETATM    1  O   UNK N   1      36.974  14.621  15.212  0.00  0.00    -0.249 OA
HETATM    2  S   UNK N   1      36.706  13.302  14.473  0.00  0.00     0.090 S 
ENDROOT
BRANCH   2   3
HETATM    3  C   UNK N   1      36.048  14.097  13.007  0.00  0.00     0.176 A 
HETATM    4  N   UNK N   1      35.075  13.555  12.230  0.00  0.00    -0.333 N 
HETATM    5  C   UNK N   1      34.839  14.498  11.311  0.00  0.00     0.061 A 
HETATM    6  H   UNK N   1      34.644  12.674  12.322  0.00  0.00     0.168 HD
HETATM    7  C   UNK N   1      33.906  14.472  10.282  0.00  0.00     0.035 A 
HETATM    8  C   UNK N   1      35.646  15.571  11.532  0.00  0.00     0.063 A 
HETATM    9  C   UNK N   1      33.808  15.616   9.470  0.00  0.00     0.039 A 
HETATM   10  C   UNK N   1      34.642  16.748   9.702  0.00  0.00     0.070 A 
HETATM   11  C   UNK N   1      35.587  16.717  10.750  0.00  0.00     0.068 A 
HETATM   12  N   UNK N   1      36.421  15.338  12.602  0.00  0.00    -0.333 N 
ATOM     13  HN  UNK N   1      37.124  15.950  13.015  1.00  0.00     0.168 HD
BRANCH  10  14
HETATM   14  O   UNK N   1      34.532  17.869   8.953  0.00  0.00    -0.356 OA
HETATM   15  C   UNK N   1      33.482  18.097   8.092  0.00  0.00     0.210 C 
ENDBRANCH  10  14
ENDBRANCH   2   3
BRANCH   2  16
HETATM   16  C   UNK N   1      35.058  13.150  15.209  0.00  0.00     0.175 C 
BRANCH  16  17
HETATM   17  C   UNK N   1      35.044  11.949  16.088  0.00  0.00     0.029 A 
HETATM   18  C   UNK N   1      35.147  12.076  17.483  0.00  0.00    -0.005 A 
HETATM   19  C   UNK N   1      35.105  10.929  18.293  0.00  0.00     0.083 A 
HETATM   20  C   UNK N   1      35.288  13.430  18.110  0.00  0.00     0.053 C 
HETATM   21  C   UNK N   1      34.958   9.659  17.665  0.00  0.00    -0.013 A 
HETATM   22  C   UNK N   1      34.863   9.593  16.275  0.00  0.00     0.097 A 
HETATM   23  C   UNK N   1      34.893   8.373  18.414  0.00  0.00     0.052 C 
HETATM   24  N   UNK N   1      34.904  10.722  15.524  0.00  0.00    -0.367 N 
ATOM     25  HN  UNK N   1      34.828  10.646  14.510  1.00  0.00     0.165 HD
BRANCH  19  26
HETATM   26  O   UNK N   1      35.203  11.102  19.642  0.00  0.00    -0.355 OA
HETATM   27  C   UNK N   1      36.319  10.891  20.417  0.00  0.00     0.210 C 
ENDBRANCH  19  26
ENDBRANCH  16  17
ENDBRANCH   2  16
TORSDOF 5
ENDMDL
MODEL 3
REMARK VINA RESULT:      -6.6     10.209     15.390
REMARK  5 active torsions:
REMARK  status: ('A' for Active; 'I' for Inactive)
REMARK    1  A    between atoms: C_4  and  C_5 
REMARK    2  A    between atoms: S_11  and  C_5 
REMARK    3  A    between atoms: C_8  and  O_9 
REMARK    4  A    between atoms: S_11  and  C_12 
REMARK    5  A    between atoms: C_21  and  O_22 
ROOT
HETATM    1  O   UNK N   1      27.062  20.104   3.851  0.00  0.00    -0.249 OA
HETATM    2  S   UNK N   1      26.217  20.288   5.120  0.00  0.00     0.090 S 
ENDROOT
BRANCH   2   3
HETATM    3  C   UNK N   1      27.403  19.480   6.193  0.00  0.00     0.176 A 
HETATM    4  N   UNK N   1      27.361  19.551   7.549  0.00  0.00    -0.333 N 
HETATM    5  C   UNK N   1      28.363  18.756   7.940  0.00  0.00     0.061 A 
HETATM    6  H   UNK N   1      26.738  20.066   8.111  0.00  0.00     0.168 HD
HETATM    7  C   UNK N   1      28.747  18.444   9.238  0.00  0.00     0.035 A 
HETATM    8  C   UNK N   1      28.985  18.226   6.853  0.00  0.00     0.063 A 
HETATM    9  C   UNK N   1      29.808  17.535   9.397  0.00  0.00     0.039 A 
HETATM   10  C   UNK N   1      30.457  16.967   8.263  0.00  0.00     0.070 A 
HETATM   11  C   UNK N   1      30.041  17.330   6.965  0.00  0.00     0.068 A 
HETATM   12  N   UNK N   1      28.393  18.672   5.734  0.00  0.00    -0.333 N 
ATOM     13  HN  UNK N   1      28.630  18.454   4.767  1.00  0.00     0.168 HD
BRANCH  10  14
HETATM   14  O   UNK N   1      31.454  16.062   8.402  0.00  0.00    -0.356 OA
HETATM   15  C   UNK N   1      32.765  16.417   8.628  0.00  0.00     0.210 C 
ENDBRANCH  10  14
ENDBRANCH   2   3
BRANCH   2  16
HETATM   16  C   UNK N   1      25.325  18.739   4.829  0.00  0.00     0.175 C 
BRANCH  16  17
HETATM   17  C   UNK N   1      24.025  19.058   4.182  0.00  0.00     0.029 A 
HETATM   18  C   UNK N   1      22.872  18.311   4.473  0.00  0.00    -0.005 A 
HETATM   19  C   UNK N   1      21.649  18.649   3.869  0.00  0.00     0.083 A 
HETATM   20  C   UNK N   1      22.938  17.164   5.437  0.00  0.00     0.053 C 
HETATM   21  C   UNK N   1      21.620  19.751   2.968  0.00  0.00    -0.013 A 
HETATM   22  C   UNK N   1      22.796  20.455   2.713  0.00  0.00     0.097 A 
HETATM   23  C   UNK N   1      20.386  20.212   2.270  0.00  0.00     0.052 C 
HETATM   24  N   UNK N   1      23.958  20.103   3.318  0.00  0.00    -0.367 N 
ATOM     25  HN  UNK N   1      24.804  20.638   3.117  1.00  0.00     0.165 HD
BRANCH  19  26
HETATM   26  O   UNK N   1      20.556  17.899   4.187  0.00  0.00    -0.355 OA
HETATM   27  C   UNK N   1      20.006  16.890   3.432  0.00  0.00     0.210 C 
ENDBRANCH  19  26
ENDBRANCH  16  17
ENDBRANCH   2  16
TORSDOF 5
ENDMDL
MODEL 4
REMARK VINA RESULT:      -6.6      5.076     10.378
REMARK  5 active torsions:
REMARK  status: ('A' for Active; 'I' for Inactive)
REMARK    1  A    between atoms: C_4  and  C_5 
REMARK    2  A    between atoms: S_11  and  C_5 
REMARK    3  A    between atoms: C_8  and  O_9 
REMARK    4  A    between atoms: S_11  and  C_12 
REMARK    5  A    between atoms: C_21  and  O_22 
ROOT
HETATM    1  O   UNK N   1      35.275  18.973   7.943  0.00  0.00    -0.249 OA
HETATM    2  S   UNK N   1      33.930  18.380   8.390  0.00  0.00     0.090 S 
ENDROOT
BRANCH   2   3
HETATM    3  C   UNK N   1      34.672  17.016   9.285  0.00  0.00     0.176 A 
HETATM    4  N   UNK N   1      35.019  17.077  10.597  0.00  0.00    -0.333 N 
HETATM    5  C   UNK N   1      35.453  15.842  10.869  0.00  0.00     0.061 A 
HETATM    6  H   UNK N   1      34.964  17.850  11.205  0.00  0.00     0.168 HD
HETATM    7  C   UNK N   1      35.903  15.344  12.086  0.00  0.00     0.035 A 
HETATM    8  C   UNK N   1      35.368  15.066   9.755  0.00  0.00     0.063 A 
HETATM    9  C   UNK N   1      36.260  13.985  12.136  0.00  0.00     0.039 A 
HETATM   10  C   UNK N   1      36.163  13.163  10.976  0.00  0.00     0.070 A 
HETATM   11  C   UNK N   1      35.717  13.721   9.759  0.00  0.00     0.068 A 
HETATM   12  N   UNK N   1      34.876  15.790   8.739  0.00  0.00    -0.333 N 
ATOM     13  HN  UNK N   1      34.695  15.489   7.781  1.00  0.00     0.168 HD
BRANCH  10  14
HETATM   14  O   UNK N   1      36.466  11.845  11.020  0.00  0.00    -0.356 OA
HETATM   15  C   UNK N   1      37.745  11.375  11.217  0.00  0.00     0.210 C 
ENDBRANCH  10  14
ENDBRANCH   2   3
BRANCH   2  16
HETATM   16  C   UNK N   1      33.787  17.395   6.877  0.00  0.00     0.175 C 
BRANCH  16  17
HETATM   17  C   UNK N   1      32.343  17.219   6.564  0.00  0.00     0.029 A 
HETATM   18  C   UNK N   1      31.890  17.212   5.235  0.00  0.00    -0.005 A 
HETATM   19  C   UNK N   1      30.525  17.017   4.964  0.00  0.00     0.083 A 
HETATM   20  C   UNK N   1      32.857  17.398   4.105  0.00  0.00     0.053 C 
HETATM   21  C   UNK N   1      29.635  16.832   6.061  0.00  0.00    -0.013 A 
HETATM   22  C   UNK N   1      30.142  16.852   7.360  0.00  0.00     0.097 A 
HETATM   23  C   UNK N   1      28.170  16.610   5.904  0.00  0.00     0.052 C 
HETATM   24  N   UNK N   1      31.466  17.039   7.584  0.00  0.00    -0.367 N 
ATOM     25  HN  UNK N   1      31.811  17.044   8.544  1.00  0.00     0.165 HD
BRANCH  19  26
HETATM   26  O   UNK N   1      30.131  17.012   3.659  0.00  0.00    -0.355 OA
HETATM   27  C   UNK N   1      29.834  15.907   2.897  0.00  0.00     0.210 C 
ENDBRANCH  19  26
ENDBRANCH  16  17
ENDBRANCH   2  16
TORSDOF 5
ENDMDL
MODEL 5
REMARK VINA RESULT:      -6.6      9.550     13.873
REMARK  5 active torsions:
REMARK  status: ('A' for Active; 'I' for Inactive)
REMARK    1  A    between atoms: C_4  and  C_5 
REMARK    2  A    between atoms: S_11  and  C_5 
REMARK    3  A    between atoms: C_8  and  O_9 
REMARK    4  A    between atoms: S_11  and  C_12 
REMARK    5  A    between atoms: C_21  and  O_22 
ROOT
HETATM    1  O   UNK N   1      27.594  20.063   6.329  0.00  0.00    -0.249 OA
HETATM    2  S   UNK N   1      27.834  19.743   4.846  0.00  0.00     0.090 S 
ENDROOT
BRANCH   2   3
HETATM    3  C   UNK N   1      26.097  19.499   4.475  0.00  0.00     0.176 A 
HETATM    4  N   UNK N   1      25.300  18.628   5.147  0.00  0.00    -0.333 N 
HETATM    5  C   UNK N   1      24.092  18.822   4.606  0.00  0.00     0.061 A 
HETATM    6  H   UNK N   1      25.553  18.003   5.864  0.00  0.00     0.168 HD
HETATM    7  C   UNK N   1      22.896  18.204   4.949  0.00  0.00     0.035 A 
HETATM    8  C   UNK N   1      24.165  19.778   3.642  0.00  0.00     0.063 A 
HETATM    9  C   UNK N   1      21.737  18.617   4.266  0.00  0.00     0.039 A 
HETATM   10  C   UNK N   1      21.804  19.626   3.263  0.00  0.00     0.070 A 
HETATM   11  C   UNK N   1      23.046  20.210   2.939  0.00  0.00     0.068 A 
HETATM   12  N   UNK N   1      25.427  20.221   3.542  0.00  0.00    -0.333 N 
ATOM     13  HN  UNK N   1      25.796  20.935   2.913  1.00  0.00     0.168 HD
BRANCH  10  14
HETATM   14  O   UNK N   1      20.691  20.059   2.625  0.00  0.00    -0.356 OA
HETATM   15  C   UNK N   1      20.728  20.744   1.432  0.00  0.00     0.210 C 
ENDBRANCH  10  14
ENDBRANCH   2   3
BRANCH   2  16
HETATM   16  C   UNK N   1      28.074  17.983   5.198  0.00  0.00     0.175 C 
BRANCH  16  17
HETATM   17  C   UNK N   1      29.530  17.732   5.375  0.00  0.00     0.029 A 
HETATM   18  C   UNK N   1      30.055  17.396   6.634  0.00  0.00    -0.005 A 
HETATM   19  C   UNK N   1      31.429  17.138   6.770  0.00  0.00     0.083 A 
HETATM   20  C   UNK N   1      29.154  17.298   7.827  0.00  0.00     0.053 C 
HETATM   21  C   UNK N   1      32.255  17.228   5.613  0.00  0.00    -0.013 A 
HETATM   22  C   UNK N   1      31.679  17.569   4.390  0.00  0.00     0.097 A 
HETATM   23  C   UNK N   1      33.723  16.972   5.627  0.00  0.00     0.052 C 
HETATM   24  N   UNK N   1      30.348  17.808   4.294  0.00  0.00    -0.367 N 
ATOM     25  HN  UNK N   1      29.951  18.052   3.387  1.00  0.00     0.165 HD
BRANCH  19  26
HETATM   26  O   UNK N   1      31.893  16.809   8.009  0.00  0.00    -0.355 OA
HETATM   27  C   UNK N   1      32.105  15.541   8.496  0.00  0.00     0.210 C 
ENDBRANCH  19  26
ENDBRANCH  16  17
ENDBRANCH   2  16
TORSDOF 5
ENDMDL
MODEL 6
REMARK VINA RESULT:      -6.6      2.465      9.164
REMARK  5 active torsions:
REMARK  status: ('A' for Active; 'I' for Inactive)
REMARK    1  A    between atoms: C_4  and  C_5 
REMARK    2  A    between atoms: S_11  and  C_5 
REMARK    3  A    between atoms: C_8  and  O_9 
REMARK    4  A    between atoms: S_11  and  C_12 
REMARK    5  A    between atoms: C_21  and  O_22 
ROOT
HETATM    1  O   UNK N   1      36.377  14.897   9.879  0.00  0.00    -0.249 OA
HETATM    2  S   UNK N   1      35.962  15.921  10.946  0.00  0.00     0.090 S 
ENDROOT
BRANCH   2   3
HETATM    3  C   UNK N   1      35.903  14.720  12.275  0.00  0.00     0.176 A 
HETATM    4  N   UNK N   1      36.620  14.832  13.422  0.00  0.00    -0.333 N 
HETATM    5  C   UNK N   1      36.221  13.783  14.150  0.00  0.00     0.061 A 
HETATM    6  H   UNK N   1      37.278  15.524  13.662  0.00  0.00     0.168 HD
HETATM    7  C   UNK N   1      36.621  13.434  15.434  0.00  0.00     0.035 A 
HETATM    8  C   UNK N   1      35.294  13.067  13.460  0.00  0.00     0.063 A 
HETATM    9  C   UNK N   1      36.016  12.306  16.016  0.00  0.00     0.039 A 
HETATM   10  C   UNK N   1      35.036  11.557  15.303  0.00  0.00     0.070 A 
HETATM   11  C   UNK N   1      34.677  11.942  13.994  0.00  0.00     0.068 A 
HETATM   12  N   UNK N   1      35.077  13.642  12.268  0.00  0.00    -0.333 N 
ATOM     13  HN  UNK N   1      34.440  13.341  11.530  1.00  0.00     0.168 HD
BRANCH  10  14
HETATM   14  O   UNK N   1      34.418  10.492  15.865  0.00  0.00    -0.356 OA
HETATM   15  C   UNK N   1      35.040   9.645  16.753  0.00  0.00     0.210 C 
ENDBRANCH  10  14
ENDBRANCH   2   3
BRANCH   2  16
HETATM   16  C   UNK N   1      34.204  15.693  10.572  0.00  0.00     0.175 C 
BRANCH  16  17
HETATM   17  C   UNK N   1      33.965  16.107   9.163  0.00  0.00     0.029 A 
HETATM   18  C   UNK N   1      33.238  15.286   8.286  0.00  0.00    -0.005 A 
HETATM   19  C   UNK N   1      33.001  15.711   6.967  0.00  0.00     0.083 A 
HETATM   20  C   UNK N   1      32.701  13.967   8.754  0.00  0.00     0.053 C 
HETATM   21  C   UNK N   1      33.515  16.975   6.560  0.00  0.00    -0.013 A 
HETATM   22  C   UNK N   1      34.233  17.746   7.473  0.00  0.00     0.097 A 
HETATM   23  C   UNK N   1      33.327  17.538   5.193  0.00  0.00     0.052 C 
HETATM   24  N   UNK N   1      34.439  17.306   8.739  0.00  0.00    -0.367 N 
ATOM     25  HN  UNK N   1      34.963  17.892   9.389  1.00  0.00     0.165 HD
BRANCH  19  26
HETATM   26  O   UNK N   1      32.286  14.884   6.153  0.00  0.00    -0.355 OA
HETATM   27  C   UNK N   1      30.944  14.977   5.865  0.00  0.00     0.210 C 
ENDBRANCH  19  26
ENDBRANCH  16  17
ENDBRANCH   2  16
TORSDOF 5
ENDMDL
MODEL 7
REMARK VINA RESULT:      -6.5      8.688     12.467
REMARK  5 active torsions:
REMARK  status: ('A' for Active; 'I' for Inactive)
REMARK    1  A    between atoms: C_4  and  C_5 
REMARK    2  A    between atoms: S_11  and  C_5 
REMARK    3  A    between atoms: C_8  and  O_9 
REMARK    4  A    between atoms: S_11  and  C_12 
REMARK    5  A    between atoms: C_21  and  O_22 
ROOT
HETATM    1  O   UNK N   1      27.993  15.495   5.644  0.00  0.00    -0.249 OA
HETATM    2  S   UNK N   1      28.347  16.726   6.491  0.00  0.00     0.090 S 
ENDROOT
BRANCH   2   3
HETATM    3  C   UNK N   1      27.262  17.831   5.589  0.00  0.00     0.176 A 
HETATM    4  N   UNK N   1      27.704  18.774   4.718  0.00  0.00    -0.333 N 
HETATM    5  C   UNK N   1      26.580  19.304   4.225  0.00  0.00     0.061 A 
HETATM    6  H   UNK N   1      28.635  19.012   4.502  0.00  0.00     0.168 HD
HETATM    7  C   UNK N   1      26.456  20.299   3.263  0.00  0.00     0.035 A 
HETATM    8  C   UNK N   1      25.498  18.695   4.782  0.00  0.00     0.063 A 
HETATM    9  C   UNK N   1      25.155  20.654   2.865  0.00  0.00     0.039 A 
HETATM   10  C   UNK N   1      24.018  20.013   3.436  0.00  0.00     0.070 A 
HETATM   11  C   UNK N   1      24.196  19.021   4.422  0.00  0.00     0.068 A 
HETATM   12  N   UNK N   1      25.908  17.758   5.650  0.00  0.00    -0.333 N 
ATOM     13  HN  UNK N   1      25.335  17.136   6.221  1.00  0.00     0.168 HD
BRANCH  10  14
HETATM   14  O   UNK N   1      22.762  20.318   3.034  0.00  0.00    -0.356 OA
HETATM   15  C   UNK N   1      21.654  19.597   3.419  0.00  0.00     0.210 C 
ENDBRANCH  10  14
ENDBRANCH   2   3
BRANCH   2  16
HETATM   16  C   UNK N   1      29.755  17.133   5.427  0.00  0.00     0.175 C 
BRANCH  16  17
HETATM   17  C   UNK N   1      30.982  17.185   6.267  0.00  0.00     0.029 A 
HETATM   18  C   UNK N   1      32.240  16.880   5.724  0.00  0.00    -0.005 A 
HETATM   19  C   UNK N   1      33.387  16.962   6.531  0.00  0.00     0.083 A 
HETATM   20  C   UNK N   1      32.366  16.483   4.284  0.00  0.00     0.053 C 
HETATM   21  C   UNK N   1      33.233  17.354   7.891  0.00  0.00    -0.013 A 
HETATM   22  C   UNK N   1      31.958  17.642   8.378  0.00  0.00     0.097 A 
HETATM   23  C   UNK N   1      34.371  17.485   8.845  0.00  0.00     0.052 C 
HETATM   24  N   UNK N   1      30.873  17.556   7.569  0.00  0.00    -0.367 N 
ATOM     25  HN  UNK N   1      29.952  17.776   7.948  1.00  0.00     0.165 HD
BRANCH  19  26
HETATM   26  O   UNK N   1      34.588  16.664   5.959  0.00  0.00    -0.355 OA
HETATM   27  C   UNK N   1      35.207  15.436   5.943  0.00  0.00     0.210 C 
ENDBRANCH  19  26
ENDBRANCH  16  17
ENDBRANCH   2  16
TORSDOF 5
ENDMDL
MODEL 8
REMARK VINA RESULT:      -6.3      2.585      8.639
REMARK  5 active torsions:
REMARK  status: ('A' for Active; 'I' for Inactive)
REMARK    1  A    between atoms: C_4  and  C_5 
REMARK    2  A    between atoms: S_11  and  C_5 
REMARK    3  A    between atoms: C_8  and  O_9 
REMARK    4  A    between atoms: S_11  and  C_12 
REMARK    5  A    between atoms: C_21  and  O_22 
ROOT
HETATM    1  O   UNK N   1      34.829  12.715  11.814  0.00  0.00    -0.249 OA
HETATM    2  S   UNK N   1      36.313  13.112  11.838  0.00  0.00     0.090 S 
ENDROOT
BRANCH   2   3
HETATM    3  C   UNK N   1      36.322  13.500  13.588  0.00  0.00     0.176 A 
HETATM    4  N   UNK N   1      36.988  14.557  14.120  0.00  0.00    -0.333 N 
HETATM    5  C   UNK N   1      36.666  14.516  15.418  0.00  0.00     0.061 A 
HETATM    6  H   UNK N   1      37.571  15.203  13.659  0.00  0.00     0.168 HD
HETATM    7  C   UNK N   1      37.054  15.395  16.422  0.00  0.00     0.035 A 
HETATM    8  C   UNK N   1      35.832  13.468  15.654  0.00  0.00     0.063 A 
HETATM    9  C   UNK N   1      36.538  15.172  17.710  0.00  0.00     0.039 A 
HETATM   10  C   UNK N   1      35.656  14.082  17.963  0.00  0.00     0.070 A 
HETATM   11  C   UNK N   1      35.305  13.208  16.913  0.00  0.00     0.068 A 
HETATM   12  N   UNK N   1      35.601  12.810  14.508  0.00  0.00    -0.333 N 
ATOM     13  HN  UNK N   1      35.019  11.985  14.362  1.00  0.00     0.168 HD
BRANCH  10  14
HETATM   14  O   UNK N   1      35.122  13.879  19.190  0.00  0.00    -0.356 OA
HETATM   15  C   UNK N   1      35.124  12.653  19.817  0.00  0.00     0.210 C 
ENDBRANCH  10  14
ENDBRANCH   2   3
BRANCH   2  16
HETATM   16  C   UNK N   1      35.928  14.825  11.393  0.00  0.00     0.175 C 
BRANCH  16  17
HETATM   17  C   UNK N   1      34.949  14.812  10.273  0.00  0.00     0.029 A 
HETATM   18  C   UNK N   1      35.358  14.516   8.962  0.00  0.00    -0.005 A 
HETATM   19  C   UNK N   1      34.409  14.484   7.926  0.00  0.00     0.083 A 
HETATM   20  C   UNK N   1      36.797  14.221   8.668  0.00  0.00     0.053 C 
HETATM   21  C   UNK N   1      33.048  14.757   8.243  0.00  0.00    -0.013 A 
HETATM   22  C   UNK N   1      32.700  15.048   9.562  0.00  0.00     0.097 A 
HETATM   23  C   UNK N   1      31.950  14.747   7.236  0.00  0.00     0.052 C 
HETATM   24  N   UNK N   1      33.642  15.066  10.537  0.00  0.00    -0.367 N 
ATOM     25  HN  UNK N   1      33.360  15.278  11.495  1.00  0.00     0.165 HD
BRANCH  19  26
HETATM   26  O   UNK N   1      34.851  14.186   6.671  0.00  0.00    -0.355 OA
HETATM   27  C   UNK N   1      35.128  15.081   5.665  0.00  0.00     0.210 C 
ENDBRANCH  19  26
ENDBRANCH  16  17
ENDBRANCH   2  16
TORSDOF 5
ENDMDL
MODEL 9
REMARK VINA RESULT:      -6.3      3.213      4.662
REMARK  5 active torsions:
REMARK  status: ('A' for Active; 'I' for Inactive)
REMARK    1  A    between atoms: C_4  and  C_5 
REMARK    2  A    between atoms: S_11  and  C_5 
REMARK    3  A    between atoms: C_8  and  O_9 
REMARK    4  A    between atoms: S_11  and  C_12 
REMARK    5  A    between atoms: C_21  and  O_22 
ROOT
HETATM    1  O   UNK N   1      34.458  14.840  11.924  0.00  0.00    -0.249 OA
HETATM    2  S   UNK N   1      35.610  15.777  11.531  0.00  0.00     0.090 S 
ENDROOT
BRANCH   2   3
HETATM    3  C   UNK N   1      34.985  16.077   9.877  0.00  0.00     0.176 A 
HETATM    4  N   UNK N   1      34.389  17.236   9.497  0.00  0.00    -0.333 N 
HETATM    5  C   UNK N   1      34.155  17.061   8.192  0.00  0.00     0.061 A 
HETATM    6  H   UNK N   1      34.179  18.022  10.053  0.00  0.00     0.168 HD
HETATM    7  C   UNK N   1      33.585  17.960   7.299  0.00  0.00     0.035 A 
HETATM    8  C   UNK N   1      34.598  15.835   7.804  0.00  0.00     0.063 A 
HETATM    9  C   UNK N   1      33.491  17.562   5.954  0.00  0.00     0.039 A 
HETATM   10  C   UNK N   1      33.963  16.284   5.538  0.00  0.00     0.070 A 
HETATM   11  C   UNK N   1      34.518  15.400   6.486  0.00  0.00     0.068 A 
HETATM   12  N   UNK N   1      35.127  15.193   8.857  0.00  0.00    -0.333 N 
ATOM     13  HN  UNK N   1      35.541  14.262   8.883  1.00  0.00     0.168 HD
BRANCH  10  14
HETATM   14  O   UNK N   1      33.914  15.904   4.239  0.00  0.00    -0.356 OA
HETATM   15  C   UNK N   1      33.867  14.586   3.844  0.00  0.00     0.210 C 
ENDBRANCH  10  14
ENDBRANCH   2   3
BRANCH   2  16
HETATM   16  C   UNK N   1      36.630  14.392  10.965  0.00  0.00     0.175 C 
BRANCH  16  17
HETATM   17  C   UNK N   1      36.718  13.392  12.064  0.00  0.00     0.029 A 
HETATM   18  C   UNK N   1      36.678  12.015  11.790  0.00  0.00    -0.005 A 
HETATM   19  C   UNK N   1      36.791  11.091  12.842  0.00  0.00     0.083 A 
HETATM   20  C   UNK N   1      36.532  11.529  10.380  0.00  0.00     0.053 C 
HETATM   21  C   UNK N   1      36.941  11.588  14.169  0.00  0.00    -0.013 A 
HETATM   22  C   UNK N   1      36.970  12.965  14.381  0.00  0.00     0.097 A 
HETATM   23  C   UNK N   1      37.076  10.711  15.366  0.00  0.00     0.052 C 
HETATM   24  N   UNK N   1      36.863  13.829  13.341  0.00  0.00    -0.367 N 
ATOM     25  HN  UNK N   1      36.892  14.832  13.524  1.00  0.00     0.165 HD
BRANCH  19  26
HETATM   26  O   UNK N   1      36.753   9.765  12.528  0.00  0.00    -0.355 OA
HETATM   27  C   UNK N   1      35.672   8.924  12.647  0.00  0.00     0.210 C 
ENDBRANCH  19  26
ENDBRANCH  16  17
ENDBRANCH   2  16
TORSDOF 5
ENDMDL
