REMARK  2 active torsions:
REMARK  status: ('A' for Active; 'I' for Inactive)
REMARK    1  A    between atoms: C_11  and  C_24 
REMARK    2  A    between atoms: C_24  and  O_26 
ROOT
HETATM    1  C   UNK N   1       9.133  -4.348  -0.092  0.00  0.00     0.159 A 
HETATM    2  C   UNK N   1       9.028  -5.822  -0.154  0.00  0.00     0.103 A 
HETATM    3  O   UNK N   1       9.646  -5.081  -1.185  0.00  0.00    -0.368 OA
HETATM    4  C   UNK N   1       5.393  -6.844   0.647  0.00  0.00     0.084 C 
HETATM    5  C   UNK N   1       5.774  -8.285   0.755  0.00  0.00     0.149 C 
HETATM    6  C   UNK N   1       6.940  -8.777   0.004  0.00  0.00     0.053 C 
HETATM    7  C   UNK N   1       6.674  -6.022   0.662  0.00  0.00     0.025 C 
HETATM    8  C   UNK N   1       7.623  -6.401  -0.499  0.00  0.00     0.014 C 
HETATM    9  C   UNK N   1       7.761  -7.920  -0.628  0.00  0.00    -0.064 C 
HETATM   10  C   UNK N   1       8.982  -8.461  -1.299  0.00  0.00     0.050 C 
HETATM   11  C   UNK N   1      10.268  -7.950  -0.610  0.00  0.00     0.097 C 
HETATM   12  C   UNK N   1      10.048  -6.811   0.455  0.00  0.00     0.043 C 
HETATM   13  C   UNK N   1      10.172  -3.896   0.926  0.00  0.00     0.047 C 
HETATM   14  C   UNK N   1      11.506  -4.642   1.028  0.00  0.00    -0.006 C 
HETATM   15  C   UNK N   1      11.359  -6.190   1.083  0.00  0.00     0.005 C 
HETATM   16  C   UNK N   1      12.616  -6.656   0.362  0.00  0.00     0.009 C 
HETATM   17  C   UNK N   1      12.708  -5.707  -0.809  0.00  0.00     0.040 C 
HETATM   18  C   UNK N   1      12.536  -4.372  -0.126  0.00  0.00     0.079 A 
HETATM   19  O   UNK N   1      13.772  -4.012   0.371  0.00  0.00    -0.309 OA
HETATM   20  C   UNK N   1      14.207  -2.857  -0.121  0.00  0.00     0.259 A 
HETATM   21  C   UNK N   1      13.306  -2.236  -1.101  0.00  0.00     0.114 A 
HETATM   22  C   UNK N   1      12.161  -3.253  -1.125  0.00  0.00     0.049 A 
HETATM   23  O   UNK N   1      15.270  -2.362   0.225  0.00  0.00    -0.265 OA
HETATM   24  O   UNK N   1       5.142  -9.039   1.476  0.00  0.00    -0.293 OA
HETATM   25  C   UNK N   1       7.067  -5.837  -1.805  0.00  0.00     0.023 C 
HETATM   26  C   UNK N   1      12.086  -4.151   2.358  0.00  0.00     0.019 C 
ENDROOT
BRANCH  11  27
HETATM   27  C   UNK N   1      11.063  -9.120  -0.113  0.00  0.00     0.263 C 
HETATM   28  O   UNK N   1      10.632  -9.816   0.796  0.00  0.00    -0.265 OA
BRANCH  27  29
HETATM   29  O   UNK N   1      12.258  -9.393  -0.692  0.00  0.00    -0.326 OA
HETATM   30  C   UNK N   1      13.064 -10.427  -0.280  0.00  0.00     0.213 C 
ENDBRANCH  27  29
ENDBRANCH  11  27
TORSDOF 2
