MODEL 1
REMARK VINA RESULT:      -8.5      0.000      0.000
REMARK  4 active torsions:
REMARK  status: ('A' for Active; 'I' for Inactive)
REMARK    1  A    between atoms: C_4  and  C_1 
REMARK    2  A    between atoms: O_9  and  C_2 
REMARK    3  A    between atoms: C_4  and  C_14 
REMARK    4  A    between atoms: O_21  and  C_15 
ROOT
HETATM    1  C   UNK N   1      29.050  23.418  -4.371  0.00  0.00     0.095 C 
ENDROOT
BRANCH   1   2
HETATM    2  C   UNK N   1      28.157  24.642  -4.098  0.00  0.00     0.056 A 
HETATM    3  C   UNK N   1      28.492  25.825  -4.793  0.00  0.00     0.091 A 
HETATM    4  C   UNK N   1      27.733  26.988  -4.606  0.00  0.00     0.032 A 
HETATM    5  C   UNK N   1      28.034  28.182  -5.278  0.00  0.00     0.017 A 
HETATM    6  C   UNK N   1      26.643  26.950  -3.720  0.00  0.00     0.092 A 
HETATM    7  C   UNK N   1      27.253  29.324  -5.065  0.00  0.00     0.001 A 
HETATM    8  C   UNK N   1      26.170  29.277  -4.182  0.00  0.00     0.003 A 
HETATM    9  C   UNK N   1      25.866  28.092  -3.510  0.00  0.00     0.038 A 
HETATM   10  O   UNK N   1      26.348  25.833  -3.080  0.00  0.00    -0.274 OA
HETATM   11  C   UNK N   1      27.037  24.706  -3.225  0.00  0.00     0.297 A 
HETATM   12  O   UNK N   1      26.679  23.747  -2.592  0.00  0.00    -0.259 OA
BRANCH   3  13
HETATM   13  O   UNK N   1      29.542  25.841  -5.639  0.00  0.00    -0.359 OA
HETATM   14  H   UNK N   1      30.281  25.287  -5.479  0.00  0.00     0.217 HD
ENDBRANCH   3  13
ENDBRANCH   1   2
BRANCH   1  15
HETATM   15  C   UNK N   1      30.345  22.693  -3.963  0.00  0.00     0.056 A 
HETATM   16  C   UNK N   1      31.067  22.073  -5.007  0.00  0.00     0.091 A 
HETATM   17  C   UNK N   1      32.258  21.389  -4.728  0.00  0.00     0.032 A 
HETATM   18  C   UNK N   1      33.002  20.761  -5.738  0.00  0.00     0.017 A 
HETATM   19  C   UNK N   1      32.712  21.337  -3.400  0.00  0.00     0.092 A 
HETATM   20  C   UNK N   1      34.188  20.088  -5.420  0.00  0.00     0.001 A 
HETATM   21  C   UNK N   1      34.633  20.040  -4.095  0.00  0.00     0.003 A 
HETATM   22  C   UNK N   1      33.896  20.664  -3.088  0.00  0.00     0.038 A 
HETATM   23  O   UNK N   1      32.022  21.924  -2.439  0.00  0.00    -0.274 OA
HETATM   24  C   UNK N   1      30.889  22.583  -2.655  0.00  0.00     0.297 A 
HETATM   25  O   UNK N   1      30.343  23.080  -1.703  0.00  0.00    -0.259 OA
BRANCH  16  26
HETATM   26  O   UNK N   1      30.612  22.135  -6.276  0.00  0.00    -0.359 OA
HETATM   27  H   UNK N   1      31.134  21.798  -6.977  0.00  0.00     0.217 HD
ENDBRANCH  16  26
ENDBRANCH   1  15
TORSDOF 4
ENDMDL
MODEL 2
REMARK VINA RESULT:      -8.5      0.026      7.678
REMARK  4 active torsions:
REMARK  status: ('A' for Active; 'I' for Inactive)
REMARK    1  A    between atoms: C_4  and  C_1 
REMARK    2  A    between atoms: O_9  and  C_2 
REMARK    3  A    between atoms: C_4  and  C_14 
REMARK    4  A    between atoms: O_21  and  C_15 
ROOT
HETATM    1  C   UNK N   1      29.048  23.428  -4.365  0.00  0.00     0.095 C 
ENDROOT
BRANCH   1   2
HETATM    2  C   UNK N   1      30.343  22.703  -3.960  0.00  0.00     0.056 A 
HETATM    3  C   UNK N   1      31.064  22.085  -5.006  0.00  0.00     0.091 A 
HETATM    4  C   UNK N   1      32.256  21.402  -4.728  0.00  0.00     0.032 A 
HETATM    5  C   UNK N   1      33.000  20.775  -5.739  0.00  0.00     0.017 A 
HETATM    6  C   UNK N   1      32.712  21.348  -3.401  0.00  0.00     0.092 A 
HETATM    7  C   UNK N   1      34.187  20.102  -5.424  0.00  0.00     0.001 A 
HETATM    8  C   UNK N   1      34.633  20.053  -4.100  0.00  0.00     0.003 A 
HETATM    9  C   UNK N   1      33.897  20.675  -3.090  0.00  0.00     0.038 A 
HETATM   10  O   UNK N   1      32.023  21.933  -2.438  0.00  0.00    -0.274 OA
HETATM   11  C   UNK N   1      30.888  22.592  -2.652  0.00  0.00     0.297 A 
HETATM   12  O   UNK N   1      30.342  23.087  -1.700  0.00  0.00    -0.259 OA
BRANCH   3  13
HETATM   13  O   UNK N   1      30.609  22.148  -6.274  0.00  0.00    -0.359 OA
HETATM   14  H   UNK N   1      30.003  22.818  -6.520  0.00  0.00     0.217 HD
ENDBRANCH   3  13
ENDBRANCH   1   2
BRANCH   1  15
HETATM   15  C   UNK N   1      28.161  24.658  -4.099  0.00  0.00     0.056 A 
HETATM   16  C   UNK N   1      28.502  25.835  -4.803  0.00  0.00     0.091 A 
HETATM   17  C   UNK N   1      27.749  27.004  -4.623  0.00  0.00     0.032 A 
HETATM   18  C   UNK N   1      28.056  28.191  -5.304  0.00  0.00     0.017 A 
HETATM   19  C   UNK N   1      26.660  26.977  -3.736  0.00  0.00     0.092 A 
HETATM   20  C   UNK N   1      27.281  29.338  -5.098  0.00  0.00     0.001 A 
HETATM   21  C   UNK N   1      26.199  29.304  -4.214  0.00  0.00     0.003 A 
HETATM   22  C   UNK N   1      25.890  28.124  -3.534  0.00  0.00     0.038 A 
HETATM   23  O   UNK N   1      26.359  25.866  -3.088  0.00  0.00    -0.274 OA
HETATM   24  C   UNK N   1      27.043  24.734  -3.226  0.00  0.00     0.297 A 
HETATM   25  O   UNK N   1      26.679  23.782  -2.585  0.00  0.00    -0.259 OA
BRANCH  16  26
HETATM   26  O   UNK N   1      29.551  25.838  -5.650  0.00  0.00    -0.359 OA
HETATM   27  H   UNK N   1      29.407  25.770  -6.574  0.00  0.00     0.217 HD
ENDBRANCH  16  26
ENDBRANCH   1  15
TORSDOF 4
ENDMDL
MODEL 3
REMARK VINA RESULT:      -8.4     16.777     20.563
REMARK  4 active torsions:
REMARK  status: ('A' for Active; 'I' for Inactive)
REMARK    1  A    between atoms: C_4  and  C_1 
REMARK    2  A    between atoms: O_9  and  C_2 
REMARK    3  A    between atoms: C_4  and  C_14 
REMARK    4  A    between atoms: O_21  and  C_15 
ROOT
HETATM    1  C   UNK N   1      35.401  14.075  11.390  0.00  0.00     0.095 C 
ENDROOT
BRANCH   1   2
HETATM    2  C   UNK N   1      35.490  13.557  12.835  0.00  0.00     0.056 A 
HETATM    3  C   UNK N   1      34.888  12.303  13.086  0.00  0.00     0.091 A 
HETATM    4  C   UNK N   1      34.922  11.754  14.376  0.00  0.00     0.032 A 
HETATM    5  C   UNK N   1      34.336  10.513  14.664  0.00  0.00     0.017 A 
HETATM    6  C   UNK N   1      35.561  12.472  15.400  0.00  0.00     0.092 A 
HETATM    7  C   UNK N   1      34.389   9.996  15.964  0.00  0.00     0.001 A 
HETATM    8  C   UNK N   1      35.027  10.717  16.979  0.00  0.00     0.003 A 
HETATM    9  C   UNK N   1      35.612  11.952  16.697  0.00  0.00     0.038 A 
HETATM   10  O   UNK N   1      36.117  13.642  15.144  0.00  0.00    -0.274 OA
HETATM   11  C   UNK N   1      36.111  14.203  13.939  0.00  0.00     0.297 A 
HETATM   12  O   UNK N   1      36.649  15.273  13.819  0.00  0.00    -0.259 OA
BRANCH   3  13
HETATM   13  O   UNK N   1      34.280  11.631  12.089  0.00  0.00    -0.359 OA
HETATM   14  H   UNK N   1      34.640  10.823  11.781  0.00  0.00     0.217 HD
ENDBRANCH   3  13
ENDBRANCH   1   2
BRANCH   1  15
HETATM   15  C   UNK N   1      34.772  15.142  10.474  0.00  0.00     0.056 A 
HETATM   16  C   UNK N   1      33.633  14.741   9.742  0.00  0.00     0.091 A 
HETATM   17  C   UNK N   1      32.995  15.647   8.883  0.00  0.00     0.032 A 
HETATM   18  C   UNK N   1      31.862  15.285   8.140  0.00  0.00     0.017 A 
HETATM   19  C   UNK N   1      33.511  16.948   8.770  0.00  0.00     0.092 A 
HETATM   20  C   UNK N   1      31.253  16.219   7.292  0.00  0.00     0.001 A 
HETATM   21  C   UNK N   1      31.772  17.512   7.185  0.00  0.00     0.003 A 
HETATM   22  C   UNK N   1      32.900  17.876   7.923  0.00  0.00     0.038 A 
HETATM   23  O   UNK N   1      34.578  17.303   9.464  0.00  0.00    -0.274 OA
HETATM   24  C   UNK N   1      35.216  16.479  10.290  0.00  0.00     0.297 A 
HETATM   25  O   UNK N   1      36.178  16.909  10.872  0.00  0.00    -0.259 OA
BRANCH  16  26
HETATM   26  O   UNK N   1      33.155  13.486   9.866  0.00  0.00    -0.359 OA
HETATM   27  H   UNK N   1      33.706  12.806  10.199  0.00  0.00     0.217 HD
ENDBRANCH  16  26
ENDBRANCH   1  15
TORSDOF 4
ENDMDL
MODEL 4
REMARK VINA RESULT:      -8.4     16.779     19.738
REMARK  4 active torsions:
REMARK  status: ('A' for Active; 'I' for Inactive)
REMARK    1  A    between atoms: C_4  and  C_1 
REMARK    2  A    between atoms: O_9  and  C_2 
REMARK    3  A    between atoms: C_4  and  C_14 
REMARK    4  A    between atoms: O_21  and  C_15 
ROOT
HETATM    1  C   UNK N   1      35.398  14.071  11.390  0.00  0.00     0.095 C 
ENDROOT
BRANCH   1   2
HETATM    2  C   UNK N   1      34.772  15.138  10.476  0.00  0.00     0.056 A 
HETATM    3  C   UNK N   1      33.631  14.740   9.743  0.00  0.00     0.091 A 
HETATM    4  C   UNK N   1      32.996  15.648   8.885  0.00  0.00     0.032 A 
HETATM    5  C   UNK N   1      31.862  15.290   8.141  0.00  0.00     0.017 A 
HETATM    6  C   UNK N   1      33.515  16.949   8.772  0.00  0.00     0.092 A 
HETATM    7  C   UNK N   1      31.254  16.225   7.294  0.00  0.00     0.001 A 
HETATM    8  C   UNK N   1      31.777  17.517   7.187  0.00  0.00     0.003 A 
HETATM    9  C   UNK N   1      32.905  17.879   7.925  0.00  0.00     0.038 A 
HETATM   10  O   UNK N   1      34.582  17.300   9.466  0.00  0.00    -0.274 OA
HETATM   11  C   UNK N   1      35.218  16.475  10.292  0.00  0.00     0.297 A 
HETATM   12  O   UNK N   1      36.181  16.902  10.874  0.00  0.00    -0.259 OA
BRANCH   3  13
HETATM   13  O   UNK N   1      33.150  13.487   9.866  0.00  0.00    -0.359 OA
HETATM   14  H   UNK N   1      33.663  12.827  10.289  0.00  0.00     0.217 HD
ENDBRANCH   3  13
ENDBRANCH   1   2
BRANCH   1  15
HETATM   15  C   UNK N   1      35.489  13.553  12.837  0.00  0.00     0.056 A 
HETATM   16  C   UNK N   1      34.887  12.300  13.089  0.00  0.00     0.091 A 
HETATM   17  C   UNK N   1      34.921  11.751  14.379  0.00  0.00     0.032 A 
HETATM   18  C   UNK N   1      34.335  10.510  14.667  0.00  0.00     0.017 A 
HETATM   19  C   UNK N   1      35.561  12.469  15.402  0.00  0.00     0.092 A 
HETATM   20  C   UNK N   1      34.390   9.994  15.968  0.00  0.00     0.001 A 
HETATM   21  C   UNK N   1      35.029  10.715  16.982  0.00  0.00     0.003 A 
HETATM   22  C   UNK N   1      35.613  11.951  16.699  0.00  0.00     0.038 A 
HETATM   23  O   UNK N   1      36.117  13.640  15.145  0.00  0.00    -0.274 OA
HETATM   24  C   UNK N   1      36.110  14.200  13.940  0.00  0.00     0.297 A 
HETATM   25  O   UNK N   1      36.648  15.271  13.819  0.00  0.00    -0.259 OA
BRANCH  16  26
HETATM   26  O   UNK N   1      34.278  11.627  12.091  0.00  0.00    -0.359 OA
HETATM   27  H   UNK N   1      33.725  12.085  11.489  0.00  0.00     0.217 HD
ENDBRANCH  16  26
ENDBRANCH   1  15
TORSDOF 4
ENDMDL
MODEL 5
REMARK VINA RESULT:      -8.1      9.725     13.248
REMARK  4 active torsions:
REMARK  status: ('A' for Active; 'I' for Inactive)
REMARK    1  A    between atoms: C_4  and  C_1 
REMARK    2  A    between atoms: O_9  and  C_2 
REMARK    3  A    between atoms: C_4  and  C_14 
REMARK    4  A    between atoms: O_21  and  C_15 
ROOT
HETATM    1  C   UNK N   1      27.094  19.291   4.116  0.00  0.00     0.095 C 
ENDROOT
BRANCH   1   2
HETATM    2  C   UNK N   1      27.936  18.873   5.334  0.00  0.00     0.056 A 
HETATM    3  C   UNK N   1      28.930  17.897   5.098  0.00  0.00     0.091 A 
HETATM    4  C   UNK N   1      29.744  17.456   6.150  0.00  0.00     0.032 A 
HETATM    5  C   UNK N   1      30.742  16.489   5.956  0.00  0.00     0.017 A 
HETATM    6  C   UNK N   1      29.550  18.001   7.430  0.00  0.00     0.092 A 
HETATM    7  C   UNK N   1      31.536  16.074   7.032  0.00  0.00     0.001 A 
HETATM    8  C   UNK N   1      31.336  16.621   8.302  0.00  0.00     0.003 A 
HETATM    9  C   UNK N   1      30.345  17.583   8.501  0.00  0.00     0.038 A 
HETATM   10  O   UNK N   1      28.614  18.912   7.629  0.00  0.00    -0.274 OA
HETATM   11  C   UNK N   1      27.819  19.361   6.663  0.00  0.00     0.297 A 
HETATM   12  O   UNK N   1      27.000  20.193   6.957  0.00  0.00    -0.259 OA
BRANCH   3  13
HETATM   13  O   UNK N   1      29.101  17.387   3.862  0.00  0.00    -0.359 OA
HETATM   14  H   UNK N   1      28.925  16.480   3.701  0.00  0.00     0.217 HD
ENDBRANCH   3  13
ENDBRANCH   1   2
BRANCH   1  15
HETATM   15  C   UNK N   1      25.682  19.676   3.637  0.00  0.00     0.056 A 
HETATM   16  C   UNK N   1      24.610  18.976   4.233  0.00  0.00     0.091 A 
HETATM   17  C   UNK N   1      23.289  19.261   3.858  0.00  0.00     0.032 A 
HETATM   18  C   UNK N   1      22.199  18.586   4.427  0.00  0.00     0.017 A 
HETATM   19  C   UNK N   1      23.062  20.249   2.886  0.00  0.00     0.092 A 
HETATM   20  C   UNK N   1      20.895  18.899   4.026  0.00  0.00     0.001 A 
HETATM   21  C   UNK N   1      20.675  19.884   3.058  0.00  0.00     0.003 A 
HETATM   22  C   UNK N   1      21.758  20.557   2.489  0.00  0.00     0.038 A 
HETATM   23  O   UNK N   1      24.079  20.892   2.341  0.00  0.00    -0.274 OA
HETATM   24  C   UNK N   1      25.346  20.656   2.665  0.00  0.00     0.297 A 
HETATM   25  O   UNK N   1      26.194  21.303   2.104  0.00  0.00    -0.259 OA
BRANCH  16  26
HETATM   26  O   UNK N   1      24.852  18.031   5.165  0.00  0.00    -0.359 OA
HETATM   27  H   UNK N   1      25.323  17.255   4.932  0.00  0.00     0.217 HD
ENDBRANCH  16  26
ENDBRANCH   1  15
TORSDOF 4
ENDMDL
MODEL 6
REMARK VINA RESULT:      -8.0      9.926     13.309
REMARK  4 active torsions:
REMARK  status: ('A' for Active; 'I' for Inactive)
REMARK    1  A    between atoms: C_4  and  C_1 
REMARK    2  A    between atoms: O_9  and  C_2 
REMARK    3  A    between atoms: C_4  and  C_14 
REMARK    4  A    between atoms: O_21  and  C_15 
ROOT
HETATM    1  C   UNK N   1      27.057  18.953   3.766  0.00  0.00     0.095 C 
ENDROOT
BRANCH   1   2
HETATM    2  C   UNK N   1      27.992  18.389   4.850  0.00  0.00     0.056 A 
HETATM    3  C   UNK N   1      27.749  18.826   6.172  0.00  0.00     0.091 A 
HETATM    4  C   UNK N   1      28.552  18.363   7.223  0.00  0.00     0.032 A 
HETATM    5  C   UNK N   1      28.342  18.774   8.548  0.00  0.00     0.017 A 
HETATM    6  C   UNK N   1      29.592  17.464   6.935  0.00  0.00     0.092 A 
HETATM    7  C   UNK N   1      29.165  18.290   9.572  0.00  0.00     0.001 A 
HETATM    8  C   UNK N   1      30.198  17.395   9.277  0.00  0.00     0.003 A 
HETATM    9  C   UNK N   1      30.411  16.983   7.961  0.00  0.00     0.038 A 
HETATM   10  O   UNK N   1      29.802  17.067   5.693  0.00  0.00    -0.274 OA
HETATM   11  C   UNK N   1      29.067  17.479   4.664  0.00  0.00     0.297 A 
HETATM   12  O   UNK N   1      29.348  17.052   3.573  0.00  0.00    -0.259 OA
BRANCH   3  13
HETATM   13  O   UNK N   1      26.746  19.690   6.427  0.00  0.00    -0.359 OA
HETATM   14  H   UNK N   1      26.430  20.254   5.749  0.00  0.00     0.217 HD
ENDBRANCH   3  13
ENDBRANCH   1   2
BRANCH   1  15
HETATM   15  C   UNK N   1      25.622  19.422   3.465  0.00  0.00     0.056 A 
HETATM   16  C   UNK N   1      24.583  18.659   4.042  0.00  0.00     0.091 A 
HETATM   17  C   UNK N   1      23.245  19.013   3.820  0.00  0.00     0.032 A 
HETATM   18  C   UNK N   1      22.187  18.280   4.377  0.00  0.00     0.017 A 
HETATM   19  C   UNK N   1      22.966  20.132   3.020  0.00  0.00     0.092 A 
HETATM   20  C   UNK N   1      20.863  18.665   4.133  0.00  0.00     0.001 A 
HETATM   21  C   UNK N   1      20.593  19.780   3.334  0.00  0.00     0.003 A 
HETATM   22  C   UNK N   1      21.643  20.512   2.779  0.00  0.00     0.038 A 
HETATM   23  O   UNK N   1      23.953  20.832   2.489  0.00  0.00    -0.274 OA
HETATM   24  C   UNK N   1      25.236  20.535   2.671  0.00  0.00     0.297 A 
HETATM   25  O   UNK N   1      26.052  21.243   2.139  0.00  0.00    -0.259 OA
BRANCH  16  26
HETATM   26  O   UNK N   1      24.874  17.587   4.808  0.00  0.00    -0.359 OA
HETATM   27  H   UNK N   1      25.605  17.042   4.591  0.00  0.00     0.217 HD
ENDBRANCH  16  26
ENDBRANCH   1  15
TORSDOF 4
ENDMDL
MODEL 7
REMARK VINA RESULT:      -8.0     16.090     19.324
REMARK  4 active torsions:
REMARK  status: ('A' for Active; 'I' for Inactive)
REMARK    1  A    between atoms: C_4  and  C_1 
REMARK    2  A    between atoms: O_9  and  C_2 
REMARK    3  A    between atoms: C_4  and  C_14 
REMARK    4  A    between atoms: O_21  and  C_15 
ROOT
HETATM    1  C   UNK N   1      35.931  14.333  10.915  0.00  0.00     0.095 C 
ENDROOT
BRANCH   1   2
HETATM    2  C   UNK N   1      35.379  15.337   9.889  0.00  0.00     0.056 A 
HETATM    3  C   UNK N   1      35.112  14.827   8.599  0.00  0.00     0.091 A 
HETATM    4  C   UNK N   1      34.606  15.671   7.600  0.00  0.00     0.032 A 
HETATM    5  C   UNK N   1      34.328  15.201   6.308  0.00  0.00     0.017 A 
HETATM    6  C   UNK N   1      34.375  17.022   7.910  0.00  0.00     0.092 A 
HETATM    7  C   UNK N   1      33.824  16.075   5.337  0.00  0.00     0.001 A 
HETATM    8  C   UNK N   1      33.597  17.418   5.653  0.00  0.00     0.003 A 
HETATM    9  C   UNK N   1      33.872  17.890   6.937  0.00  0.00     0.038 A 
HETATM   10  O   UNK N   1      34.632  17.478   9.122  0.00  0.00    -0.274 OA
HETATM   11  C   UNK N   1      35.111  16.717  10.100  0.00  0.00     0.297 A 
HETATM   12  O   UNK N   1      35.309  17.239  11.168  0.00  0.00    -0.259 OA
BRANCH   3  13
HETATM   13  O   UNK N   1      35.341  13.527   8.322  0.00  0.00    -0.359 OA
HETATM   14  H   UNK N   1      35.282  12.886   9.003  0.00  0.00     0.217 HD
ENDBRANCH   3  13
ENDBRANCH   1   2
BRANCH   1  15
HETATM   15  C   UNK N   1      35.555  13.351  12.040  0.00  0.00     0.056 A 
HETATM   16  C   UNK N   1      35.873  13.758  13.354  0.00  0.00     0.091 A 
HETATM   17  C   UNK N   1      35.566  12.927  14.441  0.00  0.00     0.032 A 
HETATM   18  C   UNK N   1      35.866  13.297  15.760  0.00  0.00     0.017 A 
HETATM   19  C   UNK N   1      34.942  11.693  14.193  0.00  0.00     0.092 A 
HETATM   20  C   UNK N   1      35.545  12.440  16.819  0.00  0.00     0.001 A 
HETATM   21  C   UNK N   1      34.923  11.213  16.565  0.00  0.00     0.003 A 
HETATM   22  C   UNK N   1      34.623  10.841  15.253  0.00  0.00     0.038 A 
HETATM   23  O   UNK N   1      34.653  11.332  12.955  0.00  0.00    -0.274 OA
HETATM   24  C   UNK N   1      34.925  12.086  11.895  0.00  0.00     0.297 A 
HETATM   25  O   UNK N   1      34.617  11.656  10.812  0.00  0.00    -0.259 OA
BRANCH  16  26
HETATM   26  O   UNK N   1      36.472  14.947  13.570  0.00  0.00    -0.359 OA
HETATM   27  H   UNK N   1      35.979  15.663  13.919  0.00  0.00     0.217 HD
ENDBRANCH  16  26
ENDBRANCH   1  15
TORSDOF 4
ENDMDL
MODEL 8
REMARK VINA RESULT:      -7.9     15.964     19.768
REMARK  4 active torsions:
REMARK  status: ('A' for Active; 'I' for Inactive)
REMARK    1  A    between atoms: C_4  and  C_1 
REMARK    2  A    between atoms: O_9  and  C_2 
REMARK    3  A    between atoms: C_4  and  C_14 
REMARK    4  A    between atoms: O_21  and  C_15 
ROOT
HETATM    1  C   UNK N   1      35.874  14.153  10.657  0.00  0.00     0.095 C 
ENDROOT
BRANCH   1   2
HETATM    2  C   UNK N   1      35.539  13.287  11.883  0.00  0.00     0.056 A 
HETATM    3  C   UNK N   1      35.859  13.840  13.144  0.00  0.00     0.091 A 
HETATM    4  C   UNK N   1      35.588  13.120  14.315  0.00  0.00     0.032 A 
HETATM    5  C   UNK N   1      35.891  13.636  15.585  0.00  0.00     0.017 A 
HETATM    6  C   UNK N   1      34.997  11.850  14.208  0.00  0.00     0.092 A 
HETATM    7  C   UNK N   1      35.605  12.887  16.733  0.00  0.00     0.001 A 
HETATM    8  C   UNK N   1      35.018  11.624  16.617  0.00  0.00     0.003 A 
HETATM    9  C   UNK N   1      34.714  11.106  15.357  0.00  0.00     0.038 A 
HETATM   10  O   UNK N   1      34.706  11.352  13.020  0.00  0.00    -0.274 OA
HETATM   11  C   UNK N   1      34.944  11.996  11.882  0.00  0.00     0.297 A 
HETATM   12  O   UNK N   1      34.638  11.447  10.855  0.00  0.00    -0.259 OA
BRANCH   3  13
HETATM   13  O   UNK N   1      36.425  15.061  13.225  0.00  0.00    -0.359 OA
HETATM   14  H   UNK N   1      35.893  15.815  13.387  0.00  0.00     0.217 HD
ENDBRANCH   3  13
ENDBRANCH   1   2
BRANCH   1  15
HETATM   15  C   UNK N   1      35.325  15.198   9.669  0.00  0.00     0.056 A 
HETATM   16  C   UNK N   1      35.065  14.740   8.358  0.00  0.00     0.091 A 
HETATM   17  C   UNK N   1      34.563  15.624   7.392  0.00  0.00     0.032 A 
HETATM   18  C   UNK N   1      34.293  15.206   6.081  0.00  0.00     0.017 A 
HETATM   19  C   UNK N   1      34.327  16.960   7.755  0.00  0.00     0.092 A 
HETATM   20  C   UNK N   1      33.791  16.117   5.144  0.00  0.00     0.001 A 
HETATM   21  C   UNK N   1      33.559  17.446   5.512  0.00  0.00     0.003 A 
HETATM   22  C   UNK N   1      33.827  17.866   6.816  0.00  0.00     0.038 A 
HETATM   23  O   UNK N   1      34.577  17.367   8.987  0.00  0.00    -0.274 OA
HETATM   24  C   UNK N   1      35.053  16.568   9.936  0.00  0.00     0.297 A 
HETATM   25  O   UNK N   1      35.244  17.047  11.024  0.00  0.00    -0.259 OA
BRANCH  16  26
HETATM   26  O   UNK N   1      35.299  13.453   8.031  0.00  0.00    -0.359 OA
HETATM   27  H   UNK N   1      35.619  12.857   8.679  0.00  0.00     0.217 HD
ENDBRANCH  16  26
ENDBRANCH   1  15
TORSDOF 4
ENDMDL
MODEL 9
REMARK VINA RESULT:      -7.9     16.595     19.509
REMARK  4 active torsions:
REMARK  status: ('A' for Active; 'I' for Inactive)
REMARK    1  A    between atoms: C_4  and  C_1 
REMARK    2  A    between atoms: O_9  and  C_2 
REMARK    3  A    between atoms: C_4  and  C_14 
REMARK    4  A    between atoms: O_21  and  C_15 
ROOT
HETATM    1  C   UNK N   1      34.850  13.340  10.835  0.00  0.00     0.095 C 
ENDROOT
BRANCH   1   2
HETATM    2  C   UNK N   1      33.894  13.916   9.776  0.00  0.00     0.056 A 
HETATM    3  C   UNK N   1      33.814  15.325   9.709  0.00  0.00     0.091 A 
HETATM    4  C   UNK N   1      32.968  15.936   8.773  0.00  0.00     0.032 A 
HETATM    5  C   UNK N   1      32.862  17.332   8.676  0.00  0.00     0.017 A 
HETATM    6  C   UNK N   1      32.210  15.124   7.914  0.00  0.00     0.092 A 
HETATM    7  C   UNK N   1      32.006  17.906   7.728  0.00  0.00     0.001 A 
HETATM    8  C   UNK N   1      31.255  17.090   6.876  0.00  0.00     0.003 A 
HETATM    9  C   UNK N   1      31.357  15.701   6.969  0.00  0.00     0.038 A 
HETATM   10  O   UNK N   1      32.300  13.808   7.993  0.00  0.00    -0.274 OA
HETATM   11  C   UNK N   1      33.087  13.183   8.863  0.00  0.00     0.297 A 
HETATM   12  O   UNK N   1      33.090  11.979   8.848  0.00  0.00    -0.259 OA
BRANCH   3  13
HETATM   13  O   UNK N   1      34.550  16.087  10.543  0.00  0.00    -0.359 OA
HETATM   14  H   UNK N   1      35.413  16.353  10.295  0.00  0.00     0.217 HD
ENDBRANCH   3  13
ENDBRANCH   1   2
BRANCH   1  15
HETATM   15  C   UNK N   1      35.086  13.153  12.345  0.00  0.00     0.056 A 
HETATM   16  C   UNK N   1      34.624  11.940  12.902  0.00  0.00     0.091 A 
HETATM   17  C   UNK N   1      34.797  11.685  14.270  0.00  0.00     0.032 A 
HETATM   18  C   UNK N   1      34.352  10.492  14.859  0.00  0.00     0.017 A 
HETATM   19  C   UNK N   1      35.432  12.653  15.063  0.00  0.00     0.092 A 
HETATM   20  C   UNK N   1      34.542  10.273  16.229  0.00  0.00     0.001 A 
HETATM   21  C   UNK N   1      35.176  11.242  17.012  0.00  0.00     0.003 A 
HETATM   22  C   UNK N   1      35.620  12.430  16.430  0.00  0.00     0.038 A 
HETATM   23  O   UNK N   1      35.857  13.781  14.522  0.00  0.00    -0.274 OA
HETATM   24  C   UNK N   1      35.716  14.067  13.232  0.00  0.00     0.297 A 
HETATM   25  O   UNK N   1      36.140  15.127  12.846  0.00  0.00    -0.259 OA
BRANCH  16  26
HETATM   26  O   UNK N   1      34.016  11.023  12.122  0.00  0.00    -0.359 OA
HETATM   27  H   UNK N   1      33.782  10.188  12.477  0.00  0.00     0.217 HD
ENDBRANCH  16  26
ENDBRANCH   1  15
TORSDOF 4
ENDMDL
