MODEL 1
REMARK VINA RESULT:      -7.8      0.000      0.000
REMARK  4 active torsions:
REMARK  status: ('A' for Active; 'I' for Inactive)
REMARK    1  A    between atoms: C_14  and  O_20 
REMARK    2  A    between atoms: C_21  and  C_24 
REMARK    3  A    between atoms: C_24  and  C_25 
REMARK    4  A    between atoms: C_25  and  O_27 
ROOT
HETATM    1  C   UNK N   1      27.351  19.844   6.170  0.00  0.00     0.052 C 
HETATM    2  C   UNK N   1      26.807  19.538   4.827  0.00  0.00     0.172 C 
HETATM    3  C   UNK N   1      27.603  18.638   3.968  0.00  0.00     0.061 C 
HETATM    4  C   UNK N   1      28.478  17.797   4.548  0.00  0.00    -0.029 C 
HETATM    5  C   UNK N   1      28.493  17.640   6.079  0.00  0.00     0.024 C 
HETATM    6  C   UNK N   1      28.282  19.019   6.688  0.00  0.00    -0.007 C 
HETATM    7  C   UNK N   1      29.522  17.150   3.693  0.00  0.00     0.201 C 
HETATM    8  C   UNK N   1      30.932  17.375   4.265  0.00  0.00     0.049 C 
HETATM    9  C   UNK N   1      31.049  17.480   5.810  0.00  0.00     0.021 C 
HETATM   10  C   UNK N   1      29.798  16.892   6.562  0.00  0.00     0.081 C 
HETATM   11  C   UNK N   1      32.310  16.719   6.276  0.00  0.00     0.001 C 
HETATM   12  C   UNK N   1      32.544  16.817   7.781  0.00  0.00    -0.027 C 
HETATM   13  C   UNK N   1      31.331  16.244   8.530  0.00  0.00     0.044 C 
HETATM   14  C   UNK N   1      30.018  16.948   8.111  0.00  0.00     0.144 C 
HETATM   15  F   UNK N   1      29.271  15.804   3.524  0.00  0.00    -0.245 F 
HETATM   16 Cl   UNK N   1      29.632  15.119   6.191  0.00  0.00    -0.115 Cl
HETATM   17  C   UNK N   1      32.835  18.256   8.241  0.00  0.00     0.016 C 
HETATM   18  C   UNK N   1      27.254  16.843   6.500  0.00  0.00     0.027 C 
HETATM   19  O   UNK N   1      25.852  20.149   4.379  0.00  0.00    -0.289 OA
HETATM   20  C   UNK N   1      33.806  15.964   7.870  0.00  0.00     0.070 C 
HETATM   21  C   UNK N   1      34.650  16.389   6.649  0.00  0.00    -0.006 C 
HETATM   22  C   UNK N   1      33.665  17.086   5.693  0.00  0.00     0.011 C 
HETATM   23  C   UNK N   1      35.232  15.157   5.981  0.00  0.00     0.011 C 
ENDROOT
BRANCH  20  24
HETATM   24  C   UNK N   1      34.526  15.912   9.201  0.00  0.00     0.155 C 
HETATM   25  O   UNK N   1      35.272  16.824   9.518  0.00  0.00    -0.295 OA
BRANCH  24  26
HETATM   26  C   UNK N   1      34.307  14.792  10.167  0.00  0.00     0.242 C 
BRANCH  26  27
HETATM   27  O   UNK N   1      33.326  15.158  11.092  0.00  0.00    -0.394 OA
HETATM   28  H   UNK N   1      32.380  15.317  10.945  0.00  0.00     0.209 HD
ENDBRANCH  26  27
ENDBRANCH  24  26
ENDBRANCH  20  24
BRANCH  14  29
HETATM   29  O   UNK N   1      30.025  18.255   8.607  0.00  0.00    -0.394 OA
HETATM   30  H   UNK N   1      29.830  18.819   9.371  0.00  0.00     0.210 HD
ENDBRANCH  14  29
TORSDOF 4
ENDMDL
MODEL 2
REMARK VINA RESULT:      -7.4     15.055     16.538
REMARK  4 active torsions:
REMARK  status: ('A' for Active; 'I' for Inactive)
REMARK    1  A    between atoms: C_14  and  O_20 
REMARK    2  A    between atoms: C_21  and  C_24 
REMARK    3  A    between atoms: C_24  and  C_25 
REMARK    4  A    between atoms: C_25  and  O_27 
ROOT
HETATM    1  C   UNK N   1      27.429  29.281  -2.545  0.00  0.00     0.052 C 
HETATM    2  C   UNK N   1      28.814  29.803  -2.483  0.00  0.00     0.172 C 
HETATM    3  C   UNK N   1      29.838  29.088  -3.270  0.00  0.00     0.061 C 
HETATM    4  C   UNK N   1      29.444  28.346  -4.321  0.00  0.00    -0.029 C 
HETATM    5  C   UNK N   1      27.986  28.412  -4.805  0.00  0.00     0.024 C 
HETATM    6  C   UNK N   1      27.091  28.480  -3.574  0.00  0.00    -0.007 C 
HETATM    7  C   UNK N   1      30.406  27.354  -4.896  0.00  0.00     0.201 C 
HETATM    8  C   UNK N   1      29.780  25.952  -4.981  0.00  0.00     0.049 C 
HETATM    9  C   UNK N   1      28.248  25.886  -5.227  0.00  0.00     0.021 C 
HETATM   10  C   UNK N   1      27.660  27.228  -5.799  0.00  0.00     0.081 C 
HETATM   11  C   UNK N   1      27.944  24.747  -6.225  0.00  0.00     0.001 C 
HETATM   12  C   UNK N   1      26.451  24.563  -6.484  0.00  0.00    -0.027 C 
HETATM   13  C   UNK N   1      25.861  25.867  -7.046  0.00  0.00     0.044 C 
HETATM   14  C   UNK N   1      26.133  27.066  -6.107  0.00  0.00     0.144 C 
HETATM   15  F   UNK N   1      30.870  27.759  -6.131  0.00  0.00    -0.245 F 
HETATM   16 Cl   UNK N   1      28.413  27.593  -7.415  0.00  0.00    -0.115 Cl
HETATM   17  C   UNK N   1      25.683  24.120  -5.227  0.00  0.00     0.016 C 
HETATM   18  C   UNK N   1      27.766  29.755  -5.510  0.00  0.00     0.027 C 
HETATM   19  O   UNK N   1      29.129  30.658  -1.673  0.00  0.00    -0.289 OA
HETATM   20  C   UNK N   1      26.534  23.419  -7.489  0.00  0.00     0.070 C 
HETATM   21  C   UNK N   1      27.621  22.480  -6.922  0.00  0.00    -0.006 C 
HETATM   22  C   UNK N   1      28.414  23.334  -5.916  0.00  0.00     0.011 C 
HETATM   23  C   UNK N   1      28.534  22.026  -8.045  0.00  0.00     0.011 C 
ENDROOT
BRANCH  20  24
HETATM   24  C   UNK N   1      25.237  22.766  -7.918  0.00  0.00     0.155 C 
HETATM   25  O   UNK N   1      24.488  23.358  -8.678  0.00  0.00    -0.295 OA
BRANCH  24  26
HETATM   26  C   UNK N   1      24.871  21.386  -7.475  0.00  0.00     0.242 C 
BRANCH  26  27
HETATM   27  O   UNK N   1      23.686  21.431  -6.737  0.00  0.00    -0.394 OA
HETATM   28  H   UNK N   1      23.570  21.489  -5.775  0.00  0.00     0.209 HD
ENDBRANCH  26  27
ENDBRANCH  24  26
ENDBRANCH  20  24
BRANCH  14  29
HETATM   29  O   UNK N   1      25.363  26.922  -4.950  0.00  0.00    -0.394 OA
HETATM   30  H   UNK N   1      24.510  26.636  -4.590  0.00  0.00     0.210 HD
ENDBRANCH  14  29
TORSDOF 4
ENDMDL
MODEL 3
REMARK VINA RESULT:      -7.2     11.518     14.706
REMARK  4 active torsions:
REMARK  status: ('A' for Active; 'I' for Inactive)
REMARK    1  A    between atoms: C_14  and  O_20 
REMARK    2  A    between atoms: C_21  and  C_24 
REMARK    3  A    between atoms: C_24  and  C_25 
REMARK    4  A    between atoms: C_25  and  O_27 
ROOT
HETATM    1  C   UNK N   1      33.045  20.879  -3.048  0.00  0.00     0.052 C 
HETATM    2  C   UNK N   1      33.610  20.155  -4.210  0.00  0.00     0.172 C 
HETATM    3  C   UNK N   1      32.909  20.305  -5.501  0.00  0.00     0.061 C 
HETATM    4  C   UNK N   1      32.133  21.388  -5.693  0.00  0.00    -0.029 C 
HETATM    5  C   UNK N   1      32.145  22.534  -4.667  0.00  0.00     0.024 C 
HETATM    6  C   UNK N   1      32.212  21.913  -3.279  0.00  0.00    -0.007 C 
HETATM    7  C   UNK N   1      31.159  21.376  -6.829  0.00  0.00     0.201 C 
HETATM    8  C   UNK N   1      29.737  21.713  -6.350  0.00  0.00     0.049 C 
HETATM    9  C   UNK N   1      29.620  22.685  -5.144  0.00  0.00     0.021 C 
HETATM   10  C   UNK N   1      30.932  23.518  -4.898  0.00  0.00     0.081 C 
HETATM   11  C   UNK N   1      28.451  23.664  -5.394  0.00  0.00     0.001 C 
HETATM   12  C   UNK N   1      28.218  24.624  -4.231  0.00  0.00    -0.027 C 
HETATM   13  C   UNK N   1      29.491  25.448  -3.978  0.00  0.00     0.044 C 
HETATM   14  C   UNK N   1      30.717  24.538  -3.729  0.00  0.00     0.144 C 
HETATM   15  F   UNK N   1      31.551  22.230  -7.839  0.00  0.00    -0.245 F 
HETATM   16 Cl   UNK N   1      31.284  24.559  -6.349  0.00  0.00    -0.115 Cl
HETATM   17  C   UNK N   1      27.778  23.900  -2.946  0.00  0.00     0.016 C 
HETATM   18  C   UNK N   1      33.466  23.299  -4.807  0.00  0.00     0.027 C 
HETATM   19  O   UNK N   1      34.491  19.325  -4.068  0.00  0.00    -0.289 OA
HETATM   20  C   UNK N   1      27.055  25.417  -4.820  0.00  0.00     0.070 C 
HETATM   21  C   UNK N   1      26.162  24.354  -5.495  0.00  0.00    -0.006 C 
HETATM   22  C   UNK N   1      27.060  23.116  -5.670  0.00  0.00     0.011 C 
HETATM   23  C   UNK N   1      25.711  24.859  -6.853  0.00  0.00     0.011 C 
ENDROOT
BRANCH  20  24
HETATM   24  C   UNK N   1      26.355  26.411  -3.918  0.00  0.00     0.155 C 
HETATM   25  O   UNK N   1      26.240  26.168  -2.728  0.00  0.00    -0.295 OA
BRANCH  24  26
HETATM   26  C   UNK N   1      25.842  27.715  -4.439  0.00  0.00     0.242 C 
BRANCH  26  27
HETATM   27  O   UNK N   1      25.455  28.527  -3.370  0.00  0.00    -0.394 OA
HETATM   28  H   UNK N   1      24.603  28.557  -2.907  0.00  0.00     0.209 HD
ENDBRANCH  26  27
ENDBRANCH  24  26
ENDBRANCH  20  24
BRANCH  14  29
HETATM   29  O   UNK N   1      30.575  23.912  -2.488  0.00  0.00    -0.394 OA
HETATM   30  H   UNK N   1      30.920  23.843  -1.584  0.00  0.00     0.210 HD
ENDBRANCH  14  29
TORSDOF 4
ENDMDL
MODEL 4
REMARK VINA RESULT:      -7.1      3.148      4.096
REMARK  4 active torsions:
REMARK  status: ('A' for Active; 'I' for Inactive)
REMARK    1  A    between atoms: C_14  and  O_20 
REMARK    2  A    between atoms: C_21  and  C_24 
REMARK    3  A    between atoms: C_24  and  C_25 
REMARK    4  A    between atoms: C_25  and  O_27 
ROOT
HETATM    1  C   UNK N   1      28.958  13.168   3.809  0.00  0.00     0.052 C 
HETATM    2  C   UNK N   1      28.573  14.020   2.660  0.00  0.00     0.172 C 
HETATM    3  C   UNK N   1      29.210  15.349   2.566  0.00  0.00     0.061 C 
HETATM    4  C   UNK N   1      30.386  15.547   3.189  0.00  0.00    -0.029 C 
HETATM    5  C   UNK N   1      31.138  14.357   3.808  0.00  0.00     0.024 C 
HETATM    6  C   UNK N   1      30.107  13.442   4.456  0.00  0.00    -0.007 C 
HETATM    7  C   UNK N   1      30.856  16.952   3.397  0.00  0.00     0.201 C 
HETATM    8  C   UNK N   1      31.200  17.214   4.873  0.00  0.00     0.049 C 
HETATM    9  C   UNK N   1      31.748  16.010   5.686  0.00  0.00     0.021 C 
HETATM   10  C   UNK N   1      32.289  14.848   4.773  0.00  0.00     0.081 C 
HETATM   11  C   UNK N   1      32.893  16.495   6.602  0.00  0.00     0.001 C 
HETATM   12  C   UNK N   1      33.458  15.388   7.488  0.00  0.00    -0.027 C 
HETATM   13  C   UNK N   1      33.993  14.246   6.610  0.00  0.00     0.044 C 
HETATM   14  C   UNK N   1      32.905  13.707   5.651  0.00  0.00     0.144 C 
HETATM   15  F   UNK N   1      31.930  17.251   2.583  0.00  0.00    -0.245 F 
HETATM   16 Cl   UNK N   1      33.682  15.450   3.768  0.00  0.00    -0.115 Cl
HETATM   17  C   UNK N   1      32.426  14.857   8.499  0.00  0.00     0.016 C 
HETATM   18  C   UNK N   1      31.737  13.515   2.676  0.00  0.00     0.027 C 
HETATM   19  O   UNK N   1      27.637  13.721   1.939  0.00  0.00    -0.289 OA
HETATM   20  C   UNK N   1      34.535  16.197   8.204  0.00  0.00     0.070 C 
HETATM   21  C   UNK N   1      33.861  17.550   8.519  0.00  0.00    -0.006 C 
HETATM   22  C   UNK N   1      32.640  17.626   7.584  0.00  0.00     0.011 C 
HETATM   23  C   UNK N   1      34.822  18.681   8.203  0.00  0.00     0.011 C 
ENDROOT
BRANCH  20  24
HETATM   24  C   UNK N   1      35.273  15.531   9.345  0.00  0.00     0.155 C 
HETATM   25  O   UNK N   1      35.760  14.424   9.182  0.00  0.00    -0.295 OA
BRANCH  24  26
HETATM   26  C   UNK N   1      35.467  16.216  10.659  0.00  0.00     0.242 C 
BRANCH  26  27
HETATM   27  O   UNK N   1      36.824  16.213  10.993  0.00  0.00    -0.394 OA
HETATM   28  H   UNK N   1      37.568  15.825  10.506  0.00  0.00     0.209 HD
ENDBRANCH  26  27
ENDBRANCH  24  26
ENDBRANCH  20  24
BRANCH  14  29
HETATM   29  O   UNK N   1      31.942  13.021   6.395  0.00  0.00    -0.394 OA
HETATM   30  H   UNK N   1      31.376  12.235   6.435  0.00  0.00     0.210 HD
ENDBRANCH  14  29
TORSDOF 4
ENDMDL
MODEL 5
REMARK VINA RESULT:      -7.1      3.640      5.387
REMARK  4 active torsions:
REMARK  status: ('A' for Active; 'I' for Inactive)
REMARK    1  A    between atoms: C_14  and  O_20 
REMARK    2  A    between atoms: C_21  and  C_24 
REMARK    3  A    between atoms: C_24  and  C_25 
REMARK    4  A    between atoms: C_25  and  O_27 
ROOT
HETATM    1  C   UNK N   1      32.467  17.490   5.682  0.00  0.00     0.052 C 
HETATM    2  C   UNK N   1      32.788  16.941   4.344  0.00  0.00     0.172 C 
HETATM    3  C   UNK N   1      33.758  15.830   4.289  0.00  0.00     0.061 C 
HETATM    4  C   UNK N   1      33.940  15.076   5.388  0.00  0.00    -0.029 C 
HETATM    5  C   UNK N   1      33.009  15.247   6.601  0.00  0.00     0.024 C 
HETATM    6  C   UNK N   1      32.732  16.735   6.766  0.00  0.00    -0.007 C 
HETATM    7  C   UNK N   1      35.148  14.195   5.458  0.00  0.00     0.201 C 
HETATM    8  C   UNK N   1      35.948  14.443   6.747  0.00  0.00     0.049 C 
HETATM    9  C   UNK N   1      35.136  14.866   8.001  0.00  0.00     0.021 C 
HETATM   10  C   UNK N   1      33.602  14.535   7.880  0.00  0.00     0.081 C 
HETATM   11  C   UNK N   1      35.703  14.141   9.242  0.00  0.00     0.001 C 
HETATM   12  C   UNK N   1      35.005  14.541  10.538  0.00  0.00    -0.027 C 
HETATM   13  C   UNK N   1      33.504  14.222  10.437  0.00  0.00     0.044 C 
HETATM   14  C   UNK N   1      32.859  14.905   9.208  0.00  0.00     0.144 C 
HETATM   15  F   UNK N   1      34.807  12.862   5.342  0.00  0.00    -0.245 F 
HETATM   16 Cl   UNK N   1      33.370  12.738   7.715  0.00  0.00    -0.115 Cl
HETATM   17  C   UNK N   1      35.220  16.023  10.892  0.00  0.00     0.016 C 
HETATM   18  C   UNK N   1      31.644  14.641   6.258  0.00  0.00     0.027 C 
HETATM   19  O   UNK N   1      32.421  17.505   3.327  0.00  0.00    -0.289 OA
HETATM   20  C   UNK N   1      35.781  13.646  11.500  0.00  0.00     0.070 C 
HETATM   21  C   UNK N   1      37.247  13.745  11.026  0.00  0.00    -0.006 C 
HETATM   22  C   UNK N   1      37.176  14.286   9.586  0.00  0.00     0.011 C 
HETATM   23  C   UNK N   1      37.874  12.364  11.028  0.00  0.00     0.011 C 
ENDROOT
BRANCH  20  24
HETATM   24  C   UNK N   1      35.538  13.831  12.983  0.00  0.00     0.155 C 
HETATM   25  O   UNK N   1      34.574  13.296  13.506  0.00  0.00    -0.295 OA
BRANCH  24  26
HETATM   26  C   UNK N   1      36.481  14.614  13.839  0.00  0.00     0.242 C 
BRANCH  26  27
HETATM   27  O   UNK N   1      37.220  13.740  14.640  0.00  0.00    -0.394 OA
HETATM   28  H   UNK N   1      37.383  12.792  14.516  0.00  0.00     0.209 HD
ENDBRANCH  26  27
ENDBRANCH  24  26
ENDBRANCH  20  24
BRANCH  14  29
HETATM   29  O   UNK N   1      32.807  16.284   9.429  0.00  0.00    -0.394 OA
HETATM   30  H   UNK N   1      33.147  17.020   9.960  0.00  0.00     0.210 HD
ENDBRANCH  14  29
TORSDOF 4
ENDMDL
MODEL 6
REMARK VINA RESULT:      -7.0     14.347     16.834
REMARK  4 active torsions:
REMARK  status: ('A' for Active; 'I' for Inactive)
REMARK    1  A    between atoms: C_14  and  O_20 
REMARK    2  A    between atoms: C_21  and  C_24 
REMARK    3  A    between atoms: C_24  and  C_25 
REMARK    4  A    between atoms: C_25  and  O_27 
ROOT
HETATM    1  C   UNK N   1      26.391  28.602  -5.150  0.00  0.00     0.052 C 
HETATM    2  C   UNK N   1      26.436  28.426  -3.680  0.00  0.00     0.172 C 
HETATM    3  C   UNK N   1      26.394  27.043  -3.166  0.00  0.00     0.061 C 
HETATM    4  C   UNK N   1      26.780  26.041  -3.977  0.00  0.00    -0.029 C 
HETATM    5  C   UNK N   1      27.440  26.358  -5.330  0.00  0.00     0.024 C 
HETATM    6  C   UNK N   1      26.713  27.553  -5.931  0.00  0.00    -0.007 C 
HETATM    7  C   UNK N   1      26.415  24.639  -3.603  0.00  0.00     0.201 C 
HETATM    8  C   UNK N   1      25.696  23.922  -4.758  0.00  0.00     0.049 C 
HETATM    9  C   UNK N   1      26.105  24.335  -6.198  0.00  0.00     0.021 C 
HETATM   10  C   UNK N   1      27.491  25.077  -6.253  0.00  0.00     0.081 C 
HETATM   11  C   UNK N   1      26.183  23.072  -7.085  0.00  0.00     0.001 C 
HETATM   12  C   UNK N   1      26.521  23.385  -8.540  0.00  0.00    -0.027 C 
HETATM   13  C   UNK N   1      27.875  24.109  -8.611  0.00  0.00     0.044 C 
HETATM   14  C   UNK N   1      27.884  25.386  -7.737  0.00  0.00     0.144 C 
HETATM   15  F   UNK N   1      27.520  23.921  -3.194  0.00  0.00    -0.245 F 
HETATM   16 Cl   UNK N   1      28.807  23.972  -5.655  0.00  0.00    -0.115 Cl
HETATM   17  C   UNK N   1      25.427  24.214  -9.236  0.00  0.00     0.016 C 
HETATM   18  C   UNK N   1      28.862  26.867  -5.072  0.00  0.00     0.027 C 
HETATM   19  O   UNK N   1      26.316  29.378  -2.928  0.00  0.00    -0.289 OA
HETATM   20  C   UNK N   1      26.534  21.959  -9.082  0.00  0.00     0.070 C 
HETATM   21  C   UNK N   1      25.322  21.277  -8.411  0.00  0.00    -0.006 C 
HETATM   22  C   UNK N   1      24.971  22.162  -7.202  0.00  0.00     0.011 C 
HETATM   23  C   UNK N   1      25.718  19.891  -7.937  0.00  0.00     0.011 C 
ENDROOT
BRANCH  20  24
HETATM   24  C   UNK N   1      26.666  21.778 -10.579  0.00  0.00     0.155 C 
HETATM   25  O   UNK N   1      25.665  21.774 -11.275  0.00  0.00    -0.295 OA
BRANCH  24  26
HETATM   26  C   UNK N   1      28.003  21.653 -11.238  0.00  0.00     0.242 C 
BRANCH  26  27
HETATM   27  O   UNK N   1      28.911  21.077 -10.347  0.00  0.00    -0.394 OA
HETATM   28  H   UNK N   1      29.756  21.431 -10.027  0.00  0.00     0.209 HD
ENDBRANCH  26  27
ENDBRANCH  24  26
ENDBRANCH  20  24
BRANCH  14  29
HETATM   29  O   UNK N   1      27.057  26.346  -8.325  0.00  0.00    -0.394 OA
HETATM   30  H   UNK N   1      26.871  27.293  -8.414  0.00  0.00     0.210 HD
ENDBRANCH  14  29
TORSDOF 4
ENDMDL
MODEL 7
REMARK VINA RESULT:      -7.0      2.826      4.575
REMARK  4 active torsions:
REMARK  status: ('A' for Active; 'I' for Inactive)
REMARK    1  A    between atoms: C_14  and  O_20 
REMARK    2  A    between atoms: C_21  and  C_24 
REMARK    3  A    between atoms: C_24  and  C_25 
REMARK    4  A    between atoms: C_25  and  O_27 
ROOT
HETATM    1  C   UNK N   1      29.962  15.224   4.768  0.00  0.00     0.052 C 
HETATM    2  C   UNK N   1      29.019  16.296   5.161  0.00  0.00     0.172 C 
HETATM    3  C   UNK N   1      29.306  17.015   6.419  0.00  0.00     0.061 C 
HETATM    4  C   UNK N   1      30.568  17.022   6.886  0.00  0.00    -0.029 C 
HETATM    5  C   UNK N   1      31.711  16.466   6.020  0.00  0.00     0.024 C 
HETATM    6  C   UNK N   1      31.194  15.220   5.314  0.00  0.00    -0.007 C 
HETATM    7  C   UNK N   1      30.801  17.431   8.306  0.00  0.00     0.201 C 
HETATM    8  C   UNK N   1      31.615  16.372   9.068  0.00  0.00     0.049 C 
HETATM    9  C   UNK N   1      32.648  15.560   8.240  0.00  0.00     0.021 C 
HETATM   10  C   UNK N   1      33.021  16.249   6.876  0.00  0.00     0.081 C 
HETATM   11  C   UNK N   1      33.937  15.381   9.073  0.00  0.00     0.001 C 
HETATM   12  C   UNK N   1      34.994  14.539   8.365  0.00  0.00    -0.027 C 
HETATM   13  C   UNK N   1      35.371  15.201   7.029  0.00  0.00     0.044 C 
HETATM   14  C   UNK N   1      34.128  15.427   6.135  0.00  0.00     0.144 C 
HETATM   15  F   UNK N   1      31.413  18.667   8.381  0.00  0.00    -0.245 F 
HETATM   16 Cl   UNK N   1      33.792  17.867   7.192  0.00  0.00    -0.115 Cl
HETATM   17  C   UNK N   1      34.539  13.087   8.139  0.00  0.00     0.016 C 
HETATM   18  C   UNK N   1      31.992  17.458   4.887  0.00  0.00     0.027 C 
HETATM   19  O   UNK N   1      27.958  16.446   4.582  0.00  0.00    -0.289 OA
HETATM   20  C   UNK N   1      36.083  14.596   9.431  0.00  0.00     0.070 C 
HETATM   21  C   UNK N   1      35.329  14.422  10.767  0.00  0.00    -0.006 C 
HETATM   22  C   UNK N   1      33.857  14.743  10.451  0.00  0.00     0.011 C 
HETATM   23  C   UNK N   1      35.864  15.413  11.784  0.00  0.00     0.011 C 
ENDROOT
BRANCH  20  24
HETATM   24  C   UNK N   1      37.308  13.730   9.231  0.00  0.00     0.155 C 
HETATM   25  O   UNK N   1      38.034  13.925   8.270  0.00  0.00    -0.295 OA
BRANCH  24  26
HETATM   26  C   UNK N   1      37.685  12.667  10.214  0.00  0.00     0.242 C 
BRANCH  26  27
HETATM   27  O   UNK N   1      38.614  13.179  11.123  0.00  0.00    -0.394 OA
HETATM   28  H   UNK N   1      38.738  12.952  12.058  0.00  0.00     0.209 HD
ENDBRANCH  26  27
ENDBRANCH  24  26
ENDBRANCH  20  24
BRANCH  14  29
HETATM   29  O   UNK N   1      33.666  14.190   5.679  0.00  0.00    -0.394 OA
HETATM   30  H   UNK N   1      33.851  13.240   5.623  0.00  0.00     0.210 HD
ENDBRANCH  14  29
TORSDOF 4
ENDMDL
MODEL 8
REMARK VINA RESULT:      -6.9      5.121      9.491
REMARK  4 active torsions:
REMARK  status: ('A' for Active; 'I' for Inactive)
REMARK    1  A    between atoms: C_14  and  O_20 
REMARK    2  A    between atoms: C_21  and  C_24 
REMARK    3  A    between atoms: C_24  and  C_25 
REMARK    4  A    between atoms: C_25  and  O_27 
ROOT
HETATM    1  C   UNK N   1      34.538  10.504  13.986  0.00  0.00     0.052 C 
HETATM    2  C   UNK N   1      35.352   9.286  13.769  0.00  0.00     0.172 C 
HETATM    3  C   UNK N   1      36.065   9.174  12.481  0.00  0.00     0.061 C 
HETATM    4  C   UNK N   1      36.337  10.298  11.793  0.00  0.00    -0.029 C 
HETATM    5  C   UNK N   1      36.090  11.673  12.438  0.00  0.00     0.024 C 
HETATM    6  C   UNK N   1      34.790  11.588  13.227  0.00  0.00    -0.007 C 
HETATM    7  C   UNK N   1      36.729  10.178  10.354  0.00  0.00     0.201 C 
HETATM    8  C   UNK N   1      35.851  11.067   9.458  0.00  0.00     0.049 C 
HETATM    9  C   UNK N   1      35.328  12.388  10.085  0.00  0.00     0.021 C 
HETATM   10  C   UNK N   1      36.139  12.826  11.360  0.00  0.00     0.081 C 
HETATM   11  C   UNK N   1      35.410  13.517   9.034  0.00  0.00     0.001 C 
HETATM   12  C   UNK N   1      34.859  14.846   9.540  0.00  0.00    -0.027 C 
HETATM   13  C   UNK N   1      35.643  15.289  10.786  0.00  0.00     0.044 C 
HETATM   14  C   UNK N   1      35.619  14.205  11.889  0.00  0.00     0.144 C 
HETATM   15  F   UNK N   1      38.067  10.467  10.170  0.00  0.00    -0.245 F 
HETATM   16 Cl   UNK N   1      37.875  13.137  10.910  0.00  0.00    -0.115 Cl
HETATM   17  C   UNK N   1      33.351  14.783   9.844  0.00  0.00     0.016 C 
HETATM   18  C   UNK N   1      37.165  11.913  13.503  0.00  0.00     0.027 C 
HETATM   19  O   UNK N   1      35.282   8.337  14.531  0.00  0.00    -0.289 OA
HETATM   20  C   UNK N   1      35.116  15.689   8.294  0.00  0.00     0.070 C 
HETATM   21  C   UNK N   1      34.721  14.772   7.116  0.00  0.00    -0.006 C 
HETATM   22  C   UNK N   1      34.714  13.344   7.694  0.00  0.00     0.011 C 
HETATM   23  C   UNK N   1      35.764  14.878   6.020  0.00  0.00     0.011 C 
ENDROOT
BRANCH  20  24
HETATM   24  C   UNK N   1      34.557  17.095   8.270  0.00  0.00     0.155 C 
HETATM   25  O   UNK N   1      34.975  17.923   9.063  0.00  0.00    -0.295 OA
BRANCH  24  26
HETATM   26  C   UNK N   1      33.538  17.516   7.260  0.00  0.00     0.242 C 
BRANCH  26  27
HETATM   27  O   UNK N   1      34.183  18.000   6.119  0.00  0.00    -0.394 OA
HETATM   28  H   UNK N   1      33.797  18.434   5.342  0.00  0.00     0.209 HD
ENDBRANCH  26  27
ENDBRANCH  24  26
ENDBRANCH  20  24
BRANCH  14  29
HETATM   29  O   UNK N   1      34.330  14.126  12.421  0.00  0.00    -0.394 OA
HETATM   30  H   UNK N   1      33.551  14.630  12.703  0.00  0.00     0.210 HD
ENDBRANCH  14  29
TORSDOF 4
ENDMDL
MODEL 9
REMARK VINA RESULT:      -6.8     12.232     14.712
REMARK  4 active torsions:
REMARK  status: ('A' for Active; 'I' for Inactive)
REMARK    1  A    between atoms: C_14  and  O_20 
REMARK    2  A    between atoms: C_21  and  C_24 
REMARK    3  A    between atoms: C_24  and  C_25 
REMARK    4  A    between atoms: C_25  and  O_27 
ROOT
HETATM    1  C   UNK N   1      26.486  28.801  -3.312  0.00  0.00     0.052 C 
HETATM    2  C   UNK N   1      26.630  29.975  -4.203  0.00  0.00     0.172 C 
HETATM    3  C   UNK N   1      27.729  29.940  -5.189  0.00  0.00     0.061 C 
HETATM    4  C   UNK N   1      28.225  28.746  -5.562  0.00  0.00    -0.029 C 
HETATM    5  C   UNK N   1      27.521  27.450  -5.122  0.00  0.00     0.024 C 
HETATM    6  C   UNK N   1      27.059  27.639  -3.683  0.00  0.00    -0.007 C 
HETATM    7  C   UNK N   1      29.542  28.709  -6.270  0.00  0.00     0.201 C 
HETATM    8  C   UNK N   1      30.522  27.747  -5.578  0.00  0.00     0.049 C 
HETATM    9  C   UNK N   1      29.904  26.508  -4.875  0.00  0.00     0.021 C 
HETATM   10  C   UNK N   1      28.443  26.191  -5.364  0.00  0.00     0.081 C 
HETATM   11  C   UNK N   1      30.795  25.275  -5.145  0.00  0.00     0.001 C 
HETATM   12  C   UNK N   1      30.300  24.015  -4.441  0.00  0.00    -0.027 C 
HETATM   13  C   UNK N   1      28.872  23.690  -4.910  0.00  0.00     0.044 C 
HETATM   14  C   UNK N   1      27.913  24.883  -4.684  0.00  0.00     0.144 C 
HETATM   15  F   UNK N   1      29.390  28.379  -7.602  0.00  0.00    -0.245 F 
HETATM   16 Cl   UNK N   1      28.457  25.804  -7.142  0.00  0.00    -0.115 Cl
HETATM   17  C   UNK N   1      30.352  24.135  -2.908  0.00  0.00     0.016 C 
HETATM   18  C   UNK N   1      26.223  27.303  -5.923  0.00  0.00     0.027 C 
HETATM   19  O   UNK N   1      26.000  30.999  -4.003  0.00  0.00    -0.289 OA
HETATM   20  C   UNK N   1      31.367  23.043  -4.936  0.00  0.00     0.070 C 
HETATM   21  C   UNK N   1      32.687  23.840  -4.850  0.00  0.00    -0.006 C 
HETATM   22  C   UNK N   1      32.268  25.319  -4.772  0.00  0.00     0.011 C 
HETATM   23  C   UNK N   1      33.504  23.602  -6.107  0.00  0.00     0.011 C 
ENDROOT
BRANCH  20  24
HETATM   24  C   UNK N   1      31.380  21.652  -4.340  0.00  0.00     0.155 C 
HETATM   25  O   UNK N   1      30.438  20.903  -4.540  0.00  0.00    -0.295 OA
BRANCH  24  26
HETATM   26  C   UNK N   1      32.546  21.148  -3.552  0.00  0.00     0.242 C 
BRANCH  26  27
HETATM   27  O   UNK N   1      32.294  21.312  -2.187  0.00  0.00    -0.394 OA
HETATM   28  H   UNK N   1      32.292  20.644  -1.485  0.00  0.00     0.209 HD
ENDBRANCH  26  27
ENDBRANCH  24  26
ENDBRANCH  20  24
BRANCH  14  29
HETATM   29  O   UNK N   1      27.697  25.039  -3.313  0.00  0.00    -0.394 OA
HETATM   30  H   UNK N   1      27.337  25.617  -2.622  0.00  0.00     0.210 HD
ENDBRANCH  14  29
TORSDOF 4
ENDMDL
