MODEL 1
REMARK VINA RESULT:      -4.9      0.000      0.000
REMARK  4 active torsions:
REMARK  status: ('A' for Active; 'I' for Inactive)
REMARK    1  A    between atoms: C_5  and  C_8 
REMARK    2  A    between atoms: C_6  and  C_10 
REMARK    3  A    between atoms: C_8  and  O_7 
REMARK    4  A    between atoms: C_10  and  N_11 
ROOT
HETATM    1  C   UNK N   1      33.756  17.581   6.263  0.00  0.00     0.015 A 
HETATM    2  C   UNK N   1      32.578  17.210   5.396  0.00  0.00     0.007 A 
HETATM    3  C   UNK N   1      30.943  17.334   7.567  0.00  0.00     0.007 A 
HETATM    4  C   UNK N   1      32.118  17.705   8.433  0.00  0.00     0.015 A 
HETATM    5  C   UNK N   1      33.465  17.810   7.737  0.00  0.00     0.084 A 
HETATM    6  C   UNK N   1      31.231  17.104   6.085  0.00  0.00     0.003 A 
ENDROOT
BRANCH   5   7
HETATM    7  C   UNK N   1      34.597  18.175   8.610  0.00  0.00     0.143 C 
HETATM    8  O   UNK N   1      35.252  19.186   8.375  0.00  0.00    -0.650 OA
BRANCH   7   9
HETATM    9  O   UNK N   1      34.911  17.405   9.661  0.00  0.00    -0.776 OA
HETATM   10  H   UNK N   1      35.485  17.732  10.325  0.00  0.00     0.167 HD
ENDBRANCH   7   9
ENDBRANCH   5   7
BRANCH   6  11
HETATM   11  C   UNK N   1      30.094  16.730   5.168  0.00  0.00     0.115 C 
BRANCH  11  12
HETATM   12  N   UNK N   1      30.000  17.657   4.057  0.00  0.00    -0.430 N 
HETATM   13  H   UNK N   1      29.101  18.075   3.816  0.00  0.00     0.149 HD
HETATM   14  H   UNK N   1      30.832  17.890   3.516  0.00  0.00     0.149 HD
ENDBRANCH  11  12
ENDBRANCH   6  11
TORSDOF 4
ENDMDL
MODEL 2
REMARK VINA RESULT:      -4.8      2.317      2.743
REMARK  4 active torsions:
REMARK  status: ('A' for Active; 'I' for Inactive)
REMARK    1  A    between atoms: C_5  and  C_8 
REMARK    2  A    between atoms: C_6  and  C_10 
REMARK    3  A    between atoms: C_8  and  O_7 
REMARK    4  A    between atoms: C_10  and  N_11 
ROOT
HETATM    1  C   UNK N   1      31.565  17.092   5.963  0.00  0.00     0.015 A 
HETATM    2  C   UNK N   1      30.089  17.095   6.280  0.00  0.00     0.007 A 
HETATM    3  C   UNK N   1      30.631  17.984   8.793  0.00  0.00     0.007 A 
HETATM    4  C   UNK N   1      32.104  17.981   8.479  0.00  0.00     0.015 A 
HETATM    5  C   UNK N   1      32.496  17.535   7.080  0.00  0.00     0.084 A 
HETATM    6  C   UNK N   1      29.692  17.540   7.674  0.00  0.00     0.003 A 
ENDROOT
BRANCH   5   7
HETATM    7  C   UNK N   1      33.945  17.542   6.802  0.00  0.00     0.143 C 
HETATM    8  O   UNK N   1      34.673  18.354   7.365  0.00  0.00    -0.650 OA
BRANCH   7   9
HETATM    9  O   UNK N   1      34.468  16.663   5.936  0.00  0.00    -0.776 OA
HETATM   10  H   UNK N   1      34.895  16.969   5.159  0.00  0.00     0.167 HD
ENDBRANCH   7   9
ENDBRANCH   5   7
BRANCH   6  11
HETATM   11  C   UNK N   1      28.206  17.522   7.930  0.00  0.00     0.115 C 
BRANCH  11  12
HETATM   12  N   UNK N   1      27.850  18.464   8.974  0.00  0.00    -0.430 N 
HETATM   13  H   UNK N   1      26.884  18.529   9.295  0.00  0.00     0.149 HD
HETATM   14  H   UNK N   1      28.566  19.061   9.387  0.00  0.00     0.149 HD
ENDBRANCH  11  12
ENDBRANCH   6  11
TORSDOF 4
ENDMDL
MODEL 3
REMARK VINA RESULT:      -4.8     10.977     12.281
REMARK  4 active torsions:
REMARK  status: ('A' for Active; 'I' for Inactive)
REMARK    1  A    between atoms: C_5  and  C_8 
REMARK    2  A    between atoms: C_6  and  C_10 
REMARK    3  A    between atoms: C_8  and  O_7 
REMARK    4  A    between atoms: C_10  and  N_11 
ROOT
HETATM    1  C   UNK N   1      34.723  12.961  16.068  0.00  0.00     0.015 A 
HETATM    2  C   UNK N   1      35.075  12.975  17.535  0.00  0.00     0.007 A 
HETATM    3  C   UNK N   1      35.045  10.255  17.568  0.00  0.00     0.007 A 
HETATM    4  C   UNK N   1      34.694  10.240  16.103  0.00  0.00     0.015 A 
HETATM    5  C   UNK N   1      34.551  11.594  15.427  0.00  0.00     0.084 A 
HETATM    6  C   UNK N   1      35.219  11.627  18.215  0.00  0.00     0.003 A 
ENDROOT
BRANCH   5   7
HETATM    7  C   UNK N   1      34.207  11.546  13.994  0.00  0.00     0.143 C 
HETATM    8  O   UNK N   1      33.747  10.517  13.507  0.00  0.00    -0.650 OA
BRANCH   7   9
HETATM    9  O   UNK N   1      34.394  12.624  13.221  0.00  0.00    -0.776 OA
HETATM   10  H   UNK N   1      34.113  13.468  13.518  0.00  0.00     0.167 HD
ENDBRANCH   7   9
ENDBRANCH   5   7
BRANCH   6  11
HETATM   11  C   UNK N   1      35.571  11.707  19.679  0.00  0.00     0.115 C 
BRANCH  11  12
HETATM   12  N   UNK N   1      35.153  12.976  20.243  0.00  0.00    -0.430 N 
HETATM   13  H   UNK N   1      35.741  13.802  20.133  0.00  0.00     0.149 HD
HETATM   14  H   UNK N   1      34.270  13.042  20.750  0.00  0.00     0.149 HD
ENDBRANCH  11  12
ENDBRANCH   6  11
TORSDOF 4
ENDMDL
MODEL 4
REMARK VINA RESULT:      -4.8      0.625      1.985
REMARK  4 active torsions:
REMARK  status: ('A' for Active; 'I' for Inactive)
REMARK    1  A    between atoms: C_5  and  C_8 
REMARK    2  A    between atoms: C_6  and  C_10 
REMARK    3  A    between atoms: C_8  and  O_7 
REMARK    4  A    between atoms: C_10  and  N_11 
ROOT
HETATM    1  C   UNK N   1      31.920  17.550   7.962  0.00  0.00     0.015 A 
HETATM    2  C   UNK N   1      30.891  17.212   6.910  0.00  0.00     0.007 A 
HETATM    3  C   UNK N   1      32.822  17.297   4.995  0.00  0.00     0.007 A 
HETATM    4  C   UNK N   1      33.849  17.634   6.044  0.00  0.00     0.015 A 
HETATM    5  C   UNK N   1      33.346  17.744   7.474  0.00  0.00     0.084 A 
HETATM    6  C   UNK N   1      31.387  17.102   5.482  0.00  0.00     0.003 A 
ENDROOT
BRANCH   5   7
HETATM    7  C   UNK N   1      34.375  18.075   8.477  0.00  0.00     0.143 C 
HETATM    8  O   UNK N   1      34.561  17.328   9.434  0.00  0.00    -0.650 OA
BRANCH   7   9
HETATM    9  O   UNK N   1      35.108  19.189   8.347  0.00  0.00    -0.776 OA
HETATM   10  H   UNK N   1      35.629  19.319   7.579  0.00  0.00     0.167 HD
ENDBRANCH   7   9
ENDBRANCH   5   7
BRANCH   6  11
HETATM   11  C   UNK N   1      30.314  16.762   4.478  0.00  0.00     0.115 C 
BRANCH  11  12
HETATM   12  N   UNK N   1      30.794  16.955   3.123  0.00  0.00    -0.430 N 
HETATM   13  H   UNK N   1      30.505  17.776   2.591  0.00  0.00     0.149 HD
HETATM   14  H   UNK N   1      31.420  16.269   2.701  0.00  0.00     0.149 HD
ENDBRANCH  11  12
ENDBRANCH   6  11
TORSDOF 4
ENDMDL
MODEL 5
REMARK VINA RESULT:      -4.7     11.377     12.694
REMARK  4 active torsions:
REMARK  status: ('A' for Active; 'I' for Inactive)
REMARK    1  A    between atoms: C_5  and  C_8 
REMARK    2  A    between atoms: C_6  and  C_10 
REMARK    3  A    between atoms: C_8  and  O_7 
REMARK    4  A    between atoms: C_10  and  N_11 
ROOT
HETATM    1  C   UNK N   1      35.984  11.289  16.399  0.00  0.00     0.015 A 
HETATM    2  C   UNK N   1      35.823  10.658  17.760  0.00  0.00     0.007 A 
HETATM    3  C   UNK N   1      35.137  13.078  18.798  0.00  0.00     0.007 A 
HETATM    4  C   UNK N   1      35.298  13.708  17.440  0.00  0.00     0.015 A 
HETATM    5  C   UNK N   1      35.713  12.781  16.308  0.00  0.00     0.084 A 
HETATM    6  C   UNK N   1      35.408  11.578  18.892  0.00  0.00     0.003 A 
ENDROOT
BRANCH   5   7
HETATM    7  C   UNK N   1      35.863  13.427  14.991  0.00  0.00     0.143 C 
HETATM    8  O   UNK N   1      34.917  13.449  14.208  0.00  0.00    -0.650 OA
BRANCH   7   9
HETATM    9  O   UNK N   1      37.028  13.991  14.646  0.00  0.00    -0.776 OA
HETATM   10  H   UNK N   1      37.332  14.752  15.100  0.00  0.00     0.167 HD
ENDBRANCH   7   9
ENDBRANCH   5   7
BRANCH   6  11
HETATM   11  C   UNK N   1      35.264  10.891  20.227  0.00  0.00     0.115 C 
BRANCH  11  12
HETATM   12  N   UNK N   1      36.488  10.994  20.997  0.00  0.00    -0.430 N 
HETATM   13  H   UNK N   1      36.459  10.928  22.014  0.00  0.00     0.149 HD
HETATM   14  H   UNK N   1      37.380  11.132  20.521  0.00  0.00     0.149 HD
ENDBRANCH  11  12
ENDBRANCH   6  11
TORSDOF 4
ENDMDL
MODEL 6
REMARK VINA RESULT:      -4.6     15.314     16.619
REMARK  4 active torsions:
REMARK  status: ('A' for Active; 'I' for Inactive)
REMARK    1  A    between atoms: C_5  and  C_8 
REMARK    2  A    between atoms: C_6  and  C_10 
REMARK    3  A    between atoms: C_8  and  O_7 
REMARK    4  A    between atoms: C_10  and  N_11 
ROOT
HETATM    1  C   UNK N   1      26.117  25.117  -4.269  0.00  0.00     0.015 A 
HETATM    2  C   UNK N   1      26.145  24.241  -5.498  0.00  0.00     0.007 A 
HETATM    3  C   UNK N   1      25.591  26.404  -7.052  0.00  0.00     0.007 A 
HETATM    4  C   UNK N   1      25.562  27.279  -5.826  0.00  0.00     0.015 A 
HETATM    5  C   UNK N   1      25.827  26.591  -4.497  0.00  0.00     0.084 A 
HETATM    6  C   UNK N   1      25.882  24.922  -6.827  0.00  0.00     0.003 A 
ENDROOT
BRANCH   5   7
HETATM    7  C   UNK N   1      25.792  27.474  -3.315  0.00  0.00     0.143 C 
HETATM    8  O   UNK N   1      26.067  27.025  -2.206  0.00  0.00    -0.650 OA
BRANCH   7   9
HETATM    9  O   UNK N   1      25.462  28.765  -3.450  0.00  0.00    -0.776 OA
HETATM   10  H   UNK N   1      25.242  29.273  -2.694  0.00  0.00     0.167 HD
ENDBRANCH   7   9
ENDBRANCH   5   7
BRANCH   6  11
HETATM   11  C   UNK N   1      25.924  23.996  -8.016  0.00  0.00     0.115 C 
BRANCH  11  12
HETATM   12  N   UNK N   1      24.837  23.037  -7.963  0.00  0.00    -0.430 N 
HETATM   13  H   UNK N   1      24.993  22.110  -7.566  0.00  0.00     0.149 HD
HETATM   14  H   UNK N   1      23.916  23.289  -8.323  0.00  0.00     0.149 HD
ENDBRANCH  11  12
ENDBRANCH   6  11
TORSDOF 4
ENDMDL
MODEL 7
REMARK VINA RESULT:      -4.5     11.207     11.912
REMARK  4 active torsions:
REMARK  status: ('A' for Active; 'I' for Inactive)
REMARK    1  A    between atoms: C_5  and  C_8 
REMARK    2  A    between atoms: C_6  and  C_10 
REMARK    3  A    between atoms: C_8  and  O_7 
REMARK    4  A    between atoms: C_10  and  N_11 
ROOT
HETATM    1  C   UNK N   1      21.665  13.046  10.439  0.00  0.00     0.015 A 
HETATM    2  C   UNK N   1      21.000  13.194   9.093  0.00  0.00     0.007 A 
HETATM    3  C   UNK N   1      22.936  11.649   7.966  0.00  0.00     0.007 A 
HETATM    4  C   UNK N   1      23.601  11.502   9.310  0.00  0.00     0.015 A 
HETATM    5  C   UNK N   1      22.932  12.207  10.478  0.00  0.00     0.084 A 
HETATM    6  C   UNK N   1      21.663  12.492   7.923  0.00  0.00     0.003 A 
ENDROOT
BRANCH   5   7
HETATM    7  C   UNK N   1      23.607  12.044  11.780  0.00  0.00     0.143 C 
HETATM    8  O   UNK N   1      22.947  11.804  12.787  0.00  0.00    -0.650 OA
BRANCH   7   9
HETATM    9  O   UNK N   1      24.939  12.156  11.865  0.00  0.00    -0.776 OA
HETATM   10  H   UNK N   1      25.377  11.936  12.665  0.00  0.00     0.167 HD
ENDBRANCH   7   9
ENDBRANCH   5   7
BRANCH   6  11
HETATM   11  C   UNK N   1      20.952  12.676   6.606  0.00  0.00     0.115 C 
BRANCH  11  12
HETATM   12  N   UNK N   1      20.427  14.023   6.486  0.00  0.00    -0.430 N 
HETATM   13  H   UNK N   1      21.063  14.820   6.477  0.00  0.00     0.149 HD
HETATM   14  H   UNK N   1      19.421  14.173   6.412  0.00  0.00     0.149 HD
ENDBRANCH  11  12
ENDBRANCH   6  11
TORSDOF 4
ENDMDL
MODEL 8
REMARK VINA RESULT:      -4.5     10.674     11.700
REMARK  4 active torsions:
REMARK  status: ('A' for Active; 'I' for Inactive)
REMARK    1  A    between atoms: C_5  and  C_8 
REMARK    2  A    between atoms: C_6  and  C_10 
REMARK    3  A    between atoms: C_8  and  O_7 
REMARK    4  A    between atoms: C_10  and  N_11 
ROOT
HETATM    1  C   UNK N   1      34.900  13.175  16.397  0.00  0.00     0.015 A 
HETATM    2  C   UNK N   1      34.716  12.292  15.188  0.00  0.00     0.007 A 
HETATM    3  C   UNK N   1      34.993  10.086  16.757  0.00  0.00     0.007 A 
HETATM    4  C   UNK N   1      35.177  10.967  17.965  0.00  0.00     0.015 A 
HETATM    5  C   UNK N   1      35.121  12.467  17.724  0.00  0.00     0.084 A 
HETATM    6  C   UNK N   1      34.771  10.795  15.422  0.00  0.00     0.003 A 
ENDROOT
BRANCH   5   7
HETATM    7  C   UNK N   1      35.305  13.303  18.926  0.00  0.00     0.143 C 
HETATM    8  O   UNK N   1      35.265  14.526  18.834  0.00  0.00    -0.650 OA
BRANCH   7   9
HETATM    9  O   UNK N   1      35.514  12.729  20.118  0.00  0.00    -0.776 OA
HETATM   10  H   UNK N   1      36.261  12.178  20.247  0.00  0.00     0.167 HD
ENDBRANCH   7   9
ENDBRANCH   5   7
BRANCH   6  11
HETATM   11  C   UNK N   1      34.581   9.966  14.177  0.00  0.00     0.115 C 
BRANCH  11  12
HETATM   12  N   UNK N   1      33.649  10.605  13.268  0.00  0.00    -0.430 N 
HETATM   13  H   UNK N   1      33.661  11.618  13.154  0.00  0.00     0.149 HD
HETATM   14  H   UNK N   1      32.981  10.040  12.742  0.00  0.00     0.149 HD
ENDBRANCH  11  12
ENDBRANCH   6  11
TORSDOF 4
ENDMDL
MODEL 9
REMARK VINA RESULT:      -4.4     17.146     17.602
REMARK  4 active torsions:
REMARK  status: ('A' for Active; 'I' for Inactive)
REMARK    1  A    between atoms: C_5  and  C_8 
REMARK    2  A    between atoms: C_6  and  C_10 
REMARK    3  A    between atoms: C_8  and  O_7 
REMARK    4  A    between atoms: C_10  and  N_11 
ROOT
HETATM    1  C   UNK N   1      27.468  28.542  -6.214  0.00  0.00     0.015 A 
HETATM    2  C   UNK N   1      27.249  27.437  -7.217  0.00  0.00     0.007 A 
HETATM    3  C   UNK N   1      25.096  26.574  -5.794  0.00  0.00     0.007 A 
HETATM    4  C   UNK N   1      25.315  27.677  -4.792  0.00  0.00     0.015 A 
HETATM    5  C   UNK N   1      26.490  28.605  -5.052  0.00  0.00     0.084 A 
HETATM    6  C   UNK N   1      26.077  26.508  -6.963  0.00  0.00     0.003 A 
ENDROOT
BRANCH   5   7
HETATM    7  C   UNK N   1      26.678  29.674  -4.054  0.00  0.00     0.143 C 
HETATM    8  O   UNK N   1      26.466  29.448  -2.866  0.00  0.00    -0.650 OA
BRANCH   7   9
HETATM    9  O   UNK N   1      27.081  30.892  -4.440  0.00  0.00    -0.776 OA
HETATM   10  H   UNK N   1      26.448  31.541  -4.677  0.00  0.00     0.167 HD
ENDBRANCH   7   9
ENDBRANCH   5   7
BRANCH   6  11
HETATM   11  C   UNK N   1      25.909  25.425  -7.999  0.00  0.00     0.115 C 
BRANCH  11  12
HETATM   12  N   UNK N   1      25.398  24.209  -7.397  0.00  0.00    -0.430 N 
HETATM   13  H   UNK N   1      24.489  23.843  -7.679  0.00  0.00     0.149 HD
HETATM   14  H   UNK N   1      25.949  23.718  -6.692  0.00  0.00     0.149 HD
ENDBRANCH  11  12
ENDBRANCH   6  11
TORSDOF 4
ENDMDL
