REMARK  3 active torsions:
REMARK  status: ('A' for Active; 'I' for Inactive)
REMARK    1  A    between atoms: C_10  and  O_15 
REMARK    2  A    between atoms: N_13  and  C_16 
REMARK    3  A    between atoms: C_16  and  C_17 
ROOT
HETATM    1  C   UNK N   1      17.573 -11.081  -0.070  0.00  0.00    -0.009 C 
HETATM    2  C   UNK N   1      17.406  -9.581   0.136  0.00  0.00    -0.040 A 
HETATM    3  C   UNK N   1      18.598 -11.626   0.941  0.00  0.00     0.028 C 
HETATM    4  C   UNK N   1      16.242 -11.803   0.123  0.00  0.00     0.021 C 
HETATM    5  C   UNK N   1      18.090 -11.332  -1.492  0.00  0.00     0.044 C 
HETATM    6  C   UNK N   1      16.211  -8.944  -0.242  0.00  0.00     0.045 A 
HETATM    7  C   UNK N   1      18.465  -8.804   0.671  0.00  0.00    -0.049 A 
HETATM    8  C   UNK N   1      19.936 -10.912   0.703  0.00  0.00     0.232 C 
HETATM    9  C   UNK N   1      19.458 -10.658  -1.699  0.00  0.00     0.274 C 
HETATM   10  C   UNK N   1      16.054  -7.568  -0.068  0.00  0.00     0.066 A 
HETATM   11  C   UNK N   1      19.786  -9.424   1.072  0.00  0.00     0.075 C 
HETATM   12  C   UNK N   1      18.293  -7.426   0.840  0.00  0.00     0.010 A 
HETATM   13  N   UNK N   1      20.444 -11.063  -0.686  0.00  0.00     0.097 N 
HETATM   14  C   UNK N   1      17.093  -6.810   0.475  0.00  0.00     0.037 A 
HETATM   15  C   UNK N   1      18.747 -13.146   0.915  0.00  0.00     0.013 C 
ENDROOT
BRANCH  13  16
HETATM   16  C   UNK N   1      20.890 -12.423  -1.010  0.00  0.00     0.300 C 
BRANCH  16  17
HETATM   17  C   UNK N   1      21.929 -12.963  -0.062  0.00  0.00     0.005 C 
HETATM   18  C   UNK N   1      23.139 -12.423   0.119  0.00  0.00    -0.090 C 
HETATM   19  C   UNK N   1      24.084 -13.078   1.065  0.00  0.00     0.042 C 
HETATM   20  C   UNK N   1      23.572 -11.192  -0.608  0.00  0.00     0.042 C 
ENDBRANCH  16  17
ENDBRANCH  13  16
BRANCH  10  21
HETATM   21  O   UNK N   1      14.902  -6.976  -0.420  0.00  0.00    -0.361 OA
HETATM   22  H   UNK N   1      14.858  -6.073  -0.666  0.00  0.00     0.217 HD
ENDBRANCH  10  21
TORSDOF 3
