REMARK WARNING: 32 MAX_TORS EXCEEDED!!!
REMARK  42 active torsions:
REMARK  status: ('A' for Active; 'I' for Inactive)
REMARK    1  A    between atoms: C_1  and  C_28 
REMARK    2  A    between atoms: C_3  and  C_2 
REMARK    3  A    between atoms: C_2  and  C_82 
REMARK    4  A    between atoms: C_3  and  C_47 
REMARK    5  A    between atoms: N_4  and  C_3 
REMARK       I    between atoms: C_5  and  N_4 
REMARK    6  A    between atoms: C_6  and  C_5 
REMARK    7  A    between atoms: N_7  and  C_6 
REMARK       I    between atoms: C_8  and  N_7 
REMARK    8  A    between atoms: C_9  and  C_8 
REMARK    9  A    between atoms: N_10  and  C_9 
REMARK   10  A    between atoms: C_42  and  C_9 
REMARK       I    between atoms: C_11  and  N_10 
REMARK   11  A    between atoms: C_12  and  C_11 
REMARK   12  A    between atoms: C_12  and  C_13 
REMARK   13  A    between atoms: N_21  and  C_12 
REMARK   14  A    between atoms: C_14  and  C_13 
REMARK   15  A    between atoms: O_20  and  C_17 
REMARK   16  A    between atoms: O_20  and  S_91 
REMARK       I    between atoms: C_22  and  N_21 
REMARK   17  A    between atoms: C_23  and  C_22 
REMARK   18  A    between atoms: C_23  and  C_36 
REMARK   19  A    between atoms: N_24  and  C_23 
REMARK       I    between atoms: C_25  and  N_24 
REMARK   20  A    between atoms: C_26  and  C_25 
REMARK   21  A    between atoms: N_27  and  C_26 
REMARK   22  A    between atoms: C_26  and  C_30 
REMARK       I    between atoms: C_28  and  N_27 
REMARK   23  A    between atoms: C_31  and  C_30 
REMARK   24  A    between atoms: C_32  and  C_31 
REMARK       I    between atoms: N_33  and  C_32 
REMARK   25  A    between atoms: C_37  and  C_36 
REMARK   26  A    between atoms: O_39  and  C_37 
REMARK   27  A    between atoms: C_42  and  O_44 
REMARK       I    between atoms: N_48  and  C_47 
REMARK   28  A    between atoms: C_50  and  N_48 
REMARK   29  A    between atoms: C_51  and  C_50 
REMARK   30  A    between atoms: C_55  and  C_50 
REMARK   31  A    between atoms: C_52  and  C_51 
REMARK   32  A    between atoms: S_53  and  C_52 
REMARK       I    between atoms: N_56  and  C_55 
REMARK   33  A    between atoms: C_57  and  N_56 
REMARK   34  A    between atoms: C_58  and  C_57 
REMARK   35  A    between atoms: C_57  and  C_62 
REMARK   36  A    between atoms: C_59  and  C_58 
REMARK   37  A    between atoms: O_60  and  C_59 
REMARK       I    between atoms: N_65  and  C_62 
REMARK   38  A    between atoms: C_66  and  N_65 
REMARK   39  A    between atoms: C_67  and  C_66 
REMARK   40  A    between atoms: C_68  and  C_66 
REMARK   41  A    between atoms: C_71  and  C_67 
REMARK       I    between atoms: N_70  and  C_68 
REMARK   42  A    between atoms: S_91  and  O_92 
ROOT
HETATM    1  N   UNK N   1      14.239  -9.524   0.046  0.00  0.00    -0.350 N 
HETATM    2  C   UNK N   1      13.120  -8.959  -0.348  0.00  0.00     0.243 C 
HETATM    3  O   UNK N   1      12.504  -9.502  -1.248  0.00  0.00    -0.271 OA
HETATM    4  H   UNK N   1      14.286 -10.484   0.259  0.00  0.00     0.163 HD
ENDROOT
BRANCH   2   5
HETATM    5  C   UNK N   1      12.584  -7.735   0.378  0.00  0.00     0.205 C 
BRANCH   5   6
HETATM    6  N   UNK N   1      11.321  -8.164   0.930  0.00  0.00    -0.344 N 
HETATM    7  C   UNK N   1      10.336  -8.626   0.133  0.00  0.00     0.241 C 
HETATM    8  O   UNK N   1      10.356  -8.408  -1.067  0.00  0.00    -0.271 OA
HETATM    9  H   UNK N   1      11.177  -8.119   1.903  0.00  0.00     0.163 HD
BRANCH   7  10
HETATM   10  C   UNK N   1       9.255  -9.464   0.691  0.00  0.00     0.180 C 
BRANCH  10  11
HETATM   11  C   UNK N   1       9.221 -10.865   0.032  0.00  0.00     0.073 C 
BRANCH  11  12
HETATM   12  C   UNK N   1      10.494 -11.693   0.144  0.00  0.00    -0.056 A 
HETATM   13  C   UNK N   1      11.548 -11.341   1.006  0.00  0.00     0.010 A 
HETATM   14  C   UNK N   1      12.750 -12.063   0.994  0.00  0.00     0.039 A 
HETATM   15  C   UNK N   1      12.909 -13.161   0.135  0.00  0.00     0.091 A 
HETATM   16  C   UNK N   1      11.841 -13.550  -0.679  0.00  0.00     0.039 A 
HETATM   17  C   UNK N   1      10.647 -12.815  -0.683  0.00  0.00     0.010 A 
BRANCH  15  18
HETATM   18  O   UNK N   1      14.087 -13.822   0.041  0.00  0.00    -0.221 OA
BRANCH  18  19
HETATM   19  S   UNK N   1      15.579 -13.000   0.054  0.00  0.00     0.245 S 
HETATM   20  O   UNK N   1      15.485 -11.925  -1.031  0.00  0.00    -0.579 OA
HETATM   21  O   UNK N   1      15.779 -12.220   1.363  0.00  0.00    -0.579 OA
BRANCH  19  22
HETATM   22  O   UNK N   1      16.964 -13.950  -0.301  0.00  0.00    -0.273 OA
HETATM   23  H   UNK N   1      16.891 -14.896  -0.501  0.00  0.00     0.234 HD
ENDBRANCH  19  22
ENDBRANCH  18  19
ENDBRANCH  15  18
ENDBRANCH  11  12
ENDBRANCH  10  11
BRANCH  10  24
HETATM   24  N   UNK N   1       8.069  -8.686   0.479  0.00  0.00    -0.346 N 
HETATM   25  C   UNK N   1       7.631  -8.250  -0.740  0.00  0.00     0.241 C 
HETATM   26  O   UNK N   1       8.001  -8.779  -1.780  0.00  0.00    -0.271 OA
HETATM   27  H   UNK N   1       7.530  -8.450   1.269  0.00  0.00     0.163 HD
BRANCH  25  28
HETATM   28  C   UNK N   1       6.780  -7.025  -0.789  0.00  0.00     0.186 C 
BRANCH  28  29
HETATM   29  C   UNK N   1       7.649  -5.890  -1.380  0.00  0.00     0.144 C 
BRANCH  29  30
HETATM   30  C   UNK N   1       8.423  -5.054  -0.386  0.00  0.00     0.141 C 
HETATM   31  O   UNK N   1       8.452  -3.842  -0.518  0.00  0.00    -0.650 OA
BRANCH  30  32
HETATM   32  O   UNK N   1       9.073  -5.626   0.647  0.00  0.00    -0.776 OA
HETATM   33  H   UNK N   1       8.954  -6.216   1.365  0.00  0.00     0.167 HD
ENDBRANCH  30  32
ENDBRANCH  29  30
ENDBRANCH  28  29
BRANCH  28  34
HETATM   34  N   UNK N   1       6.358  -6.705   0.557  0.00  0.00    -0.346 N 
HETATM   35  C   UNK N   1       5.511  -7.490   1.276  0.00  0.00     0.241 C 
HETATM   36  O   UNK N   1       5.321  -7.224   2.450  0.00  0.00    -0.271 OA
HETATM   37  H   UNK N   1       6.699  -5.881   0.973  0.00  0.00     0.163 HD
BRANCH  35  38
HETATM   38  C   UNK N   1       4.720  -8.624   0.653  0.00  0.00     0.177 C 
BRANCH  38  39
HETATM   39  N   UNK N   1       3.810  -8.075  -0.304  0.00  0.00    -0.346 N 
HETATM   40  C   UNK N   1       2.498  -8.365  -0.215  0.00  0.00     0.241 C 
HETATM   41  O   UNK N   1       2.106  -9.187   0.604  0.00  0.00    -0.271 OA
HETATM   42  H   UNK N   1       4.140  -7.488  -1.022  0.00  0.00     0.163 HD
BRANCH  40  43
HETATM   43  C   UNK N   1       1.522  -7.620  -1.069  0.00  0.00     0.177 C 
HETATM   44  N   UNK N   1       0.194  -7.958  -0.651  0.00  0.00    -0.348 N 
HETATM   45  C   UNK N   1      -0.374  -6.965   0.028  0.00  0.00     0.218 C 
HETATM   46  H   UNK N   1      -0.244  -8.819  -0.842  0.00  0.00     0.163 HD
HETATM   47  C   UNK N   1       0.455  -5.751   0.145  0.00  0.00     0.105 C 
HETATM   48  O   UNK N   1      -1.476  -7.078   0.538  0.00  0.00    -0.274 OA
HETATM   49  C   UNK N   1       1.652  -6.118  -0.742  0.00  0.00     0.044 C 
ENDBRANCH  40  43
ENDBRANCH  38  39
BRANCH  38  50
HETATM   50  C   UNK N   1       5.429  -9.818   0.033  0.00  0.00     0.044 C 
BRANCH  50  51
HETATM   51  C   UNK N   1       5.760 -10.896   1.044  0.00  0.00     0.105 C 
BRANCH  51  52
HETATM   52  C   UNK N   1       5.780 -12.217   0.342  0.00  0.00     0.215 C 
HETATM   53  N   UNK N   1       4.656 -12.696  -0.228  0.00  0.00    -0.370 N 
HETATM   54  H   UNK N   1       3.943 -12.160  -0.645  0.00  0.00     0.159 HD
HETATM   55  H   UNK N   1       4.538 -13.673  -0.228  0.00  0.00     0.159 HD
HETATM   56  O   UNK N   1       6.812 -12.864   0.285  0.00  0.00    -0.274 OA
ENDBRANCH  51  52
ENDBRANCH  50  51
ENDBRANCH  38  50
ENDBRANCH  35  38
ENDBRANCH  28  34
ENDBRANCH  25  28
ENDBRANCH  10  24
ENDBRANCH   7  10
ENDBRANCH   5   6
BRANCH   5  57
HETATM   57  C   UNK N   1      12.560  -6.438  -0.467  0.00  0.00     0.146 C 
HETATM   58  C   UNK N   1      11.999  -5.258   0.305  0.00  0.00     0.042 C 
BRANCH  57  59
HETATM   59  O   UNK N   1      11.923  -6.555  -1.700  0.00  0.00    -0.393 OA
HETATM   60  H   UNK N   1      11.630  -6.212  -2.559  0.00  0.00     0.210 HD
ENDBRANCH  57  59
ENDBRANCH   5  57
ENDBRANCH   2   5
BRANCH   1  61
HETATM   61  C   UNK N   1      15.359  -8.696   0.147  0.00  0.00     0.225 C 
BRANCH  61  62
HETATM   62  C   UNK N   1      16.216  -9.210  -0.958  0.00  0.00     0.236 C 
HETATM   63  N   UNK N   1      17.463  -9.610  -0.674  0.00  0.00    -0.346 N 
HETATM   64  H   UNK N   1      17.971 -10.196  -1.279  0.00  0.00     0.163 HD
HETATM   65  O   UNK N   1      15.768  -9.331  -2.089  0.00  0.00    -0.272 OA
BRANCH  63  66
HETATM   66  C   UNK N   1      18.013  -9.137   0.559  0.00  0.00     0.181 C 
BRANCH  66  67
HETATM   67  C   UNK N   1      19.060 -10.086   1.112  0.00  0.00     0.075 C 
BRANCH  67  68
HETATM   68  C   UNK N   1      20.452  -9.602   1.018  0.00  0.00    -0.028 A 
HETATM   69  C   UNK N   1      20.967  -8.458   1.618  0.00  0.00     0.096 A 
HETATM   70  N   UNK N   1      22.289  -8.372   1.361  0.00  0.00    -0.365 N 
HETATM   71  C   UNK N   1      22.598  -9.458   0.613  0.00  0.00     0.042 A 
HETATM   72  H   UNK N   1      22.905  -7.664   1.657  0.00  0.00     0.165 HD
HETATM   73  C   UNK N   1      21.490 -10.219   0.393  0.00  0.00    -0.002 A 
HETATM   74  C   UNK N   1      23.847  -9.808   0.132  0.00  0.00     0.030 A 
HETATM   75  C   UNK N   1      21.551 -11.410  -0.337  0.00  0.00     0.014 A 
HETATM   76  C   UNK N   1      22.803 -11.799  -0.843  0.00  0.00     0.001 A 
HETATM   77  C   UNK N   1      23.948 -11.002  -0.610  0.00  0.00     0.002 A 
ENDBRANCH  67  68
ENDBRANCH  66  67
BRANCH  66  78
HETATM   78  C   UNK N   1      18.289  -7.690   0.286  0.00  0.00     0.241 C 
HETATM   79  N   UNK N   1      17.464  -6.749   0.841  0.00  0.00    -0.346 N 
HETATM   80  H   UNK N   1      17.009  -7.022   1.671  0.00  0.00     0.163 HD
HETATM   81  O   UNK N   1      19.032  -7.428  -0.640  0.00  0.00    -0.271 OA
BRANCH  79  82
HETATM   82  C   UNK N   1      17.162  -5.391   0.375  0.00  0.00     0.177 C 
BRANCH  82  83
HETATM   83  C   UNK N   1      15.646  -5.167   0.577  0.00  0.00     0.045 C 
BRANCH  83  84
HETATM   84  C   UNK N   1      15.148  -3.839  -0.001  0.00  0.00     0.076 C 
BRANCH  84  85
HETATM   85  S   UNK N   1      14.692  -2.653   1.290  0.00  0.00    -0.173 SA
HETATM   86  C   UNK N   1      13.207  -2.132   0.382  0.00  0.00     0.089 C 
ENDBRANCH  84  85
ENDBRANCH  83  84
ENDBRANCH  82  83
BRANCH  82  87
HETATM   87  C   UNK N   1      17.585  -5.113  -1.071  0.00  0.00     0.241 C 
HETATM   88  N   UNK N   1      18.883  -4.942  -1.418  0.00  0.00    -0.346 N 
HETATM   89  H   UNK N   1      19.084  -4.780  -2.368  0.00  0.00     0.163 HD
HETATM   90  O   UNK N   1      16.736  -5.014  -1.945  0.00  0.00    -0.271 OA
BRANCH  88  91
HETATM   91  C   UNK N   1      19.990  -4.981  -0.495  0.00  0.00     0.186 C 
BRANCH  91  92
HETATM   92  C   UNK N   1      21.262  -5.192  -1.321  0.00  0.00     0.144 C 
BRANCH  92  93
HETATM   93  C   UNK N   1      22.452  -5.604  -0.510  0.00  0.00     0.141 C 
HETATM   94  O   UNK N   1      22.864  -4.894   0.392  0.00  0.00    -0.650 OA
BRANCH  93  95
HETATM   95  O   UNK N   1      23.114  -6.730  -0.829  0.00  0.00    -0.776 OA
HETATM   96  H   UNK N   1      22.666  -7.522  -1.051  0.00  0.00     0.167 HD
ENDBRANCH  93  95
ENDBRANCH  92  93
ENDBRANCH  91  92
BRANCH  91  97
HETATM   97  C   UNK N   1      20.014  -3.712   0.290  0.00  0.00     0.241 C 
HETATM   98  O   UNK N   1      19.268  -3.574   1.249  0.00  0.00    -0.271 OA
HETATM   99  N   UNK N   1      20.851  -2.722  -0.093  0.00  0.00    -0.346 N 
HETATM  100  H   UNK N   1      21.397  -2.880  -0.897  0.00  0.00     0.163 HD
BRANCH  99 101
HETATM  101  C   UNK N   1      21.010  -1.457   0.576  0.00  0.00     0.180 C 
BRANCH 101 102
HETATM  102  C   UNK N   1      19.850  -0.868   1.389  0.00  0.00     0.073 C 
BRANCH 102 103
HETATM  103  C   UNK N   1      18.880  -0.049   0.599  0.00  0.00    -0.056 A 
HETATM  104  C   UNK N   1      17.564  -0.499   0.433  0.00  0.00     0.007 A 
HETATM  105  C   UNK N   1      16.630   0.293  -0.244  0.00  0.00     0.001 A 
HETATM  106  C   UNK N   1      17.007   1.544  -0.743  0.00  0.00     0.000 A 
HETATM  107  C   UNK N   1      18.318   1.999  -0.570  0.00  0.00     0.001 A 
HETATM  108  C   UNK N   1      19.252   1.205   0.103  0.00  0.00     0.007 A 
ENDBRANCH 102 103
ENDBRANCH 101 102
BRANCH 101 109
HETATM  109  C   UNK N   1      22.218  -0.677   0.159  0.00  0.00     0.238 C 
HETATM  110  O   UNK N   1      22.405   0.446   0.595  0.00  0.00    -0.271 OA
HETATM  111  N   UNK N   1      23.135  -1.238  -0.658  0.00  0.00    -0.368 N 
HETATM  112  H   UNK N   1      23.114  -2.022  -1.254  0.00  0.00     0.159 HD
HETATM  113  H   UNK N   1      24.000  -0.768  -0.658  0.00  0.00     0.159 HD
ENDBRANCH 101 109
ENDBRANCH  99 101
ENDBRANCH  91  97
ENDBRANCH  88  91
ENDBRANCH  82  87
ENDBRANCH  79  82
ENDBRANCH  66  78
ENDBRANCH  63  66
ENDBRANCH  61  62
ENDBRANCH   1  61
TORSDOF 42
