REMARK  10 active torsions:
REMARK  status: ('A' for Active; 'I' for Inactive)
REMARK    1  A    between atoms: C_3  and  C_23 
REMARK    2  A    between atoms: C_4  and  C_14 
REMARK    3  A    between atoms: C_7  and  N_9 
REMARK       I    between atoms: N_9  and  C_10 
REMARK    4  A    between atoms: C_10  and  C_13 
REMARK    5  A    between atoms: C_13  and  C_15 
REMARK    6  A    between atoms: C_14  and  O_27 
REMARK    7  A    between atoms: C_18  and  N_26 
REMARK    8  A    between atoms: N_21  and  O_31 
REMARK    9  A    between atoms: C_23  and  O_24 
REMARK   10  A    between atoms: O_27  and  C_28 
ROOT
HETATM    1  C   UNK N   1      19.898  -9.954   0.112  0.00  0.00     0.187 A 
HETATM    2  N   UNK N   1      19.861 -11.379   0.198  0.00  0.00    -0.293 N 
HETATM    3  C   UNK N   1      20.810 -12.321  -0.305  0.00  0.00     0.117 C 
HETATM    4  C   UNK N   1      21.995 -11.813  -0.760  0.00  0.00    -0.013 C 
HETATM    5  C   UNK N   1      22.225 -10.314  -0.786  0.00  0.00     0.115 C 
HETATM    6  S   UNK N   1      21.539  -9.443   0.676  0.00  0.00    -0.136 SA
HETATM    7  C   UNK N   1      18.712  -9.939   1.208  0.00  0.00     0.211 A 
HETATM    8  C   UNK N   1      18.885 -11.413   1.054  0.00  0.00     0.251 A 
HETATM    9  O   UNK N   1      18.430 -12.371   1.660  0.00  0.00    -0.271 OA
ENDROOT
BRANCH   7  10
HETATM   10  N   UNK N   1      17.490  -9.374   0.656  0.00  0.00    -0.340 N 
HETATM   11  C   UNK N   1      16.415 -10.041   0.150  0.00  0.00     0.273 C 
HETATM   12  O   UNK N   1      16.430 -11.256   0.045  0.00  0.00    -0.266 OA
HETATM   13  H   UNK N   1      17.432  -8.392   0.647  0.00  0.00     0.163 HD
BRANCH  11  14
HETATM   14  C   UNK N   1      15.168  -9.286  -0.189  0.00  0.00     0.149 C 
HETATM   15  N   UNK N   1      15.164  -8.003  -0.343  0.00  0.00    -0.260 N 
ATOM     16  HN  UNK N   1      14.276  -7.531  -0.515  1.00  0.00     0.194 HD
BRANCH  14  17
HETATM   17  C   UNK N   1      13.875 -10.015  -0.222  0.00  0.00     0.075 A 
HETATM   18  C   UNK N   1      12.641  -9.374  -0.473  0.00  0.00     0.085 A 
HETATM   19  S   UNK N   1      11.496 -10.560  -0.263  0.00  0.00    -0.064 SA
HETATM   20  C   UNK N   1      12.514 -11.791   0.122  0.00  0.00     0.142 A 
HETATM   21  N   UNK N   1      13.789 -11.352   0.112  0.00  0.00    -0.335 N 
ATOM     22  HN  UNK N   1      14.595 -11.940   0.325  1.00  0.00     0.168 HD
BRANCH  20  23
HETATM   23  N   UNK N   1      12.136 -13.103   0.466  0.00  0.00    -0.380 N 
HETATM   24  H   UNK N   1      11.210 -13.333   0.708  0.00  0.00     0.158 HD
HETATM   25  H   UNK N   1      12.819 -13.812   0.466  0.00  0.00     0.158 HD
ENDBRANCH  20  23
ENDBRANCH  14  17
BRANCH  15  26
HETATM   26  O   UNK N   1      16.267  -7.283  -0.285  0.00  0.00    -0.285 OA
HETATM   27  C   UNK N   1      16.200  -5.915  -0.289  0.00  0.00     0.237 C 
ENDBRANCH  15  26
ENDBRANCH  11  14
ENDBRANCH   7  10
BRANCH   3  28
HETATM   28  C   UNK N   1      20.523 -13.796  -0.256  0.00  0.00     0.194 C 
HETATM   29  O   UNK N   1      19.431 -14.196   0.111  0.00  0.00    -0.645 OA
BRANCH  28  30
HETATM   30  O   UNK N   1      21.437 -14.699  -0.659  0.00  0.00    -0.772 OA
HETATM   31  H   UNK N   1      21.210 -15.564  -0.939  0.00  0.00     0.167 HD
ENDBRANCH  28  30
ENDBRANCH   3  28
BRANCH   4  32
HETATM   32  C   UNK N   1      23.134 -12.668  -1.226  0.00  0.00     0.216 C 
BRANCH  32  33
HETATM   33  O   UNK N   1      23.900 -13.055  -0.146  0.00  0.00    -0.317 OA
BRANCH  33  34
HETATM   34  C   UNK N   1      24.885 -12.285   0.387  0.00  0.00     0.255 C 
HETATM   35  C   UNK N   1      25.249 -10.956  -0.199  0.00  0.00     0.126 C 
HETATM   36  O   UNK N   1      25.494 -12.686   1.364  0.00  0.00    -0.266 OA
ENDBRANCH  33  34
ENDBRANCH  32  33
ENDBRANCH   4  32
TORSDOF 10
