REMARK  26 active torsions:
REMARK  status: ('A' for Active; 'I' for Inactive)
REMARK    1  A    between atoms: C_8  and  C_3 
REMARK    2  A    between atoms: O_27  and  C_3 
REMARK    3  A    between atoms: C_10  and  C_4 
REMARK    4  A    between atoms: C_11  and  C_5 
REMARK    5  A    between atoms: O_29  and  C_5 
REMARK    6  A    between atoms: C_12  and  C_6 
REMARK    7  A    between atoms: O_30  and  C_6 
REMARK    8  A    between atoms: C_9  and  N_26 
REMARK    9  A    between atoms: C_16  and  C_10 
REMARK   10  A    between atoms: C_10  and  O_31 
REMARK   11  A    between atoms: C_22  and  C_11 
REMARK   12  A    between atoms: C_11  and  O_32 
REMARK   13  A    between atoms: C_13  and  N_26 
REMARK   14  A    between atoms: C_14  and  O_33 
REMARK   15  A    between atoms: C_15  and  O_34 
REMARK   16  A    between atoms: C_22  and  C_16 
REMARK   17  A    between atoms: C_16  and  O_35 
REMARK   18  A    between atoms: C_17  and  O_36 
REMARK   19  A    between atoms: C_18  and  O_37 
REMARK   20  A    between atoms: C_19  and  O_38 
REMARK   21  A    between atoms: C_20  and  O_39 
REMARK   22  A    between atoms: C_21  and  O_40 
REMARK   23  A    between atoms: C_22  and  O_43 
REMARK   24  A    between atoms: C_23  and  O_44 
REMARK   25  A    between atoms: C_24  and  O_44 
REMARK   26  A    between atoms: C_25  and  O_43 
ROOT
HETATM    1  C   UNK N   1       0.561   2.488   1.645  0.00  0.00     0.180 C 
HETATM    2  C   UNK N   1       0.805   4.229  -0.117  0.00  0.00     0.183 C 
HETATM    3  C   UNK N   1      -0.768   4.232  -0.096  0.00  0.00     0.204 C 
HETATM    4  C   UNK N   1       1.367   2.870   0.389  0.00  0.00     0.187 C 
HETATM    5  C   UNK N   1      -1.284   2.794   0.124  0.00  0.00     0.292 C 
HETATM    6  O   UNK N   1      -0.838   2.315   1.391  0.00  0.00    -0.348 OA
ENDROOT
BRANCH   4   7
HETATM    7  O   UNK N   1       2.756   2.867   0.707  0.00  0.00    -0.348 OA
BRANCH   7   8
HETATM    8  C   UNK N   1       3.627   2.834  -0.420  0.00  0.00     0.292 C 
HETATM    9  C   UNK N   1       5.047   2.392   0.012  0.00  0.00     0.204 C 
HETATM   10  C   UNK N   1       5.100   0.878   0.306  0.00  0.00     0.176 C 
HETATM   11  C   UNK N   1       4.618   0.162  -0.964  0.00  0.00     0.137 C 
HETATM   12  C   UNK N   1       3.194   0.647  -1.290  0.00  0.00     0.145 C 
HETATM   13  C   UNK N   1       2.693  -0.041  -2.549  0.00  0.00     0.042 C 
HETATM   14  O   UNK N   1       3.161   2.052  -1.524  0.00  0.00    -0.352 OA
BRANCH   9  15
HETATM   15  O   UNK N   1       5.466   3.128   1.122  0.00  0.00    -0.388 OA
HETATM   16  H   UNK N   1       6.054   3.131   1.894  0.00  0.00     0.210 HD
ENDBRANCH   9  15
BRANCH  10  17
HETATM   17  O   UNK N   1       6.414   0.503   0.601  0.00  0.00    -0.391 OA
HETATM   18  H   UNK N   1       6.644  -0.417   0.806  0.00  0.00     0.210 HD
ENDBRANCH  10  17
BRANCH  11  19
HETATM   19  N   UNK N   1       4.755  -1.312  -0.962  0.00  0.00    -0.402 N 
HETATM   20  H   UNK N   1       5.229  -1.756  -1.748  0.00  0.00     0.154 HD
BRANCH  19  21
HETATM   21  C   UNK N   1       4.241  -2.171   0.121  0.00  0.00     0.132 C 
HETATM   22  C   UNK N   1       2.765  -1.961   0.400  0.00  0.00     0.008 C 
HETATM   23  C   UNK N   1       1.860  -2.957   0.506  0.00  0.00    -0.027 C 
HETATM   24  C   UNK N   1       2.250  -4.417   0.394  0.00  0.00     0.180 C 
HETATM   25  C   UNK N   1       3.766  -4.637   0.540  0.00  0.00     0.182 C 
HETATM   26  C   UNK N   1       4.512  -3.629  -0.333  0.00  0.00     0.175 C 
BRANCH  23  27
HETATM   27  C   UNK N   1       0.422  -2.603   0.719  0.00  0.00     0.201 C 
BRANCH  27  28
HETATM   28  O   UNK N   1      -0.352  -3.030  -0.359  0.00  0.00    -0.397 OA
HETATM   29  H   UNK N   1      -0.879  -2.712  -1.109  0.00  0.00     0.209 HD
ENDBRANCH  27  28
ENDBRANCH  23  27
BRANCH  24  30
HETATM   30  O   UNK N   1       1.809  -4.897  -0.842  0.00  0.00    -0.388 OA
HETATM   31  H   UNK N   1       1.368  -4.799  -1.701  0.00  0.00     0.210 HD
ENDBRANCH  24  30
BRANCH  25  32
HETATM   32  O   UNK N   1       4.148  -4.478   1.876  0.00  0.00    -0.390 OA
HETATM   33  H   UNK N   1       4.376  -4.652   2.803  0.00  0.00     0.210 HD
ENDBRANCH  25  32
BRANCH  26  34
HETATM   34  O   UNK N   1       5.884  -3.888  -0.313  0.00  0.00    -0.391 OA
HETATM   35  H   UNK N   1       6.205  -4.804  -0.298  0.00  0.00     0.210 HD
ENDBRANCH  26  34
ENDBRANCH  19  21
ENDBRANCH  11  19
ENDBRANCH   7   8
ENDBRANCH   4   7
BRANCH   1  36
HETATM   36  C   UNK N   1       1.091   1.216   2.289  0.00  0.00     0.198 C 
BRANCH  36  37
HETATM   37  O   UNK N   1       0.863   0.122   1.463  0.00  0.00    -0.398 OA
HETATM   38  H   UNK N   1       0.122  -0.122   0.887  0.00  0.00     0.209 HD
ENDBRANCH  36  37
ENDBRANCH   1  36
BRANCH   2  39
HETATM   39  O   UNK N   1       1.260   4.463  -1.416  0.00  0.00    -0.390 OA
HETATM   40  H   UNK N   1       1.560   4.270  -2.318  0.00  0.00     0.210 HD
ENDBRANCH   2  39
BRANCH   3  41
HETATM   41  O   UNK N   1      -1.225   5.031   0.957  0.00  0.00    -0.388 OA
HETATM   42  H   UNK N   1      -0.903   5.582   1.687  0.00  0.00     0.210 HD
ENDBRANCH   3  41
BRANCH   5  43
HETATM   43  O   UNK N   1      -2.699   2.719   0.095  0.00  0.00    -0.348 OA
BRANCH  43  44
HETATM   44  C   UNK N   1      -3.270   1.464  -0.343  0.00  0.00     0.187 C 
BRANCH  44  45
HETATM   45  C   UNK N   1      -2.334   0.176  -0.232  0.00  0.00     0.173 C 
BRANCH  45  46
HETATM   46  C   UNK N   1      -1.629  -0.109  -1.563  0.00  0.00     0.198 C 
BRANCH  46  47
HETATM   47  O   UNK N   1      -0.252   0.089  -1.483  0.00  0.00    -0.398 OA
HETATM   48  H   UNK N   1       0.347  -0.672  -1.428  0.00  0.00     0.209 HD
ENDBRANCH  46  47
ENDBRANCH  45  46
BRANCH  45  49
HETATM   49  O   UNK N   1      -3.028  -0.981   0.096  0.00  0.00    -0.391 OA
HETATM   50  H   UNK N   1      -3.971  -0.966   0.325  0.00  0.00     0.210 HD
ENDBRANCH  45  49
ENDBRANCH  44  45
BRANCH  44  51
HETATM   51  C   UNK N   1      -4.632   1.296   0.408  0.00  0.00     0.185 C 
BRANCH  51  52
HETATM   52  C   UNK N   1      -5.712   0.475  -0.365  0.00  0.00     0.210 C 
BRANCH  52  53
HETATM   53  C   UNK N   1      -6.969   0.382   0.455  0.00  0.00     0.265 C 
HETATM   54  O   UNK N   1      -7.433  -0.700   0.780  0.00  0.00    -0.304 OA
ENDBRANCH  52  53
BRANCH  52  55
HETATM   55  O   UNK N   1      -5.302  -0.810  -0.716  0.00  0.00    -0.386 OA
HETATM   56  H   UNK N   1      -5.934  -1.504  -0.961  0.00  0.00     0.210 HD
ENDBRANCH  52  55
ENDBRANCH  51  52
BRANCH  51  57
HETATM   57  O   UNK N   1      -5.183   2.567   0.616  0.00  0.00    -0.390 OA
HETATM   58  H   UNK N   1      -4.612   3.338   0.761  0.00  0.00     0.210 HD
ENDBRANCH  51  57
ENDBRANCH  44  51
ENDBRANCH  43  44
ENDBRANCH   5  43
TORSDOF 26
