MODEL 1
REMARK VINA RESULT:      -8.1      0.000      0.000
REMARK  5 active torsions:
REMARK  status: ('A' for Active; 'I' for Inactive)
REMARK    1  A    between atoms: C_15  and  N_2 
REMARK    2  A    between atoms: N_14  and  C_7 
REMARK    3  A    between atoms: N_12  and  C_8 
REMARK    4  A    between atoms: N_12  and  C_23 
REMARK    5  A    between atoms: C_18  and  N_14 
ROOT
HETATM    1  C   UNK N   1      29.255  22.302  -5.522  0.00  0.00     0.069 A 
HETATM    2  N   UNK N   1      30.247  21.416  -5.916  0.00  0.00    -0.307 N 
HETATM    3  C   UNK N   1      29.353  23.010  -4.305  0.00  0.00     0.062 A 
HETATM    4  C   UNK N   1      28.139  22.535  -6.318  0.00  0.00     0.064 A 
HETATM    5  N   UNK N   1      30.412  22.796  -3.491  0.00  0.00    -0.352 N 
ATOM      6  HN  UNK N   1      30.479  23.310  -2.612  1.00  0.00     0.166 HD
HETATM    7  C   UNK N   1      27.241  24.158  -4.762  0.00  0.00     0.061 A 
HETATM    8  C   UNK N   1      27.121  23.408  -5.964  0.00  0.00     0.057 A 
HETATM    9  C   UNK N   1      28.360  23.935  -3.941  0.00  0.00     0.063 A 
HETATM   10  C   UNK N   1      31.317  21.213  -5.058  0.00  0.00     0.067 A 
HETATM   11  C   UNK N   1      31.382  21.913  -3.824  0.00  0.00     0.060 A 
HETATM   12  C   UNK N   1      32.340  20.290  -5.350  0.00  0.00     0.032 A 
HETATM   13  C   UNK N   1      32.441  21.691  -2.938  0.00  0.00     0.032 A 
HETATM   14  C   UNK N   1      33.391  20.072  -4.459  0.00  0.00     0.002 A 
HETATM   15  C   UNK N   1      33.442  20.772  -3.254  0.00  0.00     0.002 A 
ENDROOT
BRANCH   7  16
HETATM   16  N   UNK N   1      26.232  25.070  -4.312  0.00  0.00    -0.354 N 
HETATM   17  H   UNK N   1      25.420  24.696  -3.902  0.00  0.00     0.166 HD
BRANCH  16  18
HETATM   18  C   UNK N   1      26.335  26.481  -4.425  0.00  0.00     0.032 A 
HETATM   19  C   UNK N   1      26.789  27.037  -5.624  0.00  0.00     0.031 A 
HETATM   20  C   UNK N   1      27.062  28.405  -5.704  0.00  0.00     0.026 A 
HETATM   21  C   UNK N   1      26.880  29.223  -4.585  0.00  0.00     0.034 A 
HETATM   22  C   UNK N   1      26.387  28.681  -3.395  0.00  0.00     0.026 A 
HETATM   23 Cl   UNK N   1      27.302  30.919  -4.667  0.00  0.00    -0.084 Cl
HETATM   24  C   UNK N   1      26.114  27.313  -3.313  0.00  0.00     0.031 A 
ENDBRANCH  16  18
ENDBRANCH   7  16
BRANCH   8  25
HETATM   25  N   UNK N   1      26.065  23.479  -6.702  0.00  0.00    -0.384 N 
ATOM     26  HN  UNK N   1      25.299  24.077  -6.394  1.00  0.00     0.160 HD
BRANCH  25  27
HETATM   27  C   UNK N   1      25.911  22.753  -7.944  0.00  0.00     0.073 C 
HETATM   28  C   UNK N   1      25.562  23.716  -9.060  0.00  0.00     0.031 C 
HETATM   29  C   UNK N   1      24.813  21.721  -7.799  0.00  0.00     0.031 C 
ENDBRANCH  25  27
ENDBRANCH   8  25
BRANCH   2  30
HETATM   30  C   UNK N   1      30.165  20.735  -7.223  0.00  0.00     0.040 A 
HETATM   31  C   UNK N   1      30.686  21.328  -8.395  0.00  0.00     0.031 A 
HETATM   32  C   UNK N   1      30.714  20.647  -9.610  0.00  0.00     0.026 A 
HETATM   33  C   UNK N   1      30.227  19.346  -9.685  0.00  0.00     0.034 A 
HETATM   34  C   UNK N   1      29.688  18.739  -8.549  0.00  0.00     0.026 A 
HETATM   35 Cl   UNK N   1      30.309  18.475 -11.199  0.00  0.00    -0.084 Cl
HETATM   36  C   UNK N   1      29.655  19.427  -7.331  0.00  0.00     0.031 A 
ENDBRANCH   2  30
TORSDOF 5
ENDMDL
MODEL 2
REMARK VINA RESULT:      -7.9     11.228     12.836
REMARK  5 active torsions:
REMARK  status: ('A' for Active; 'I' for Inactive)
REMARK    1  A    between atoms: C_15  and  N_2 
REMARK    2  A    between atoms: N_14  and  C_7 
REMARK    3  A    between atoms: N_12  and  C_8 
REMARK    4  A    between atoms: N_12  and  C_23 
REMARK    5  A    between atoms: C_18  and  N_14 
ROOT
HETATM    1  C   UNK N   1      28.079  16.247   4.430  0.00  0.00     0.069 A 
HETATM    2  N   UNK N   1      29.272  15.600   4.143  0.00  0.00    -0.307 N 
HETATM    3  C   UNK N   1      26.861  15.806   3.870  0.00  0.00     0.062 A 
HETATM    4  C   UNK N   1      28.039  17.339   5.289  0.00  0.00     0.064 A 
HETATM    5  N   UNK N   1      26.858  14.761   3.012  0.00  0.00    -0.352 N 
ATOM      6  HN  UNK N   1      25.976  14.445   2.609  1.00  0.00     0.166 HD
HETATM    7  C   UNK N   1      25.636  17.548   5.077  0.00  0.00     0.061 A 
HETATM    8  C   UNK N   1      26.871  18.019   5.602  0.00  0.00     0.057 A 
HETATM    9  C   UNK N   1      25.655  16.446   4.203  0.00  0.00     0.063 A 
HETATM   10  C   UNK N   1      29.240  14.536   3.256  0.00  0.00     0.067 A 
HETATM   11  C   UNK N   1      28.008  14.127   2.681  0.00  0.00     0.060 A 
HETATM   12  C   UNK N   1      30.411  13.858   2.864  0.00  0.00     0.032 A 
HETATM   13  C   UNK N   1      27.970  13.075   1.760  0.00  0.00     0.032 A 
HETATM   14  C   UNK N   1      30.365  12.812   1.943  0.00  0.00     0.002 A 
HETATM   15  C   UNK N   1      29.145  12.420   1.391  0.00  0.00     0.002 A 
ENDROOT
BRANCH   7  16
HETATM   16  N   UNK N   1      24.385  18.195   5.336  0.00  0.00    -0.354 N 
HETATM   17  H   UNK N   1      24.088  18.270   6.271  0.00  0.00     0.166 HD
BRANCH  16  18
HETATM   18  C   UNK N   1      23.549  18.735   4.323  0.00  0.00     0.032 A 
HETATM   19  C   UNK N   1      23.988  19.847   3.600  0.00  0.00     0.031 A 
HETATM   20  C   UNK N   1      23.119  20.500   2.722  0.00  0.00     0.026 A 
HETATM   21  C   UNK N   1      21.809  20.040   2.562  0.00  0.00     0.034 A 
HETATM   22  C   UNK N   1      21.377  18.903   3.250  0.00  0.00     0.026 A 
HETATM   23 Cl   UNK N   1      20.701  20.910   1.523  0.00  0.00    -0.084 Cl
HETATM   24  C   UNK N   1      22.244  18.250   4.130  0.00  0.00     0.031 A 
ENDBRANCH  16  18
ENDBRANCH   7  16
BRANCH   8  25
HETATM   25  N   UNK N   1      26.937  19.093   6.314  0.00  0.00    -0.384 N 
ATOM     26  HN  UNK N   1      26.563  19.067   7.263  1.00  0.00     0.160 HD
BRANCH  25  27
HETATM   27  C   UNK N   1      27.513  20.331   5.836  0.00  0.00     0.073 C 
HETATM   28  C   UNK N   1      26.753  21.506   6.414  0.00  0.00     0.031 C 
HETATM   29  C   UNK N   1      27.447  20.375   4.325  0.00  0.00     0.031 C 
ENDBRANCH  25  27
ENDBRANCH   8  25
BRANCH   2  30
HETATM   30  C   UNK N   1      30.528  16.028   4.791  0.00  0.00     0.040 A 
HETATM   31  C   UNK N   1      31.367  16.999   4.200  0.00  0.00     0.031 A 
HETATM   32  C   UNK N   1      32.494  17.490   4.855  0.00  0.00     0.026 A 
HETATM   33  C   UNK N   1      32.811  17.025   6.127  0.00  0.00     0.034 A 
HETATM   34  C   UNK N   1      32.014  16.051   6.731  0.00  0.00     0.026 A 
HETATM   35 Cl   UNK N   1      34.199  17.679   6.968  0.00  0.00    -0.084 Cl
HETATM   36  C   UNK N   1      30.886  15.556   6.068  0.00  0.00     0.031 A 
ENDBRANCH   2  30
TORSDOF 5
ENDMDL
MODEL 3
REMARK VINA RESULT:      -7.8     19.591     23.373
REMARK  5 active torsions:
REMARK  status: ('A' for Active; 'I' for Inactive)
REMARK    1  A    between atoms: C_15  and  N_2 
REMARK    2  A    between atoms: N_14  and  C_7 
REMARK    3  A    between atoms: N_12  and  C_8 
REMARK    4  A    between atoms: N_12  and  C_23 
REMARK    5  A    between atoms: C_18  and  N_14 
ROOT
HETATM    1  C   UNK N   1      36.678  12.237  13.867  0.00  0.00     0.069 A 
HETATM    2  N   UNK N   1      36.783  11.229  14.813  0.00  0.00    -0.307 N 
HETATM    3  C   UNK N   1      36.124  13.491  14.200  0.00  0.00     0.062 A 
HETATM    4  C   UNK N   1      37.127  12.053  12.563  0.00  0.00     0.064 A 
HETATM    5  N   UNK N   1      35.655  13.705  15.451  0.00  0.00    -0.352 N 
ATOM      6  HN  UNK N   1      35.255  14.613  15.688  1.00  0.00     0.166 HD
HETATM    7  C   UNK N   1      36.525  14.312  11.929  0.00  0.00     0.061 A 
HETATM    8  C   UNK N   1      37.038  13.031  11.583  0.00  0.00     0.057 A 
HETATM    9  C   UNK N   1      36.062  14.517  13.241  0.00  0.00     0.063 A 
HETATM   10  C   UNK N   1      36.289  11.474  16.084  0.00  0.00     0.067 A 
HETATM   11  C   UNK N   1      35.709  12.733  16.391  0.00  0.00     0.060 A 
HETATM   12  C   UNK N   1      36.303  10.488  17.090  0.00  0.00     0.032 A 
HETATM   13  C   UNK N   1      35.178  12.978  17.662  0.00  0.00     0.032 A 
HETATM   14  C   UNK N   1      35.769  10.740  18.355  0.00  0.00     0.002 A 
HETATM   15  C   UNK N   1      35.207  11.984  18.640  0.00  0.00     0.002 A 
ENDROOT
BRANCH   7  16
HETATM   16  N   UNK N   1      36.384  15.374  10.979  0.00  0.00    -0.354 N 
HETATM   17  H   UNK N   1      37.181  15.909  10.763  0.00  0.00     0.166 HD
BRANCH  16  18
HETATM   18  C   UNK N   1      35.163  15.700  10.332  0.00  0.00     0.032 A 
HETATM   19  C   UNK N   1      34.186  14.712  10.184  0.00  0.00     0.031 A 
HETATM   20  C   UNK N   1      33.053  14.958   9.404  0.00  0.00     0.026 A 
HETATM   21  C   UNK N   1      32.892  16.193   8.772  0.00  0.00     0.034 A 
HETATM   22  C   UNK N   1      33.845  17.201   8.950  0.00  0.00     0.026 A 
HETATM   23 Cl   UNK N   1      31.512  16.466   7.731  0.00  0.00    -0.084 Cl
HETATM   24  C   UNK N   1      34.979  16.956   9.728  0.00  0.00     0.031 A 
ENDBRANCH  16  18
ENDBRANCH   7  16
BRANCH   8  25
HETATM   25  N   UNK N   1      37.369  12.741  10.371  0.00  0.00    -0.384 N 
ATOM     26  HN  UNK N   1      36.636  12.445   9.727  1.00  0.00     0.160 HD
BRANCH  25  27
HETATM   27  C   UNK N   1      38.727  12.814   9.877  0.00  0.00     0.073 C 
HETATM   28  C   UNK N   1      38.813  13.840   8.766  0.00  0.00     0.031 C 
HETATM   29  C   UNK N   1      39.153  11.459   9.353  0.00  0.00     0.031 C 
ENDBRANCH  25  27
ENDBRANCH   8  25
BRANCH   2  30
HETATM   30  C   UNK N   1      37.428   9.946  14.469  0.00  0.00     0.040 A 
HETATM   31  C   UNK N   1      38.811   9.738  14.675  0.00  0.00     0.031 A 
HETATM   32  C   UNK N   1      39.405   8.497  14.459  0.00  0.00     0.026 A 
HETATM   33  C   UNK N   1      38.629   7.423  14.035  0.00  0.00     0.034 A 
HETATM   34  C   UNK N   1      37.264   7.600  13.803  0.00  0.00     0.026 A 
HETATM   35 Cl   UNK N   1      39.368   5.854  13.813  0.00  0.00    -0.084 Cl
HETATM   36  C   UNK N   1      36.670   8.849  14.015  0.00  0.00     0.031 A 
ENDBRANCH   2  30
TORSDOF 5
ENDMDL
MODEL 4
REMARK VINA RESULT:      -7.6     13.232     15.629
REMARK  5 active torsions:
REMARK  status: ('A' for Active; 'I' for Inactive)
REMARK    1  A    between atoms: C_15  and  N_2 
REMARK    2  A    between atoms: N_14  and  C_7 
REMARK    3  A    between atoms: N_12  and  C_8 
REMARK    4  A    between atoms: N_12  and  C_23 
REMARK    5  A    between atoms: C_18  and  N_14 
ROOT
HETATM    1  C   UNK N   1      24.712  16.016   5.743  0.00  0.00     0.069 A 
HETATM    2  N   UNK N   1      23.353  15.823   5.945  0.00  0.00    -0.307 N 
HETATM    3  C   UNK N   1      25.665  15.196   6.383  0.00  0.00     0.062 A 
HETATM    4  C   UNK N   1      25.181  17.012   4.893  0.00  0.00     0.064 A 
HETATM    5  N   UNK N   1      25.253  14.230   7.235  0.00  0.00    -0.352 N 
ATOM      6  HN  UNK N   1      25.945  13.639   7.697  1.00  0.00     0.166 HD
HETATM    7  C   UNK N   1      27.490  16.388   5.270  0.00  0.00     0.061 A 
HETATM    8  C   UNK N   1      26.529  17.243   4.663  0.00  0.00     0.057 A 
HETATM    9  C   UNK N   1      27.037  15.377   6.136  0.00  0.00     0.063 A 
HETATM   10  C   UNK N   1      22.960  14.830   6.828  0.00  0.00     0.067 A 
HETATM   11  C   UNK N   1      23.937  14.036   7.485  0.00  0.00     0.060 A 
HETATM   12  C   UNK N   1      21.605  14.603   7.136  0.00  0.00     0.032 A 
HETATM   13  C   UNK N   1      23.550  13.052   8.402  0.00  0.00     0.032 A 
HETATM   14  C   UNK N   1      21.228  13.622   8.055  0.00  0.00     0.002 A 
HETATM   15  C   UNK N   1      22.200  12.848   8.687  0.00  0.00     0.002 A 
ENDROOT
BRANCH   7  16
HETATM   16  N   UNK N   1      28.901  16.563   5.100  0.00  0.00    -0.354 N 
HETATM   17  H   UNK N   1      29.228  16.861   4.221  0.00  0.00     0.166 HD
BRANCH  16  18
HETATM   18  C   UNK N   1      29.856  16.330   6.124  0.00  0.00     0.032 A 
HETATM   19  C   UNK N   1      30.011  17.280   7.137  0.00  0.00     0.031 A 
HETATM   20  C   UNK N   1      31.057  17.160   8.057  0.00  0.00     0.026 A 
HETATM   21  C   UNK N   1      31.949  16.088   7.967  0.00  0.00     0.034 A 
HETATM   22  C   UNK N   1      31.775  15.112   6.982  0.00  0.00     0.026 A 
HETATM   23 Cl   UNK N   1      33.305  15.988   9.069  0.00  0.00    -0.084 Cl
HETATM   24  C   UNK N   1      30.731  15.231   6.061  0.00  0.00     0.031 A 
ENDBRANCH  16  18
ENDBRANCH   7  16
BRANCH   8  25
HETATM   25  N   UNK N   1      26.883  18.260   3.953  0.00  0.00    -0.384 N 
ATOM     26  HN  UNK N   1      27.349  18.089   3.062  1.00  0.00     0.160 HD
BRANCH  25  27
HETATM   27  C   UNK N   1      26.653  19.631   4.355  0.00  0.00     0.073 C 
HETATM   28  C   UNK N   1      26.271  20.461   3.147  0.00  0.00     0.031 C 
HETATM   29  C   UNK N   1      27.909  20.195   4.984  0.00  0.00     0.031 C 
ENDBRANCH  25  27
ENDBRANCH   8  25
BRANCH   2  30
HETATM   30  C   UNK N   1      22.366  16.643   5.215  0.00  0.00     0.040 A 
HETATM   31  C   UNK N   1      21.983  17.921   5.678  0.00  0.00     0.031 A 
HETATM   32  C   UNK N   1      21.139  18.746   4.939  0.00  0.00     0.026 A 
HETATM   33  C   UNK N   1      20.657  18.316   3.707  0.00  0.00     0.034 A 
HETATM   34  C   UNK N   1      21.000  17.050   3.229  0.00  0.00     0.026 A 
HETATM   35 Cl   UNK N   1      19.637  19.374   2.758  0.00  0.00    -0.084 Cl
HETATM   36  C   UNK N   1      21.844  16.221   3.976  0.00  0.00     0.031 A 
ENDBRANCH   2  30
TORSDOF 5
ENDMDL
MODEL 5
REMARK VINA RESULT:      -7.5     14.485     18.646
REMARK  5 active torsions:
REMARK  status: ('A' for Active; 'I' for Inactive)
REMARK    1  A    between atoms: C_15  and  N_2 
REMARK    2  A    between atoms: N_14  and  C_7 
REMARK    3  A    between atoms: N_12  and  C_8 
REMARK    4  A    between atoms: N_12  and  C_23 
REMARK    5  A    between atoms: C_18  and  N_14 
ROOT
HETATM    1  C   UNK N   1      33.661  15.527   7.647  0.00  0.00     0.069 A 
HETATM    2  N   UNK N   1      32.660  15.704   6.703  0.00  0.00    -0.307 N 
HETATM    3  C   UNK N   1      33.543  16.074   8.943  0.00  0.00     0.062 A 
HETATM    4  C   UNK N   1      34.806  14.795   7.355  0.00  0.00     0.064 A 
HETATM    5  N   UNK N   1      32.455  16.812   9.261  0.00  0.00    -0.352 N 
ATOM      6  HN  UNK N   1      32.373  17.205  10.199  1.00  0.00     0.166 HD
HETATM    7  C   UNK N   1      35.695  15.103   9.587  0.00  0.00     0.061 A 
HETATM    8  C   UNK N   1      35.834  14.595   8.266  0.00  0.00     0.057 A 
HETATM    9  C   UNK N   1      34.546  15.850   9.901  0.00  0.00     0.063 A 
HETATM   10  C   UNK N   1      31.560  16.470   7.055  0.00  0.00     0.067 A 
HETATM   11  C   UNK N   1      31.474  17.036   8.355  0.00  0.00     0.060 A 
HETATM   12  C   UNK N   1      30.525  16.749   6.142  0.00  0.00     0.032 A 
HETATM   13  C   UNK N   1      30.383  17.837   8.709  0.00  0.00     0.032 A 
HETATM   14  C   UNK N   1      29.442  17.552   6.502  0.00  0.00     0.002 A 
HETATM   15  C   UNK N   1      29.371  18.095   7.784  0.00  0.00     0.002 A 
ENDROOT
BRANCH   7  16
HETATM   16  N   UNK N   1      36.711  14.956  10.586  0.00  0.00    -0.354 N 
HETATM   17  H   UNK N   1      37.538  15.479  10.484  0.00  0.00     0.166 HD
BRANCH  16  18
HETATM   18  C   UNK N   1      36.595  14.099  11.712  0.00  0.00     0.032 A 
HETATM   19  C   UNK N   1      36.082  14.612  12.906  0.00  0.00     0.031 A 
HETATM   20  C   UNK N   1      36.118  13.842  14.072  0.00  0.00     0.026 A 
HETATM   21  C   UNK N   1      36.663  12.555  14.046  0.00  0.00     0.034 A 
HETATM   22  C   UNK N   1      37.140  12.021  12.845  0.00  0.00     0.026 A 
HETATM   23 Cl   UNK N   1      36.780  11.628  15.525  0.00  0.00    -0.084 Cl
HETATM   24  C   UNK N   1      37.106  12.790  11.679  0.00  0.00     0.031 A 
ENDBRANCH  16  18
ENDBRANCH   7  16
BRANCH   8  25
HETATM   25  N   UNK N   1      36.913  14.003   7.879  0.00  0.00    -0.384 N 
ATOM     26  HN  UNK N   1      37.682  14.578   7.536  1.00  0.00     0.160 HD
BRANCH  25  27
HETATM   27  C   UNK N   1      37.088  12.567   7.908  0.00  0.00     0.073 C 
HETATM   28  C   UNK N   1      38.487  12.232   8.379  0.00  0.00     0.031 C 
HETATM   29  C   UNK N   1      36.868  11.999   6.522  0.00  0.00     0.031 C 
ENDBRANCH  25  27
ENDBRANCH   8  25
BRANCH   2  30
HETATM   30  C   UNK N   1      32.766  15.069   5.375  0.00  0.00     0.040 A 
HETATM   31  C   UNK N   1      33.405  15.720   4.296  0.00  0.00     0.031 A 
HETATM   32  C   UNK N   1      33.607  15.085   3.073  0.00  0.00     0.026 A 
HETATM   33  C   UNK N   1      33.180  13.772   2.897  0.00  0.00     0.034 A 
HETATM   34  C   UNK N   1      32.527  13.107   3.936  0.00  0.00     0.026 A 
HETATM   35 Cl   UNK N   1      33.480  12.960   1.377  0.00  0.00    -0.084 Cl
HETATM   36  C   UNK N   1      32.320  13.750   5.162  0.00  0.00     0.031 A 
ENDBRANCH   2  30
TORSDOF 5
ENDMDL
MODEL 6
REMARK VINA RESULT:      -7.5     12.100     13.542
REMARK  5 active torsions:
REMARK  status: ('A' for Active; 'I' for Inactive)
REMARK    1  A    between atoms: C_15  and  N_2 
REMARK    2  A    between atoms: N_14  and  C_7 
REMARK    3  A    between atoms: N_12  and  C_8 
REMARK    4  A    between atoms: N_12  and  C_23 
REMARK    5  A    between atoms: C_18  and  N_14 
ROOT
HETATM    1  C   UNK N   1      28.253  16.909   5.080  0.00  0.00     0.069 A 
HETATM    2  N   UNK N   1      29.573  16.876   5.505  0.00  0.00    -0.307 N 
HETATM    3  C   UNK N   1      27.255  17.538   5.854  0.00  0.00     0.062 A 
HETATM    4  C   UNK N   1      27.871  16.337   3.871  0.00  0.00     0.064 A 
HETATM    5  N   UNK N   1      27.580  18.088   7.046  0.00  0.00    -0.352 N 
ATOM      6  HN  UNK N   1      26.856  18.542   7.603  1.00  0.00     0.166 HD
HETATM    7  C   UNK N   1      25.565  17.018   4.162  0.00  0.00     0.061 A 
HETATM    8  C   UNK N   1      26.563  16.342   3.407  0.00  0.00     0.057 A 
HETATM    9  C   UNK N   1      25.930  17.600   5.389  0.00  0.00     0.063 A 
HETATM   10  C   UNK N   1      29.876  17.442   6.734  0.00  0.00     0.067 A 
HETATM   11  C   UNK N   1      28.851  18.044   7.511  0.00  0.00     0.060 A 
HETATM   12  C   UNK N   1      31.177  17.403   7.270  0.00  0.00     0.032 A 
HETATM   13  C   UNK N   1      29.141  18.589   8.766  0.00  0.00     0.032 A 
HETATM   14  C   UNK N   1      31.458  17.946   8.524  0.00  0.00     0.002 A 
HETATM   15  C   UNK N   1      30.441  18.539   9.272  0.00  0.00     0.002 A 
ENDROOT
BRANCH   7  16
HETATM   16  N   UNK N   1      24.189  17.061   3.766  0.00  0.00    -0.354 N 
HETATM   17  H   UNK N   1      23.986  17.108   2.805  0.00  0.00     0.166 HD
BRANCH  16  18
HETATM   18  C   UNK N   1      23.102  17.040   4.679  0.00  0.00     0.032 A 
HETATM   19  C   UNK N   1      22.409  18.225   4.938  0.00  0.00     0.031 A 
HETATM   20  C   UNK N   1      21.451  18.269   5.956  0.00  0.00     0.026 A 
HETATM   21  C   UNK N   1      21.183  17.126   6.714  0.00  0.00     0.034 A 
HETATM   22  C   UNK N   1      21.842  15.927   6.432  0.00  0.00     0.026 A 
HETATM   23 Cl   UNK N   1      20.043  17.209   8.040  0.00  0.00    -0.084 Cl
HETATM   24  C   UNK N   1      22.801  15.882   5.417  0.00  0.00     0.031 A 
ENDBRANCH  16  18
ENDBRANCH   7  16
BRANCH   8  25
HETATM   25  N   UNK N   1      26.272  15.688   2.334  0.00  0.00    -0.384 N 
ATOM     26  HN  UNK N   1      26.481  16.120   1.434  1.00  0.00     0.160 HD
BRANCH  25  27
HETATM   27  C   UNK N   1      25.664  14.376   2.341  0.00  0.00     0.073 C 
HETATM   28  C   UNK N   1      26.715  13.323   2.060  0.00  0.00     0.031 C 
HETATM   29  C   UNK N   1      24.582  14.310   1.285  0.00  0.00     0.031 C 
ENDBRANCH  25  27
ENDBRANCH   8  25
BRANCH   2  30
HETATM   30  C   UNK N   1      30.618  16.275   4.653  0.00  0.00     0.040 A 
HETATM   31  C   UNK N   1      31.421  17.069   3.803  0.00  0.00     0.031 A 
HETATM   32  C   UNK N   1      32.481  16.527   3.081  0.00  0.00     0.026 A 
HETATM   33  C   UNK N   1      32.774  15.171   3.195  0.00  0.00     0.034 A 
HETATM   34  C   UNK N   1      31.988  14.356   4.011  0.00  0.00     0.026 A 
HETATM   35 Cl   UNK N   1      34.137  14.503   2.327  0.00  0.00    -0.084 Cl
HETATM   36  C   UNK N   1      30.919  14.902   4.731  0.00  0.00     0.031 A 
ENDBRANCH   2  30
TORSDOF 5
ENDMDL
MODEL 7
REMARK VINA RESULT:      -7.4     16.659     20.872
REMARK  5 active torsions:
REMARK  status: ('A' for Active; 'I' for Inactive)
REMARK    1  A    between atoms: C_15  and  N_2 
REMARK    2  A    between atoms: N_14  and  C_7 
REMARK    3  A    between atoms: N_12  and  C_8 
REMARK    4  A    between atoms: N_12  and  C_23 
REMARK    5  A    between atoms: C_18  and  N_14 
ROOT
HETATM    1  C   UNK N   1      35.796  14.572   9.258  0.00  0.00     0.069 A 
HETATM    2  N   UNK N   1      35.573  14.629   7.890  0.00  0.00    -0.307 N 
HETATM    3  C   UNK N   1      35.197  15.503  10.132  0.00  0.00     0.062 A 
HETATM    4  C   UNK N   1      36.606  13.589   9.816  0.00  0.00     0.064 A 
HETATM    5  N   UNK N   1      34.419  16.489   9.628  0.00  0.00    -0.352 N 
ATOM      6  HN  UNK N   1      33.987  17.161  10.263  1.00  0.00     0.166 HD
HETATM    7  C   UNK N   1      36.220  14.403  12.064  0.00  0.00     0.061 A 
HETATM    8  C   UNK N   1      36.861  13.496  11.176  0.00  0.00     0.057 A 
HETATM    9  C   UNK N   1      35.400  15.408  11.519  0.00  0.00     0.063 A 
HETATM   10  C   UNK N   1      34.777  15.654   7.402  0.00  0.00     0.067 A 
HETATM   11  C   UNK N   1      34.207  16.598   8.296  0.00  0.00     0.060 A 
HETATM   12  C   UNK N   1      34.543  15.821   6.023  0.00  0.00     0.032 A 
HETATM   13  C   UNK N   1      33.429  17.654   7.809  0.00  0.00     0.032 A 
HETATM   14  C   UNK N   1      33.769  16.879   5.546  0.00  0.00     0.002 A 
HETATM   15  C   UNK N   1      33.212  17.795   6.438  0.00  0.00     0.002 A 
ENDROOT
BRANCH   7  16
HETATM   16  N   UNK N   1      36.436  14.388  13.479  0.00  0.00    -0.354 N 
HETATM   17  H   UNK N   1      37.011  15.087  13.866  0.00  0.00     0.166 HD
BRANCH  16  18
HETATM   18  C   UNK N   1      35.872  13.425  14.356  0.00  0.00     0.032 A 
HETATM   19  C   UNK N   1      36.497  13.170  15.579  0.00  0.00     0.031 A 
HETATM   20  C   UNK N   1      36.064  12.110  16.381  0.00  0.00     0.026 A 
HETATM   21  C   UNK N   1      35.001  11.305  15.962  0.00  0.00     0.034 A 
HETATM   22  C   UNK N   1      34.344  11.580  14.760  0.00  0.00     0.026 A 
HETATM   23 Cl   UNK N   1      34.516   9.930  16.931  0.00  0.00    -0.084 Cl
HETATM   24  C   UNK N   1      34.778  12.638  13.956  0.00  0.00     0.031 A 
ENDBRANCH  16  18
ENDBRANCH   7  16
BRANCH   8  25
HETATM   25  N   UNK N   1      37.716  12.627  11.600  0.00  0.00    -0.384 N 
ATOM     26  HN  UNK N   1      38.635  12.957  11.895  1.00  0.00     0.160 HD
BRANCH  25  27
HETATM   27  C   UNK N   1      37.439  11.209  11.677  0.00  0.00     0.073 C 
HETATM   28  C   UNK N   1      37.820  10.687  13.047  0.00  0.00     0.031 C 
HETATM   29  C   UNK N   1      38.229  10.476  10.615  0.00  0.00     0.031 C 
ENDBRANCH  25  27
ENDBRANCH   8  25
BRANCH   2  30
HETATM   30  C   UNK N   1      36.150  13.607   6.995  0.00  0.00     0.040 A 
HETATM   31  C   UNK N   1      35.467  12.402   6.716  0.00  0.00     0.031 A 
HETATM   32  C   UNK N   1      35.952  11.483   5.788  0.00  0.00     0.026 A 
HETATM   33  C   UNK N   1      37.134  11.749   5.105  0.00  0.00     0.034 A 
HETATM   34  C   UNK N   1      37.844  12.921   5.372  0.00  0.00     0.026 A 
HETATM   35 Cl   UNK N   1      37.714  10.618   3.903  0.00  0.00    -0.084 Cl
HETATM   36  C   UNK N   1      37.358  13.839   6.309  0.00  0.00     0.031 A 
ENDBRANCH   2  30
TORSDOF 5
ENDMDL
MODEL 8
REMARK VINA RESULT:      -7.3      2.493      8.502
REMARK  5 active torsions:
REMARK  status: ('A' for Active; 'I' for Inactive)
REMARK    1  A    between atoms: C_15  and  N_2 
REMARK    2  A    between atoms: N_14  and  C_7 
REMARK    3  A    between atoms: N_12  and  C_8 
REMARK    4  A    between atoms: N_12  and  C_23 
REMARK    5  A    between atoms: C_18  and  N_14 
ROOT
HETATM    1  C   UNK N   1      27.592  24.127  -7.296  0.00  0.00     0.069 A 
HETATM    2  N   UNK N   1      26.853  25.209  -7.750  0.00  0.00    -0.307 N 
HETATM    3  C   UNK N   1      27.845  23.018  -8.131  0.00  0.00     0.062 A 
HETATM    4  C   UNK N   1      28.120  24.103  -6.009  0.00  0.00     0.064 A 
HETATM    5  N   UNK N   1      27.332  22.991  -9.382  0.00  0.00    -0.352 N 
ATOM      6  HN  UNK N   1      27.517  22.187  -9.982  1.00  0.00     0.166 HD
HETATM    7  C   UNK N   1      29.159  21.944  -6.366  0.00  0.00     0.061 A 
HETATM    8  C   UNK N   1      28.861  23.041  -5.511  0.00  0.00     0.057 A 
HETATM    9  C   UNK N   1      28.631  21.947  -7.670  0.00  0.00     0.063 A 
HETATM   10  C   UNK N   1      26.334  25.151  -9.034  0.00  0.00     0.067 A 
HETATM   11  C   UNK N   1      26.576  24.012  -9.847  0.00  0.00     0.060 A 
HETATM   12  C   UNK N   1      25.525  26.178  -9.556  0.00  0.00     0.032 A 
HETATM   13  C   UNK N   1      26.030  23.931 -11.133  0.00  0.00     0.032 A 
HETATM   14  C   UNK N   1      24.981  26.088 -10.838  0.00  0.00     0.002 A 
HETATM   15  C   UNK N   1      25.233  24.965 -11.626  0.00  0.00     0.002 A 
ENDROOT
BRANCH   7  16
HETATM   16  N   UNK N   1      29.904  20.801  -5.931  0.00  0.00    -0.354 N 
HETATM   17  H   UNK N   1      29.418  19.956  -5.798  0.00  0.00     0.166 HD
BRANCH  16  18
HETATM   18  C   UNK N   1      31.301  20.816  -5.681  0.00  0.00     0.032 A 
HETATM   19  C   UNK N   1      31.818  20.013  -4.661  0.00  0.00     0.031 A 
HETATM   20  C   UNK N   1      33.158  20.137  -4.282  0.00  0.00     0.026 A 
HETATM   21  C   UNK N   1      33.985  21.063  -4.923  0.00  0.00     0.034 A 
HETATM   22  C   UNK N   1      33.485  21.840  -5.972  0.00  0.00     0.026 A 
HETATM   23 Cl   UNK N   1      35.638  21.272  -4.389  0.00  0.00    -0.084 Cl
HETATM   24  C   UNK N   1      32.146  21.718  -6.352  0.00  0.00     0.031 A 
ENDBRANCH  16  18
ENDBRANCH   7  16
BRANCH   8  25
HETATM   25  N   UNK N   1      29.215  23.046  -4.271  0.00  0.00    -0.384 N 
ATOM     26  HN  UNK N   1      28.575  22.646  -3.584  1.00  0.00     0.160 HD
BRANCH  25  27
HETATM   27  C   UNK N   1      30.471  23.590  -3.802  0.00  0.00     0.073 C 
HETATM   28  C   UNK N   1      30.904  22.868  -2.544  0.00  0.00     0.031 C 
HETATM   29  C   UNK N   1      30.311  25.067  -3.513  0.00  0.00     0.031 C 
ENDBRANCH  25  27
ENDBRANCH   8  25
BRANCH   2  30
HETATM   30  C   UNK N   1      26.654  26.392  -6.890  0.00  0.00     0.040 A 
HETATM   31  C   UNK N   1      25.590  26.458  -5.963  0.00  0.00     0.031 A 
HETATM   32  C   UNK N   1      25.460  27.519  -5.071  0.00  0.00     0.026 A 
HETATM   33  C   UNK N   1      26.400  28.545  -5.075  0.00  0.00     0.034 A 
HETATM   34  C   UNK N   1      27.452  28.520  -5.992  0.00  0.00     0.026 A 
HETATM   35 Cl   UNK N   1      26.263  29.852  -3.920  0.00  0.00    -0.084 Cl
HETATM   36  C   UNK N   1      27.577  27.456  -6.891  0.00  0.00     0.031 A 
ENDBRANCH   2  30
TORSDOF 5
ENDMDL
MODEL 9
REMARK VINA RESULT:      -7.3     11.721     15.545
REMARK  5 active torsions:
REMARK  status: ('A' for Active; 'I' for Inactive)
REMARK    1  A    between atoms: C_15  and  N_2 
REMARK    2  A    between atoms: N_14  and  C_7 
REMARK    3  A    between atoms: N_12  and  C_8 
REMARK    4  A    between atoms: N_12  and  C_23 
REMARK    5  A    between atoms: C_18  and  N_14 
ROOT
HETATM    1  C   UNK N   1      30.024  16.755   4.350  0.00  0.00     0.069 A 
HETATM    2  N   UNK N   1      28.698  17.152   4.259  0.00  0.00    -0.307 N 
HETATM    3  C   UNK N   1      30.507  15.658   3.607  0.00  0.00     0.062 A 
HETATM    4  C   UNK N   1      30.925  17.433   5.165  0.00  0.00     0.064 A 
HETATM    5  N   UNK N   1      29.659  14.958   2.819  0.00  0.00    -0.352 N 
ATOM      6  HN  UNK N   1      30.013  14.165   2.283  1.00  0.00     0.166 HD
HETATM    7  C   UNK N   1      32.759  15.995   4.506  0.00  0.00     0.061 A 
HETATM    8  C   UNK N   1      32.258  17.070   5.290  0.00  0.00     0.057 A 
HETATM    9  C   UNK N   1      31.863  15.294   3.678  0.00  0.00     0.063 A 
HETATM   10  C   UNK N   1      27.851  16.412   3.449  0.00  0.00     0.067 A 
HETATM   11  C   UNK N   1      28.351  15.293   2.732  0.00  0.00     0.060 A 
HETATM   12  C   UNK N   1      26.478  16.708   3.341  0.00  0.00     0.032 A 
HETATM   13  C   UNK N   1      27.497  14.521   1.937  0.00  0.00     0.032 A 
HETATM   14  C   UNK N   1      25.632  15.931   2.549  0.00  0.00     0.002 A 
HETATM   15  C   UNK N   1      26.141  14.839   1.847  0.00  0.00     0.002 A 
ENDROOT
BRANCH   7  16
HETATM   16  N   UNK N   1      34.116  15.545   4.582  0.00  0.00    -0.354 N 
HETATM   17  H   UNK N   1      34.733  15.814   3.865  0.00  0.00     0.166 HD
BRANCH  16  18
HETATM   18  C   UNK N   1      34.622  14.733   5.631  0.00  0.00     0.032 A 
HETATM   19  C   UNK N   1      33.749  13.885   6.317  0.00  0.00     0.031 A 
HETATM   20  C   UNK N   1      34.182  13.207   7.459  0.00  0.00     0.026 A 
HETATM   21  C   UNK N   1      35.491  13.374   7.919  0.00  0.00     0.034 A 
HETATM   22  C   UNK N   1      36.382  14.189   7.214  0.00  0.00     0.026 A 
HETATM   23 Cl   UNK N   1      36.003  12.588   9.396  0.00  0.00    -0.084 Cl
HETATM   24  C   UNK N   1      35.950  14.868   6.072  0.00  0.00     0.031 A 
ENDBRANCH  16  18
ENDBRANCH   7  16
BRANCH   8  25
HETATM   25  N   UNK N   1      32.998  17.678   6.155  0.00  0.00    -0.384 N 
ATOM     26  HN  UNK N   1      33.563  18.466   5.839  1.00  0.00     0.160 HD
BRANCH  25  27
HETATM   27  C   UNK N   1      33.069  17.298   7.549  0.00  0.00     0.073 C 
HETATM   28  C   UNK N   1      31.928  17.937   8.312  0.00  0.00     0.031 C 
HETATM   29  C   UNK N   1      34.389  17.751   8.134  0.00  0.00     0.031 C 
ENDBRANCH  25  27
ENDBRANCH   8  25
BRANCH   2  30
HETATM   30  C   UNK N   1      28.222  18.343   4.989  0.00  0.00     0.040 A 
HETATM   31  C   UNK N   1      27.836  19.519   4.307  0.00  0.00     0.031 A 
HETATM   32  C   UNK N   1      27.281  20.606   4.978  0.00  0.00     0.026 A 
HETATM   33  C   UNK N   1      27.090  20.545   6.354  0.00  0.00     0.034 A 
HETATM   34  C   UNK N   1      27.480  19.406   7.061  0.00  0.00     0.026 A 
HETATM   35 Cl   UNK N   1      26.348  21.893   7.187  0.00  0.00    -0.084 Cl
HETATM   36  C   UNK N   1      28.042  18.318   6.386  0.00  0.00     0.031 A 
ENDBRANCH   2  30
TORSDOF 5
ENDMDL
