REMARK  12 active torsions:
REMARK  status: ('A' for Active; 'I' for Inactive)
REMARK    1  A    between atoms: C_8  and  C_9 
REMARK    2  A    between atoms: C_9  and  N_32 
REMARK    3  A    between atoms: N_32  and  C_10 
REMARK    4  A    between atoms: C_15  and  C_16 
REMARK       I    between atoms: C_16  and  N_18 
REMARK    5  A    between atoms: C_20  and  N_18 
REMARK    6  A    between atoms: C_20  and  C_24 
REMARK    7  A    between atoms: C_20  and  C_22 
REMARK    8  A    between atoms: C_22  and  O_21 
REMARK    9  A    between atoms: C_24  and  C_25 
REMARK   10  A    between atoms: C_25  and  C_26 
REMARK   11  A    between atoms: C_26  and  O_27 
REMARK       I    between atoms: C_30  and  N_31 
REMARK   12  A    between atoms: N_33  and  C_35 
ROOT
HETATM    1  N   UNK N   1      -0.638  -2.891  -1.047  0.00  0.00    -0.388 N 
HETATM    2  H   UNK N   1      -0.420  -3.828  -1.255  0.00  0.00     0.159 HD
ENDROOT
BRANCH   1   3
HETATM    3  C   UNK N   1      -2.007  -2.461  -1.056  0.00  0.00     0.147 C 
BRANCH   3   4
HETATM    4  C   UNK N   1      -2.345  -2.020   0.362  0.00  0.00     0.128 C 
HETATM    5  N   UNK N   1      -3.515  -1.168   0.371  0.00  0.00    -0.309 N 
HETATM    6  C   UNK N   1      -4.801  -1.795   0.186  0.00  0.00     0.151 A 
HETATM    7  C   UNK N   1      -4.902  -3.185   0.413  0.00  0.00     0.149 A 
HETATM    8  C   UNK N   1      -5.973  -1.118  -0.227  0.00  0.00     0.290 A 
HETATM    9  N   UNK N   1      -6.081  -3.827   0.234  0.00  0.00    -0.175 N 
HETATM   10  N   UNK N   1      -3.772  -3.915   0.866  0.00  0.00    -0.372 N 
HETATM   11  C   UNK N   1      -7.191  -3.157  -0.159  0.00  0.00     0.680 A 
ATOM     12  HN  UNK N   1      -6.134  -4.832   0.398  1.00  0.00     0.186 HD
HETATM   13  N   UNK N   1      -7.136  -1.820  -0.385  0.00  0.00    -0.154 N 
HETATM   14  N   UNK N   1      -8.403  -3.849  -0.332  0.00  0.00    -0.234 N 
HETATM   15  H   UNK N   1      -7.951  -1.346  -0.669  0.00  0.00     0.187 HD
HETATM   16  H   UNK N   1      -9.247  -3.357  -0.453  0.00  0.00     0.174 HD
HETATM   17  H   UNK N   1      -8.408  -4.834  -0.332  0.00  0.00     0.174 HD
HETATM   18  C   UNK N   1      -2.561  -3.232   1.260  0.00  0.00     0.148 C 
HETATM   19  H   UNK N   1      -3.814  -4.898   0.912  0.00  0.00     0.161 HD
HETATM   20  O   UNK N   1      -5.967   0.072  -0.478  0.00  0.00    -0.265 OA
BRANCH   5  21
HETATM   21  C   UNK N   1      -3.340   0.171   0.591  0.00  0.00     0.356 C 
HETATM   22  O   UNK N   1      -2.218   0.633   0.741  0.00  0.00    -0.283 OA
ENDBRANCH   5  21
ENDBRANCH   3   4
ENDBRANCH   1   3
BRANCH   1  23
HETATM   23  C   UNK N   1       0.397  -1.981  -0.740  0.00  0.00     0.028 A 
HETATM   24  C   UNK N   1       1.625  -2.478  -0.324  0.00  0.00     0.030 A 
HETATM   25  C   UNK N   1       2.653  -1.601  -0.016  0.00  0.00     0.019 A 
HETATM   26  C   UNK N   1       2.467  -0.215  -0.116  0.00  0.00     0.032 A 
HETATM   27  C   UNK N   1       1.226   0.293  -0.510  0.00  0.00     0.019 A 
HETATM   28  C   UNK N   1       0.188  -0.590  -0.809  0.00  0.00     0.030 A 
BRANCH  26  29
HETATM   29  C   UNK N   1       3.646   0.649  -0.020  0.00  0.00     0.252 C 
HETATM   30  N   UNK N   1       4.844   0.039   0.138  0.00  0.00    -0.343 N 
HETATM   31  H   UNK N   1       4.832  -0.859   0.542  0.00  0.00     0.163 HD
HETATM   32  O   UNK N   1       3.564   1.844  -0.259  0.00  0.00    -0.268 OA
BRANCH  30  33
HETATM   33  C   UNK N   1       6.134   0.567  -0.225  0.00  0.00     0.183 C 
BRANCH  33  34
HETATM   34  C   UNK N   1       6.463   1.896   0.434  0.00  0.00     0.046 C 
BRANCH  34  35
HETATM   35  C   UNK N   1       6.150   2.982  -0.583  0.00  0.00     0.112 C 
BRANCH  35  36
HETATM   36  C   UNK N   1       5.920   4.294   0.078  0.00  0.00     0.139 C 
HETATM   37  O   UNK N   1       4.813   4.806   0.039  0.00  0.00    -0.650 OA
BRANCH  36  38
HETATM   38  O   UNK N   1       6.934   4.929   0.693  0.00  0.00    -0.776 OA
HETATM   39  H   UNK N   1       7.670   4.538   1.121  0.00  0.00     0.167 HD
ENDBRANCH  36  38
ENDBRANCH  35  36
ENDBRANCH  34  35
ENDBRANCH  33  34
BRANCH  33  40
HETATM   40  C   UNK N   1       7.148  -0.516  -0.007  0.00  0.00     0.163 C 
HETATM   41  O   UNK N   1       6.965  -1.616  -0.507  0.00  0.00    -0.648 OA
BRANCH  40  42
HETATM   42  O   UNK N   1       8.252  -0.297   0.730  0.00  0.00    -0.775 OA
HETATM   43  H   UNK N   1       8.768  -0.887   1.244  0.00  0.00     0.167 HD
ENDBRANCH  40  42
ENDBRANCH  33  40
ENDBRANCH  30  33
ENDBRANCH  26  29
ENDBRANCH   1  23
TORSDOF 12
