MODEL 1
REMARK VINA RESULT:      -4.3      0.000      0.000
REMARK  0 active torsions:
REMARK  status: ('A' for Active; 'I' for Inactive)
REMARK       I    between atoms: N_1  and  C_4 
REMARK       I    between atoms: C_4  and  N_5 
REMARK       I    between atoms: N_5  and  C_8 
REMARK       I    between atoms: C_8  and  N_10 
ROOT
HETATM    1  N   UNK N   1      47.018  25.055   1.277  0.00  0.00    -0.234 N 
HETATM    2  N   UNK N   1      45.314  25.757   2.700  0.00  0.00    -0.234 N 
ATOM      3  HN  UNK N   1      44.494  25.576   3.279  1.00  0.00     0.174 HD
HETATM    4  C   UNK N   1      45.883  24.793   2.077  0.00  0.00     0.683 C 
HETATM    5  N   UNK N   1      45.399  23.458   2.171  0.00  0.00    -0.024 N 
HETATM    6  N   UNK N   1      43.573  23.837   3.620  0.00  0.00    -0.234 N 
ATOM      7  HN  UNK N   1      42.771  23.503   4.155  1.00  0.00     0.174 HD
HETATM    8  C   UNK N   1      44.271  23.010   2.927  0.00  0.00     0.687 C 
HETATM    9  C   UNK N   1      44.715  20.703   2.126  0.00  0.00     0.168 C 
HETATM   10  N   UNK N   1      43.930  21.626   2.903  0.00  0.00    -0.226 N 
HETATM   11  C   UNK N   1      42.804  21.123   3.648  0.00  0.00     0.168 C 
HETATM   12  H   UNK N   1      47.460  24.319   0.795  0.00  0.00     0.174 HD
HETATM   13  H   UNK N   1      47.365  25.973   1.201  0.00  0.00     0.174 HD
HETATM   14  H   UNK N   1      45.667  26.672   2.619  0.00  0.00     0.174 HD
HETATM   15  H   UNK N   1      45.889  22.772   1.663  0.00  0.00     0.203 HD
HETATM   16  H   UNK N   1      43.811  24.791   3.634  0.00  0.00     0.174 HD
ENDROOT
TORSDOF 0
ENDMDL
MODEL 2
REMARK VINA RESULT:      -4.2     22.939     25.022
REMARK  0 active torsions:
REMARK  status: ('A' for Active; 'I' for Inactive)
REMARK       I    between atoms: N_1  and  C_4 
REMARK       I    between atoms: C_4  and  N_5 
REMARK       I    between atoms: N_5  and  C_8 
REMARK       I    between atoms: C_8  and  N_10 
ROOT
HETATM    1  N   UNK N   1      21.365  11.724  11.903  0.00  0.00    -0.234 N 
HETATM    2  N   UNK N   1      23.593  12.153  12.427  0.00  0.00    -0.234 N 
ATOM      3  HN  UNK N   1      24.531  12.467  12.177  1.00  0.00     0.174 HD
HETATM    4  C   UNK N   1      22.660  12.161  11.547  0.00  0.00     0.683 C 
HETATM    5  N   UNK N   1      22.898  12.600  10.215  0.00  0.00    -0.024 N 
HETATM    6  N   UNK N   1      25.189  13.137  10.415  0.00  0.00    -0.234 N 
ATOM      7  HN  UNK N   1      26.067  13.477  10.019  1.00  0.00     0.174 HD
HETATM    8  C   UNK N   1      24.137  13.072   9.680  0.00  0.00     0.687 C 
HETATM    9  C   UNK N   1      23.010  13.400   7.493  0.00  0.00     0.168 C 
HETATM   10  N   UNK N   1      24.190  13.474   8.313  0.00  0.00    -0.226 N 
HETATM   11  C   UNK N   1      25.413  13.957   7.726  0.00  0.00     0.168 C 
HETATM   12  H   UNK N   1      20.644  11.727  11.233  0.00  0.00     0.174 HD
HETATM   13  H   UNK N   1      21.184  11.417  12.821  0.00  0.00     0.174 HD
HETATM   14  H   UNK N   1      23.404  11.845  13.342  0.00  0.00     0.174 HD
HETATM   15  H   UNK N   1      22.132  12.576   9.597  0.00  0.00     0.203 HD
HETATM   16  H   UNK N   1      25.149  12.860  11.358  0.00  0.00     0.174 HD
ENDROOT
TORSDOF 0
ENDMDL
MODEL 3
REMARK VINA RESULT:      -4.1     14.637     16.534
REMARK  0 active torsions:
REMARK  status: ('A' for Active; 'I' for Inactive)
REMARK       I    between atoms: N_1  and  C_4 
REMARK       I    between atoms: C_4  and  N_5 
REMARK       I    between atoms: N_5  and  C_8 
REMARK       I    between atoms: C_8  and  N_10 
ROOT
HETATM    1  N   UNK N   1      27.724  18.412   9.113  0.00  0.00    -0.234 N 
HETATM    2  N   UNK N   1      29.751  18.353  10.257  0.00  0.00    -0.234 N 
ATOM      3  HN  UNK N   1      30.759  18.198  10.293  1.00  0.00     0.174 HD
HETATM    4  C   UNK N   1      29.119  18.195   9.153  0.00  0.00     0.683 C 
HETATM    5  N   UNK N   1      29.791  17.806   7.961  0.00  0.00    -0.024 N 
HETATM    6  N   UNK N   1      31.987  17.652   8.817  0.00  0.00    -0.234 N 
ATOM      7  HN  UNK N   1      32.982  17.462   8.698  1.00  0.00     0.174 HD
HETATM    8  C   UNK N   1      31.189  17.545   7.815  0.00  0.00     0.687 C 
HETATM    9  C   UNK N   1      30.794  17.044   5.416  0.00  0.00     0.168 C 
HETATM   10  N   UNK N   1      31.690  17.162   6.536  0.00  0.00    -0.226 N 
HETATM   11  C   UNK N   1      33.090  16.889   6.336  0.00  0.00     0.168 C 
HETATM   12  H   UNK N   1      27.232  18.293   8.268  0.00  0.00     0.174 HD
HETATM   13  H   UNK N   1      27.244  18.682   9.929  0.00  0.00     0.174 HD
HETATM   14  H   UNK N   1      29.264  18.623  11.068  0.00  0.00     0.174 HD
HETATM   15  H   UNK N   1      29.237  17.705   7.153  0.00  0.00     0.203 HD
HETATM   16  H   UNK N   1      31.637  17.916   9.698  0.00  0.00     0.174 HD
ENDROOT
TORSDOF 0
ENDMDL
MODEL 4
REMARK VINA RESULT:      -4.1      2.451      3.285
REMARK  0 active torsions:
REMARK  status: ('A' for Active; 'I' for Inactive)
REMARK       I    between atoms: N_1  and  C_4 
REMARK       I    between atoms: C_4  and  N_5 
REMARK       I    between atoms: N_5  and  C_8 
REMARK       I    between atoms: C_8  and  N_10 
ROOT
HETATM    1  N   UNK N   1      45.909  20.146   3.545  0.00  0.00    -0.234 N 
HETATM    2  N   UNK N   1      45.524  22.310   4.313  0.00  0.00    -0.234 N 
ATOM      3  HN  UNK N   1      44.984  23.176   4.330  1.00  0.00     0.174 HD
HETATM    4  C   UNK N   1      45.155  21.340   3.560  0.00  0.00     0.683 C 
HETATM    5  N   UNK N   1      43.999  21.438   2.736  0.00  0.00    -0.024 N 
HETATM    6  N   UNK N   1      43.332  23.630   3.305  0.00  0.00    -0.234 N 
ATOM      7  HN  UNK N   1      42.697  24.424   3.215  1.00  0.00     0.174 HD
HETATM    8  C   UNK N   1      43.122  22.561   2.624  0.00  0.00     0.687 C 
HETATM    9  C   UNK N   1      41.774  21.280   0.980  0.00  0.00     0.168 C 
HETATM   10  N   UNK N   1      42.005  22.479   1.741  0.00  0.00    -0.226 N 
HETATM   11  C   UNK N   1      41.092  23.583   1.592  0.00  0.00     0.168 C 
HETATM   12  H   UNK N   1      45.631  19.397   2.969  0.00  0.00     0.174 HD
HETATM   13  H   UNK N   1      46.711  20.063   4.109  0.00  0.00     0.174 HD
HETATM   14  H   UNK N   1      46.327  22.219   4.875  0.00  0.00     0.174 HD
HETATM   15  H   UNK N   1      43.780  20.651   2.186  0.00  0.00     0.203 HD
HETATM   16  H   UNK N   1      44.104  23.683   3.914  0.00  0.00     0.174 HD
ENDROOT
TORSDOF 0
ENDMDL
MODEL 5
REMARK VINA RESULT:      -4.0     15.390     16.760
REMARK  0 active torsions:
REMARK  status: ('A' for Active; 'I' for Inactive)
REMARK       I    between atoms: N_1  and  C_4 
REMARK       I    between atoms: C_4  and  N_5 
REMARK       I    between atoms: N_5  and  C_8 
REMARK       I    between atoms: C_8  and  N_10 
ROOT
HETATM    1  N   UNK N   1      33.043  14.949  10.197  0.00  0.00    -0.234 N 
HETATM    2  N   UNK N   1      34.855  16.169  11.000  0.00  0.00    -0.234 N 
ATOM      3  HN  UNK N   1      35.666  16.280  11.610  1.00  0.00     0.174 HD
HETATM    4  C   UNK N   1      34.163  15.092  11.045  0.00  0.00     0.683 C 
HETATM    5  N   UNK N   1      34.496  14.031  11.934  0.00  0.00    -0.024 N 
HETATM    6  N   UNK N   1      36.393  14.996  12.956  0.00  0.00    -0.234 N 
ATOM      7  HN  UNK N   1      37.167  14.961  13.620  1.00  0.00     0.174 HD
HETATM    8  C   UNK N   1      35.586  14.002  12.858  0.00  0.00     0.687 C 
HETATM    9  C   UNK N   1      34.861  11.734  13.562  0.00  0.00     0.168 C 
HETATM   10  N   UNK N   1      35.767  12.847  13.675  0.00  0.00    -0.226 N 
HETATM   11  C   UNK N   1      36.850  12.767  14.621  0.00  0.00     0.168 C 
HETATM   12  H   UNK N   1      32.507  14.124  10.226  0.00  0.00     0.174 HD
HETATM   13  H   UNK N   1      32.800  15.673   9.576  0.00  0.00     0.174 HD
HETATM   14  H   UNK N   1      34.606  16.889  10.377  0.00  0.00     0.174 HD
HETATM   15  H   UNK N   1      33.916  13.236  11.910  0.00  0.00     0.203 HD
HETATM   16  H   UNK N   1      36.265  15.792  12.390  0.00  0.00     0.174 HD
ENDROOT
TORSDOF 0
ENDMDL
MODEL 6
REMARK VINA RESULT:      -3.8     13.575     15.185
REMARK  0 active torsions:
REMARK  status: ('A' for Active; 'I' for Inactive)
REMARK       I    between atoms: N_1  and  C_4 
REMARK       I    between atoms: C_4  and  N_5 
REMARK       I    between atoms: N_5  and  C_8 
REMARK       I    between atoms: C_8  and  N_10 
ROOT
HETATM    1  N   UNK N   1      34.663  13.518  12.103  0.00  0.00    -0.234 N 
HETATM    2  N   UNK N   1      36.026  15.406  12.092  0.00  0.00    -0.234 N 
ATOM      3  HN  UNK N   1      36.290  16.323  11.730  1.00  0.00     0.174 HD
HETATM    4  C   UNK N   1      35.020  14.786  11.594  0.00  0.00     0.683 C 
HETATM    5  N   UNK N   1      34.251  15.347  10.537  0.00  0.00    -0.024 N 
HETATM    6  N   UNK N   1      35.429  17.376  10.268  0.00  0.00    -0.234 N 
ATOM      7  HN  UNK N   1      35.569  18.275   9.806  1.00  0.00     0.174 HD
HETATM    8  C   UNK N   1      34.464  16.610   9.902  0.00  0.00     0.687 C 
HETATM    9  C   UNK N   1      32.508  16.151   8.444  0.00  0.00     0.168 C 
HETATM   10  N   UNK N   1      33.587  17.012   8.852  0.00  0.00    -0.226 N 
HETATM   11  C   UNK N   1      33.759  18.275   8.180  0.00  0.00     0.168 C 
HETATM   12  H   UNK N   1      33.892  13.036  11.725  0.00  0.00     0.174 HD
HETATM   13  H   UNK N   1      35.185  13.116  12.834  0.00  0.00     0.174 HD
HETATM   14  H   UNK N   1      36.542  14.998  12.823  0.00  0.00     0.174 HD
HETATM   15  H   UNK N   1      33.494  14.810  10.207  0.00  0.00     0.203 HD
HETATM   16  H   UNK N   1      36.032  17.095  10.994  0.00  0.00     0.174 HD
ENDROOT
TORSDOF 0
ENDMDL
MODEL 7
REMARK VINA RESULT:      -3.8     15.070     16.583
REMARK  0 active torsions:
REMARK  status: ('A' for Active; 'I' for Inactive)
REMARK       I    between atoms: N_1  and  C_4 
REMARK       I    between atoms: C_4  and  N_5 
REMARK       I    between atoms: N_5  and  C_8 
REMARK       I    between atoms: C_8  and  N_10 
ROOT
HETATM    1  N   UNK N   1      37.230  14.546  15.190  0.00  0.00    -0.234 N 
HETATM    2  N   UNK N   1      35.991  12.734  14.414  0.00  0.00    -0.234 N 
ATOM      3  HN  UNK N   1      35.378  12.291  13.729  1.00  0.00     0.174 HD
HETATM    4  C   UNK N   1      36.381  13.942  14.236  0.00  0.00     0.683 C 
HETATM    5  N   UNK N   1      35.979  14.693  13.097  0.00  0.00    -0.024 N 
HETATM    6  N   UNK N   1      34.639  13.060  12.041  0.00  0.00    -0.234 N 
ATOM      7  HN  UNK N   1      34.034  12.756  11.278  1.00  0.00     0.174 HD
HETATM    8  C   UNK N   1      35.129  14.248  12.037  0.00  0.00     0.687 C 
HETATM    9  C   UNK N   1      35.382  16.473  10.967  0.00  0.00     0.168 C 
HETATM   10  N   UNK N   1      34.831  15.144  10.969  0.00  0.00    -0.226 N 
HETATM   11  C   UNK N   1      33.981  14.744   9.877  0.00  0.00     0.168 C 
HETATM   12  H   UNK N   1      37.534  15.473  15.060  0.00  0.00     0.174 HD
HETATM   13  H   UNK N   1      37.518  14.039  15.984  0.00  0.00     0.174 HD
HETATM   14  H   UNK N   1      36.283  12.234  15.210  0.00  0.00     0.174 HD
HETATM   15  H   UNK N   1      36.320  15.614  13.031  0.00  0.00     0.203 HD
HETATM   16  H   UNK N   1      34.847  12.444  12.780  0.00  0.00     0.174 HD
ENDROOT
TORSDOF 0
ENDMDL
MODEL 8
REMARK VINA RESULT:      -3.8      2.104      3.455
REMARK  0 active torsions:
REMARK  status: ('A' for Active; 'I' for Inactive)
REMARK       I    between atoms: N_1  and  C_4 
REMARK       I    between atoms: C_4  and  N_5 
REMARK       I    between atoms: N_5  and  C_8 
REMARK       I    between atoms: C_8  and  N_10 
ROOT
HETATM    1  N   UNK N   1      43.277  23.646   3.308  0.00  0.00    -0.234 N 
HETATM    2  N   UNK N   1      45.460  22.896   3.617  0.00  0.00    -0.234 N 
ATOM      3  HN  UNK N   1      46.157  22.153   3.669  1.00  0.00     0.174 HD
HETATM    4  C   UNK N   1      44.234  22.609   3.378  0.00  0.00     0.683 C 
HETATM    5  N   UNK N   1      43.811  21.265   3.181  0.00  0.00    -0.024 N 
HETATM    6  N   UNK N   1      45.895  20.186   3.443  0.00  0.00    -0.234 N 
ATOM      7  HN  UNK N   1      46.470  19.344   3.465  1.00  0.00     0.174 HD
HETATM    8  C   UNK N   1      44.633  20.097   3.216  0.00  0.00     0.687 C 
HETATM    9  C   UNK N   1      42.619  18.725   2.741  0.00  0.00     0.168 C 
HETATM   10  N   UNK N   1      44.032  18.822   2.995  0.00  0.00    -0.226 N 
HETATM   11  C   UNK N   1      44.817  17.615   3.020  0.00  0.00     0.168 C 
HETATM   12  H   UNK N   1      42.334  23.432   3.125  0.00  0.00     0.174 HD
HETATM   13  H   UNK N   1      43.554  24.581   3.442  0.00  0.00     0.174 HD
HETATM   14  H   UNK N   1      45.729  23.834   3.750  0.00  0.00     0.174 HD
HETATM   15  H   UNK N   1      42.852  21.124   3.002  0.00  0.00     0.203 HD
HETATM   16  H   UNK N   1      46.306  21.067   3.595  0.00  0.00     0.174 HD
ENDROOT
TORSDOF 0
ENDMDL
MODEL 9
REMARK VINA RESULT:      -3.8     13.774     15.105
REMARK  0 active torsions:
REMARK  status: ('A' for Active; 'I' for Inactive)
REMARK       I    between atoms: N_1  and  C_4 
REMARK       I    between atoms: C_4  and  N_5 
REMARK       I    between atoms: N_5  and  C_8 
REMARK       I    between atoms: C_8  and  N_10 
ROOT
HETATM    1  N   UNK N   1      33.564  18.391   7.957  0.00  0.00    -0.234 N 
HETATM    2  N   UNK N   1      31.949  16.980   8.862  0.00  0.00    -0.234 N 
ATOM      3  HN  UNK N   1      31.667  16.195   9.450  1.00  0.00     0.174 HD
HETATM    4  C   UNK N   1      33.186  17.303   8.774  0.00  0.00     0.683 C 
HETATM    5  N   UNK N   1      34.192  16.589   9.483  0.00  0.00    -0.024 N 
HETATM    6  N   UNK N   1      32.818  15.001  10.563  0.00  0.00    -0.234 N 
ATOM      7  HN  UNK N   1      32.693  14.202  11.184  1.00  0.00     0.174 HD
HETATM    8  C   UNK N   1      33.995  15.470  10.350  0.00  0.00     0.687 C 
HETATM    9  C   UNK N   1      36.446  15.404  10.739  0.00  0.00     0.168 C 
HETATM   10  N   UNK N   1      35.129  14.877  10.980  0.00  0.00    -0.226 N 
HETATM   11  C   UNK N   1      34.985  13.747  11.862  0.00  0.00     0.168 C 
HETATM   12  H   UNK N   1      34.513  18.644   7.884  0.00  0.00     0.174 HD
HETATM   13  H   UNK N   1      32.880  18.895   7.460  0.00  0.00     0.174 HD
HETATM   14  H   UNK N   1      31.271  17.489   8.362  0.00  0.00     0.174 HD
HETATM   15  H   UNK N   1      35.120  16.897   9.364  0.00  0.00     0.203 HD
HETATM   16  H   UNK N   1      32.038  15.413  10.126  0.00  0.00     0.174 HD
ENDROOT
TORSDOF 0
ENDMDL
