MODEL 1
REMARK VINA RESULT:      -1.5      0.000      0.000
REMARK  0 active torsions:
REMARK  status: ('A' for Active; 'I' for Inactive)
ROOT
HETATM    1  N   UNK N   1      35.601  22.245  12.610  0.00  0.00    -0.439 N 
HETATM    2  H   UNK N   1      36.314  21.700  13.096  0.00  0.00     0.146 HD
HETATM    3  H   UNK N   1      34.799  21.775  12.189  0.00  0.00     0.146 HD
HETATM    4  H   UNK N   1      35.691  23.259  12.545  0.00  0.00     0.146 HD
ENDROOT
TORSDOF 0
ENDMDL
MODEL 2
REMARK VINA RESULT:      -1.2     10.981     10.981
REMARK  0 active torsions:
REMARK  status: ('A' for Active; 'I' for Inactive)
ROOT
HETATM    1  N   UNK N   1      25.148  22.433   9.251  0.00  0.00    -0.439 N 
HETATM    2  H   UNK N   1      26.168  22.420   9.268  0.00  0.00     0.146 HD
HETATM    3  H   UNK N   1      24.654  22.593   8.373  0.00  0.00     0.146 HD
HETATM    4  H   UNK N   1      24.622  22.286  10.113  0.00  0.00     0.146 HD
ENDROOT
TORSDOF 0
ENDMDL
MODEL 3
REMARK VINA RESULT:      -1.2     19.884     19.884
REMARK  0 active torsions:
REMARK  status: ('A' for Active; 'I' for Inactive)
ROOT
HETATM    1  N   UNK N   1      16.938  26.870   7.546  0.00  0.00    -0.439 N 
HETATM    2  H   UNK N   1      17.957  26.857   7.562  0.00  0.00     0.146 HD
HETATM    3  H   UNK N   1      16.443  27.030   6.667  0.00  0.00     0.146 HD
HETATM    4  H   UNK N   1      16.412  26.723   8.407  0.00  0.00     0.146 HD
ENDROOT
TORSDOF 0
ENDMDL
MODEL 4
REMARK VINA RESULT:      -1.1     16.994     16.994
REMARK  0 active torsions:
REMARK  status: ('A' for Active; 'I' for Inactive)
ROOT
HETATM    1  N   UNK N   1      18.904  19.723  10.704  0.00  0.00    -0.439 N 
HETATM    2  H   UNK N   1      18.926  19.641   9.687  0.00  0.00     0.146 HD
HETATM    3  H   UNK N   1      18.822  18.886  11.282  0.00  0.00     0.146 HD
HETATM    4  H   UNK N   1      18.964  20.642  11.142  0.00  0.00     0.146 HD
ENDROOT
TORSDOF 0
ENDMDL
MODEL 5
REMARK VINA RESULT:      -1.0     20.012     20.012
REMARK  0 active torsions:
REMARK  status: ('A' for Active; 'I' for Inactive)
ROOT
HETATM    1  N   UNK N   1      20.160  24.382   0.061  0.00  0.00    -0.439 N 
HETATM    2  H   UNK N   1      19.219  24.328   0.452  0.00  0.00     0.146 HD
HETATM    3  H   UNK N   1      20.972  24.292   0.673  0.00  0.00     0.146 HD
HETATM    4  H   UNK N   1      20.289  24.526  -0.940  0.00  0.00     0.146 HD
ENDROOT
TORSDOF 0
ENDMDL
MODEL 6
REMARK VINA RESULT:      -1.0     11.824     11.824
REMARK  0 active torsions:
REMARK  status: ('A' for Active; 'I' for Inactive)
ROOT
HETATM    1  N   UNK N   1      43.568  23.815   4.015  0.00  0.00    -0.439 N 
HETATM    2  H   UNK N   1      44.239  23.354   3.400  0.00  0.00     0.146 HD
HETATM    3  H   UNK N   1      43.874  24.191   4.913  0.00  0.00     0.146 HD
HETATM    4  H   UNK N   1      42.592  23.900   3.732  0.00  0.00     0.146 HD
ENDROOT
TORSDOF 0
ENDMDL
MODEL 7
REMARK VINA RESULT:      -1.0     19.527     19.527
REMARK  0 active torsions:
REMARK  status: ('A' for Active; 'I' for Inactive)
ROOT
HETATM    1  N   UNK N   1      20.477  20.946   0.326  0.00  0.00    -0.439 N 
HETATM    2  H   UNK N   1      21.190  20.401   0.812  0.00  0.00     0.146 HD
HETATM    3  H   UNK N   1      19.675  20.476  -0.095  0.00  0.00     0.146 HD
HETATM    4  H   UNK N   1      20.566  21.960   0.261  0.00  0.00     0.146 HD
ENDROOT
TORSDOF 0
ENDMDL
MODEL 8
REMARK VINA RESULT:      -1.0     17.186     17.186
REMARK  0 active torsions:
REMARK  status: ('A' for Active; 'I' for Inactive)
ROOT
HETATM    1  N   UNK N   1      18.907  25.831  10.666  0.00  0.00    -0.439 N 
HETATM    2  H   UNK N   1      18.605  26.605  10.073  0.00  0.00     0.146 HD
HETATM    3  H   UNK N   1      18.257  25.420  11.337  0.00  0.00     0.146 HD
HETATM    4  H   UNK N   1      19.857  25.470  10.588  0.00  0.00     0.146 HD
ENDROOT
TORSDOF 0
ENDMDL
MODEL 9
REMARK VINA RESULT:      -1.0      9.474      9.474
REMARK  0 active torsions:
REMARK  status: ('A' for Active; 'I' for Inactive)
ROOT
HETATM    1  N   UNK N   1      27.668  18.457   9.077  0.00  0.00    -0.439 N 
HETATM    2  H   UNK N   1      28.435  18.079   9.633  0.00  0.00     0.146 HD
HETATM    3  H   UNK N   1      27.498  19.464   9.062  0.00  0.00     0.146 HD
HETATM    4  H   UNK N   1      27.073  17.831   8.537  0.00  0.00     0.146 HD
ENDROOT
TORSDOF 0
ENDMDL
