MODEL 1
REMARK VINA RESULT:      -7.9      0.000      0.000
REMARK  12 active torsions:
REMARK  status: ('A' for Active; 'I' for Inactive)
REMARK    1  A    between atoms: C_42  and  C_8 
REMARK    2  A    between atoms: C_43  and  C_9 
REMARK    3  A    between atoms: O_59  and  C_27 
REMARK    4  A    between atoms: C_45  and  C_32 
REMARK    5  A    between atoms: O_56  and  C_35 
REMARK    6  A    between atoms: C_39  and  O_59 
REMARK    7  A    between atoms: C_45  and  C_40 
REMARK    8  A    between atoms: O_57  and  C_40 
REMARK    9  A    between atoms: C_46  and  C_41 
REMARK   10  A    between atoms: O_58  and  C_41 
REMARK   11  A    between atoms: C_42  and  O_54 
REMARK   12  A    between atoms: C_46  and  O_55 
ROOT
HETATM    1  C   UNK N   1      36.353  14.735  11.431  0.00  0.00     0.150 C 
HETATM    2  C   UNK N   1      35.008   9.186   7.543  0.00  0.00    -0.000 C 
HETATM    3  C   UNK N   1      35.597   9.418   8.721  0.00  0.00    -0.015 C 
HETATM    4  C   UNK N   1      35.261  12.427   8.477  0.00  0.00     0.049 C 
HETATM    5  C   UNK N   1      33.570   9.619   7.405  0.00  0.00     0.300 C 
HETATM    6  C   UNK N   1      34.428  11.839   7.362  0.00  0.00     0.274 C 
HETATM    7  C   UNK N   1      32.772  14.042   8.267  0.00  0.00     0.022 C 
HETATM    8  C   UNK N   1      34.441  15.889   9.554  0.00  0.00     0.067 C 
HETATM    9  C   UNK N   1      33.526  13.704   9.425  0.00  0.00    -0.018 C 
HETATM   10  C   UNK N   1      32.908  15.327   7.666  0.00  0.00     0.000 C 
HETATM   11  C   UNK N   1      34.272  14.641  10.076  0.00  0.00     0.040 C 
HETATM   12  C   UNK N   1      33.864  16.219   8.324  0.00  0.00     0.078 C 
HETATM   13  C   UNK N   1      33.701  11.013   9.453  0.00  0.00     0.253 C 
HETATM   14  C   UNK N   1      34.938  12.629  11.035  0.00  0.00     0.146 C 
HETATM   15  C   UNK N   1      35.741  10.217  11.100  0.00  0.00     0.193 C 
HETATM   16  C   UNK N   1      34.746   9.866   9.901  0.00  0.00     0.039 C 
HETATM   17  C   UNK N   1      34.281  12.395   9.643  0.00  0.00     0.047 C 
HETATM   18  C   UNK N   1      36.183  11.720  11.267  0.00  0.00     0.194 C 
HETATM   19  N   UNK N   1      35.131  14.071  11.031  0.00  0.00    -0.375 N 
HETATM   20  N   UNK N   1      33.416  10.963   7.991  0.00  0.00     0.098 N 
ENDROOT
BRANCH  10  21
HETATM   21  C   UNK N   1      32.387  15.535   6.159  0.00  0.00     0.121 C 
HETATM   22  C   UNK N   1      31.797  16.970   6.034  0.00  0.00     0.038 C 
HETATM   23  C   UNK N   1      30.349  17.140   6.449  0.00  0.00     0.018 C 
HETATM   24  C   UNK N   1      29.868  17.831   7.711  0.00  0.00     0.046 C 
HETATM   25  C   UNK N   1      29.697  17.863   5.291  0.00  0.00     0.277 C 
HETATM   26  C   UNK N   1      28.353  18.063   7.712  0.00  0.00     0.084 C 
HETATM   27  C   UNK N   1      27.641  17.321   6.536  0.00  0.00     0.310 C 
HETATM   28  N   UNK N   1      28.288  17.514   5.207  0.00  0.00     0.092 N 
HETATM   29  C   UNK N   1      28.248  16.288   4.389  0.00  0.00     0.277 C 
HETATM   30  C   UNK N   1      28.829  15.070   5.134  0.00  0.00     0.072 C 
HETATM   31  C   UNK N   1      30.170  14.479   4.704  0.00  0.00    -0.020 A 
HETATM   32  C   UNK N   1      30.210  13.706   3.552  0.00  0.00    -0.001 A 
HETATM   33  C   UNK N   1      31.543  14.498   5.218  0.00  0.00     0.040 A 
HETATM   34  C   UNK N   1      29.234  13.448   2.591  0.00  0.00     0.014 A 
HETATM   35  C   UNK N   1      31.472  13.227   3.428  0.00  0.00     0.043 A 
HETATM   36  C   UNK N   1      29.600  12.687   1.461  0.00  0.00     0.001 A 
HETATM   37  C   UNK N   1      30.914  12.184   1.339  0.00  0.00     0.002 A 
HETATM   38  C   UNK N   1      31.865  12.449   2.336  0.00  0.00     0.030 A 
HETATM   39  N   UNK N   1      32.262  13.661   4.400  0.00  0.00    -0.357 N 
HETATM   40  H   UNK N   1      33.210  13.423   4.516  0.00  0.00     0.166 HD
BRANCH  26  41
HETATM   41  C   UNK N   1      27.812  17.589   9.063  0.00  0.00     0.035 C 
HETATM   42  C   UNK N   1      28.920  17.226  10.040  0.00  0.00     0.008 C 
ENDBRANCH  26  41
BRANCH  26  43
HETATM   43  O   UNK N   1      28.160  19.438   7.590  0.00  0.00    -0.388 OA
HETATM   44  H   UNK N   1      28.055  20.213   8.164  0.00  0.00     0.210 HD
ENDBRANCH  26  43
BRANCH  21  45
HETATM   45  C   UNK N   1      33.728  15.587   5.372  0.00  0.00     0.278 C 
HETATM   46  O   UNK N   1      33.930  16.428   4.510  0.00  0.00    -0.264 OA
BRANCH  45  47
HETATM   47  O   UNK N   1      34.646  14.595   5.576  0.00  0.00    -0.325 OA
HETATM   48  C   UNK N   1      35.999  14.825   5.687  0.00  0.00     0.213 C 
ENDBRANCH  45  47
ENDBRANCH  21  45
ENDBRANCH  10  21
BRANCH  12  49
HETATM   49  O   UNK N   1      34.370  17.303   7.712  0.00  0.00    -0.355 OA
HETATM   50  C   UNK N   1      34.562  18.534   8.312  0.00  0.00     0.210 C 
ENDBRANCH  12  49
BRANCH  16  51
HETATM   51  C   UNK N   1      33.943   8.574  10.215  0.00  0.00     0.014 C 
HETATM   52  C   UNK N   1      32.475   8.794  10.563  0.00  0.00     0.006 C 
ENDBRANCH  16  51
BRANCH  18  53
HETATM   53  C   UNK N   1      36.800  11.944  12.662  0.00  0.00     0.298 C 
HETATM   54  O   UNK N   1      37.994  11.746  12.830  0.00  0.00    -0.262 OA
BRANCH  53  55
HETATM   55  O   UNK N   1      36.071  12.371  13.727  0.00  0.00    -0.324 OA
HETATM   56  C   UNK N   1      36.579  13.091  14.781  0.00  0.00     0.213 C 
ENDBRANCH  53  55
ENDBRANCH  18  53
BRANCH  18  57
HETATM   57  O   UNK N   1      37.158  12.037  10.314  0.00  0.00    -0.375 OA
HETATM   58  H   UNK N   1      37.651  12.129   9.483  0.00  0.00     0.211 HD
ENDBRANCH  18  57
BRANCH  15  59
HETATM   59  O   UNK N   1      35.263   9.712  12.304  0.00  0.00    -0.311 OA
BRANCH  59  60
HETATM   60  C   UNK N   1      35.955   8.803  13.062  0.00  0.00     0.255 C 
HETATM   61  C   UNK N   1      35.694   8.619  14.534  0.00  0.00     0.126 C 
HETATM   62  O   UNK N   1      36.851   8.156  12.550  0.00  0.00    -0.266 OA
ENDBRANCH  59  60
ENDBRANCH  15  59
TORSDOF 12
ENDMDL
MODEL 2
REMARK VINA RESULT:      -7.6      3.036      9.902
REMARK  12 active torsions:
REMARK  status: ('A' for Active; 'I' for Inactive)
REMARK    1  A    between atoms: C_42  and  C_8 
REMARK    2  A    between atoms: C_43  and  C_9 
REMARK    3  A    between atoms: O_59  and  C_27 
REMARK    4  A    between atoms: C_45  and  C_32 
REMARK    5  A    between atoms: O_56  and  C_35 
REMARK    6  A    between atoms: C_39  and  O_59 
REMARK    7  A    between atoms: C_45  and  C_40 
REMARK    8  A    between atoms: O_57  and  C_40 
REMARK    9  A    between atoms: C_46  and  C_41 
REMARK   10  A    between atoms: O_58  and  C_41 
REMARK   11  A    between atoms: C_42  and  O_54 
REMARK   12  A    between atoms: C_46  and  O_55 
ROOT
HETATM    1  C   UNK N   1      32.324  12.747   4.077  0.00  0.00     0.150 C 
HETATM    2  C   UNK N   1      34.190  18.192   7.895  0.00  0.00    -0.000 C 
HETATM    3  C   UNK N   1      33.261  17.938   6.966  0.00  0.00    -0.015 C 
HETATM    4  C   UNK N   1      34.252  15.102   6.523  0.00  0.00     0.049 C 
HETATM    5  C   UNK N   1      34.154  17.343   9.141  0.00  0.00     0.300 C 
HETATM    6  C   UNK N   1      34.974  15.589   7.757  0.00  0.00     0.274 C 
HETATM    7  C   UNK N   1      34.400  12.828   8.435  0.00  0.00     0.022 C 
HETATM    8  C   UNK N   1      34.027  11.423   6.040  0.00  0.00     0.067 C 
HETATM    9  C   UNK N   1      33.366  13.159   7.515  0.00  0.00    -0.018 C 
HETATM   10  C   UNK N   1      35.345  11.809   8.125  0.00  0.00     0.000 C 
HETATM   11  C   UNK N   1      33.159  12.413   6.393  0.00  0.00     0.040 C 
HETATM   12  C   UNK N   1      35.160  11.172   6.820  0.00  0.00     0.078 C 
HETATM   13  C   UNK N   1      32.635  15.693   8.079  0.00  0.00     0.253 C 
HETATM   14  C   UNK N   1      31.836  14.298   6.065  0.00  0.00     0.146 C 
HETATM   15  C   UNK N   1      31.271  16.776   5.964  0.00  0.00     0.193 C 
HETATM   16  C   UNK N   1      32.106  17.009   7.305  0.00  0.00     0.039 C 
HETATM   17  C   UNK N   1      32.952  14.574   7.116  0.00  0.00     0.047 C 
HETATM   18  C   UNK N   1      31.615  15.502   5.101  0.00  0.00     0.194 C 
HETATM   19  N   UNK N   1      32.275  13.033   5.495  0.00  0.00    -0.375 N 
HETATM   20  N   UNK N   1      33.941  15.936   8.757  0.00  0.00     0.098 N 
ENDROOT
BRANCH  10  21
HETATM   21  C   UNK N   1      36.717  11.744   8.962  0.00  0.00     0.121 C 
HETATM   22  C   UNK N   1      37.496  13.072   8.737  0.00  0.00     0.038 C 
HETATM   23  C   UNK N   1      38.372  13.136   7.501  0.00  0.00     0.018 C 
HETATM   24  C   UNK N   1      38.075  13.940   6.249  0.00  0.00     0.046 C 
HETATM   25  C   UNK N   1      39.718  13.611   8.005  0.00  0.00     0.277 C 
HETATM   26  C   UNK N   1      39.271  13.998   5.292  0.00  0.00     0.084 C 
HETATM   27  C   UNK N   1      40.416  13.023   5.716  0.00  0.00     0.310 C 
HETATM   28  N   UNK N   1      40.783  13.098   7.159  0.00  0.00     0.092 N 
HETATM   29  C   UNK N   1      41.108  11.773   7.716  0.00  0.00     0.277 C 
HETATM   30  C   UNK N   1      39.987  10.745   7.467  0.00  0.00     0.072 C 
HETATM   31  C   UNK N   1      39.128  10.252   8.629  0.00  0.00    -0.020 A 
HETATM   32  C   UNK N   1      39.679   9.334   9.512  0.00  0.00    -0.001 A 
HETATM   33  C   UNK N   1      37.764  10.496   9.109  0.00  0.00     0.040 A 
HETATM   34  C   UNK N   1      40.976   8.836   9.621  0.00  0.00     0.014 A 
HETATM   35  C   UNK N   1      38.709   8.987  10.393  0.00  0.00     0.043 A 
HETATM   36  C   UNK N   1      41.267   7.969  10.695  0.00  0.00     0.001 A 
HETATM   37  C   UNK N   1      40.252   7.604  11.607  0.00  0.00     0.002 A 
HETATM   38  C   UNK N   1      38.953   8.111  11.455  0.00  0.00     0.030 A 
HETATM   39  N   UNK N   1      37.578   9.639  10.165  0.00  0.00    -0.357 N 
HETATM   40  H   UNK N   1      36.741   9.526  10.670  0.00  0.00     0.166 HD
BRANCH  26  41
HETATM   41  C   UNK N   1      38.759  13.663   3.890  0.00  0.00     0.035 C 
HETATM   42  C   UNK N   1      37.335  13.128   3.900  0.00  0.00     0.008 C 
ENDBRANCH  26  41
BRANCH  26  43
HETATM   43  O   UNK N   1      39.736  15.312   5.315  0.00  0.00    -0.388 OA
HETATM   44  H   UNK N   1      40.452  15.825   5.721  0.00  0.00     0.210 HD
ENDBRANCH  26  43
BRANCH  21  45
HETATM   45  C   UNK N   1      36.193  11.834  10.423  0.00  0.00     0.278 C 
HETATM   46  O   UNK N   1      36.715  12.573  11.244  0.00  0.00    -0.264 OA
BRANCH  45  47
HETATM   47  O   UNK N   1      35.203  10.978  10.819  0.00  0.00    -0.325 OA
HETATM   48  C   UNK N   1      34.704  10.936  12.101  0.00  0.00     0.213 C 
ENDBRANCH  45  47
ENDBRANCH  21  45
ENDBRANCH  10  21
BRANCH  12  49
HETATM   49  O   UNK N   1      36.135  10.463   6.225  0.00  0.00    -0.355 OA
HETATM   50  C   UNK N   1      36.125   9.089   6.057  0.00  0.00     0.210 C 
ENDBRANCH  12  49
BRANCH  16  51
HETATM   51  C   UNK N   1      31.296  17.871   8.312  0.00  0.00     0.014 C 
HETATM   52  C   UNK N   1      30.437  17.082   9.295  0.00  0.00     0.006 C 
ENDBRANCH  16  51
BRANCH  18  53
HETATM   53  C   UNK N   1      30.487  15.222   4.088  0.00  0.00     0.298 C 
HETATM   54  O   UNK N   1      30.550  15.707   2.968  0.00  0.00    -0.262 OA
BRANCH  53  55
HETATM   55  O   UNK N   1      29.415  14.440   4.382  0.00  0.00    -0.324 OA
HETATM   56  C   UNK N   1      28.703  13.714   3.457  0.00  0.00     0.213 C 
ENDBRANCH  53  55
ENDBRANCH  18  53
BRANCH  18  57
HETATM   57  O   UNK N   1      32.792  15.724   4.376  0.00  0.00    -0.375 OA
HETATM   58  H   UNK N   1      33.495  16.133   3.846  0.00  0.00     0.211 HD
ENDBRANCH  18  57
BRANCH  15  59
HETATM   59  O   UNK N   1      29.906  16.842   6.212  0.00  0.00    -0.311 OA
BRANCH  59  60
HETATM   60  C   UNK N   1      29.118  17.884   5.794  0.00  0.00     0.255 C 
HETATM   61  C   UNK N   1      28.035  18.471   6.659  0.00  0.00     0.126 C 
HETATM   62  O   UNK N   1      29.255  18.321   4.665  0.00  0.00    -0.266 OA
ENDBRANCH  59  60
ENDBRANCH  15  59
TORSDOF 12
ENDMDL
MODEL 3
REMARK VINA RESULT:      -7.3      4.031     10.011
REMARK  12 active torsions:
REMARK  status: ('A' for Active; 'I' for Inactive)
REMARK    1  A    between atoms: C_42  and  C_8 
REMARK    2  A    between atoms: C_43  and  C_9 
REMARK    3  A    between atoms: O_59  and  C_27 
REMARK    4  A    between atoms: C_45  and  C_32 
REMARK    5  A    between atoms: O_56  and  C_35 
REMARK    6  A    between atoms: C_39  and  O_59 
REMARK    7  A    between atoms: C_45  and  C_40 
REMARK    8  A    between atoms: O_57  and  C_40 
REMARK    9  A    between atoms: C_46  and  C_41 
REMARK   10  A    between atoms: O_58  and  C_41 
REMARK   11  A    between atoms: C_42  and  O_54 
REMARK   12  A    between atoms: C_46  and  O_55 
ROOT
HETATM    1  C   UNK N   1      27.354  19.007   4.555  0.00  0.00     0.150 C 
HETATM    2  C   UNK N   1      25.280  12.542   5.829  0.00  0.00    -0.000 C 
HETATM    3  C   UNK N   1      24.688  13.731   5.672  0.00  0.00    -0.015 C 
HETATM    4  C   UNK N   1      27.336  15.186   5.361  0.00  0.00     0.049 C 
HETATM    5  C   UNK N   1      26.108  12.038   4.674  0.00  0.00     0.300 C 
HETATM    6  C   UNK N   1      27.677  13.716   5.297  0.00  0.00     0.274 C 
HETATM    7  C   UNK N   1      29.453  14.844   3.300  0.00  0.00     0.022 C 
HETATM    8  C   UNK N   1      29.800  17.558   3.905  0.00  0.00     0.067 C 
HETATM    9  C   UNK N   1      28.365  15.760   3.323  0.00  0.00    -0.018 C 
HETATM   10  C   UNK N   1      30.762  15.266   3.670  0.00  0.00     0.000 C 
HETATM   11  C   UNK N   1      28.571  17.090   3.547  0.00  0.00     0.040 C 
HETATM   12  C   UNK N   1      30.868  16.671   4.068  0.00  0.00     0.078 C 
HETATM   13  C   UNK N   1      26.131  14.275   3.600  0.00  0.00     0.253 C 
HETATM   14  C   UNK N   1      26.262  16.848   3.695  0.00  0.00     0.146 C 
HETATM   15  C   UNK N   1      24.056  15.842   4.463  0.00  0.00     0.193 C 
HETATM   16  C   UNK N   1      24.677  14.381   4.296  0.00  0.00     0.039 C 
HETATM   17  C   UNK N   1      26.982  15.484   3.910  0.00  0.00     0.047 C 
HETATM   18  C   UNK N   1      25.056  17.044   4.663  0.00  0.00     0.194 C 
HETATM   19  N   UNK N   1      27.372  17.784   3.782  0.00  0.00    -0.375 N 
HETATM   20  N   UNK N   1      26.931  13.146   4.155  0.00  0.00     0.098 N 
ENDROOT
BRANCH  10  21
HETATM   21  C   UNK N   1      31.860  14.151   4.037  0.00  0.00     0.121 C 
HETATM   22  C   UNK N   1      31.647  13.715   5.516  0.00  0.00     0.038 C 
HETATM   23  C   UNK N   1      32.315  14.574   6.573  0.00  0.00     0.018 C 
HETATM   24  C   UNK N   1      31.605  15.533   7.509  0.00  0.00     0.046 C 
HETATM   25  C   UNK N   1      33.062  13.594   7.451  0.00  0.00     0.277 C 
HETATM   26  C   UNK N   1      32.521  16.052   8.622  0.00  0.00     0.084 C 
HETATM   27  C   UNK N   1      34.016  15.665   8.387  0.00  0.00     0.310 C 
HETATM   28  N   UNK N   1      34.231  14.232   8.037  0.00  0.00     0.092 N 
HETATM   29  C   UNK N   1      35.300  14.061   7.036  0.00  0.00     0.277 C 
HETATM   30  C   UNK N   1      35.068  14.925   5.781  0.00  0.00     0.072 C 
HETATM   31  C   UNK N   1      34.681  14.265   4.459  0.00  0.00    -0.020 A 
HETATM   32  C   UNK N   1      35.668  13.606   3.739  0.00  0.00    -0.001 A 
HETATM   33  C   UNK N   1      33.454  14.128   3.669  0.00  0.00     0.040 A 
HETATM   34  C   UNK N   1      36.991  13.310   4.062  0.00  0.00     0.014 A 
HETATM   35  C   UNK N   1      35.110  13.186   2.578  0.00  0.00     0.043 A 
HETATM   36  C   UNK N   1      37.739  12.533   3.153  0.00  0.00     0.001 A 
HETATM   37  C   UNK N   1      37.156  12.103   1.940  0.00  0.00     0.002 A 
HETATM   38  C   UNK N   1      35.826  12.436   1.641  0.00  0.00     0.030 A 
HETATM   39  N   UNK N   1      33.823  13.496   2.507  0.00  0.00    -0.357 N 
HETATM   40  H   UNK N   1      33.229  13.304   1.746  0.00  0.00     0.166 HD
BRANCH  26  41
HETATM   41  C   UNK N   1      32.355  17.572   8.688  0.00  0.00     0.035 C 
HETATM   42  C   UNK N   1      33.451  18.312   7.937  0.00  0.00     0.008 C 
ENDBRANCH  26  41
BRANCH  26  43
HETATM   43  O   UNK N   1      32.066  15.484   9.810  0.00  0.00    -0.388 OA
HETATM   44  H   UNK N   1      31.368  15.629  10.468  0.00  0.00     0.210 HD
ENDBRANCH  26  43
BRANCH  21  45
HETATM   45  C   UNK N   1      31.368  12.941   3.193  0.00  0.00     0.278 C 
HETATM   46  O   UNK N   1      31.296  11.818   3.667  0.00  0.00    -0.264 OA
BRANCH  45  47
HETATM   47  O   UNK N   1      31.126  13.127   1.860  0.00  0.00    -0.325 OA
HETATM   48  C   UNK N   1      30.731  12.117   1.013  0.00  0.00     0.213 C 
ENDBRANCH  45  47
ENDBRANCH  21  45
ENDBRANCH  10  21
BRANCH  12  49
HETATM   49  O   UNK N   1      31.917  17.139   4.767  0.00  0.00    -0.355 OA
HETATM   50  C   UNK N   1      33.059  17.687   4.209  0.00  0.00     0.210 C 
ENDBRANCH  12  49
BRANCH  16  51
HETATM   51  C   UNK N   1      23.700  13.454   3.522  0.00  0.00     0.014 C 
HETATM   52  C   UNK N   1      24.003  13.293   2.036  0.00  0.00     0.006 C 
ENDBRANCH  16  51
BRANCH  18  53
HETATM   53  C   UNK N   1      24.337  18.385   4.413  0.00  0.00     0.298 C 
HETATM   54  O   UNK N   1      23.682  18.892   5.312  0.00  0.00    -0.262 OA
BRANCH  53  55
HETATM   55  O   UNK N   1      24.410  19.047   3.229  0.00  0.00    -0.324 OA
HETATM   56  C   UNK N   1      24.129  20.382   3.064  0.00  0.00     0.213 C 
ENDBRANCH  53  55
ENDBRANCH  18  53
BRANCH  18  57
HETATM   57  O   UNK N   1      25.530  17.053   5.980  0.00  0.00    -0.375 OA
HETATM   58  H   UNK N   1      26.057  17.220   6.777  0.00  0.00     0.211 HD
ENDBRANCH  18  57
BRANCH  15  59
HETATM   59  O   UNK N   1      23.159  16.119   3.438  0.00  0.00    -0.311 OA
BRANCH  59  60
HETATM   60  C   UNK N   1      21.822  16.334   3.650  0.00  0.00     0.255 C 
HETATM   61  C   UNK N   1      21.133  15.927   4.925  0.00  0.00     0.126 C 
HETATM   62  O   UNK N   1      21.147  16.821   2.760  0.00  0.00    -0.266 OA
ENDBRANCH  59  60
ENDBRANCH  15  59
TORSDOF 12
ENDMDL
MODEL 4
REMARK VINA RESULT:      -7.2      8.613     12.320
REMARK  12 active torsions:
REMARK  status: ('A' for Active; 'I' for Inactive)
REMARK    1  A    between atoms: C_42  and  C_8 
REMARK    2  A    between atoms: C_43  and  C_9 
REMARK    3  A    between atoms: O_59  and  C_27 
REMARK    4  A    between atoms: C_45  and  C_32 
REMARK    5  A    between atoms: O_56  and  C_35 
REMARK    6  A    between atoms: C_39  and  O_59 
REMARK    7  A    between atoms: C_45  and  C_40 
REMARK    8  A    between atoms: O_57  and  C_40 
REMARK    9  A    between atoms: C_46  and  C_41 
REMARK   10  A    between atoms: O_58  and  C_41 
REMARK   11  A    between atoms: C_42  and  O_54 
REMARK   12  A    between atoms: C_46  and  O_55 
ROOT
HETATM    1  C   UNK N   1      23.435  11.750   8.475  0.00  0.00     0.150 C 
HETATM    2  C   UNK N   1      19.804  15.229   3.741  0.00  0.00    -0.000 C 
HETATM    3  C   UNK N   1      19.695  14.986   5.051  0.00  0.00    -0.015 C 
HETATM    4  C   UNK N   1      22.157  13.207   5.086  0.00  0.00     0.049 C 
HETATM    5  C   UNK N   1      21.057  15.931   3.281  0.00  0.00     0.300 C 
HETATM    6  C   UNK N   1      22.163  13.872   3.730  0.00  0.00     0.274 C 
HETATM    7  C   UNK N   1      24.980  13.869   4.422  0.00  0.00     0.022 C 
HETATM    8  C   UNK N   1      25.390  11.843   6.313  0.00  0.00     0.067 C 
HETATM    9  C   UNK N   1      24.333  13.873   5.689  0.00  0.00    -0.018 C 
HETATM   10  C   UNK N   1      25.806  12.776   4.034  0.00  0.00     0.000 C 
HETATM   11  C   UNK N   1      24.607  12.915   6.620  0.00  0.00     0.040 C 
HETATM   12  C   UNK N   1      25.909  11.700   5.023  0.00  0.00     0.078 C 
HETATM   13  C   UNK N   1      22.196  15.500   5.442  0.00  0.00     0.253 C 
HETATM   14  C   UNK N   1      22.741  14.011   7.474  0.00  0.00     0.146 C 
HETATM   15  C   UNK N   1      20.407  15.022   7.461  0.00  0.00     0.193 C 
HETATM   16  C   UNK N   1      20.689  15.624   6.010  0.00  0.00     0.039 C 
HETATM   17  C   UNK N   1      22.873  14.245   5.941  0.00  0.00     0.047 C 
HETATM   18  C   UNK N   1      21.264  13.779   7.916  0.00  0.00     0.194 C 
HETATM   19  N   UNK N   1      23.699  12.937   7.692  0.00  0.00    -0.375 N 
HETATM   20  N   UNK N   1      22.219  15.332   3.961  0.00  0.00     0.098 N 
ENDROOT
BRANCH  10  21
HETATM   21  C   UNK N   1      26.173  12.595   2.480  0.00  0.00     0.121 C 
HETATM   22  C   UNK N   1      24.849  12.502   1.666  0.00  0.00     0.038 C 
HETATM   23  C   UNK N   1      24.214  11.128   1.571  0.00  0.00     0.018 C 
HETATM   24  C   UNK N   1      22.956  10.685   2.294  0.00  0.00     0.046 C 
HETATM   25  C   UNK N   1      23.952  10.926   0.094  0.00  0.00     0.277 C 
HETATM   26  C   UNK N   1      22.435   9.335   1.790  0.00  0.00     0.084 C 
HETATM   27  C   UNK N   1      23.448   8.630   0.833  0.00  0.00     0.310 C 
HETATM   28  N   UNK N   1      23.998   9.511  -0.237  0.00  0.00     0.092 N 
HETATM   29  C   UNK N   1      25.419   9.229  -0.510  0.00  0.00     0.277 C 
HETATM   30  C   UNK N   1      26.279   9.280   0.768  0.00  0.00     0.072 C 
HETATM   31  C   UNK N   1      27.267  10.426   0.980  0.00  0.00    -0.020 A 
HETATM   32  C   UNK N   1      28.455  10.412   0.263  0.00  0.00    -0.001 A 
HETATM   33  C   UNK N   1      27.315  11.637   1.806  0.00  0.00     0.040 A 
HETATM   34  C   UNK N   1      28.896   9.573  -0.759  0.00  0.00     0.014 A 
HETATM   35  C   UNK N   1      29.193  11.469   0.681  0.00  0.00     0.043 A 
HETATM   36  C   UNK N   1      30.132   9.866  -1.371  0.00  0.00     0.001 A 
HETATM   37  C   UNK N   1      30.902  10.963  -0.928  0.00  0.00     0.002 A 
HETATM   38  C   UNK N   1      30.434  11.776   0.116  0.00  0.00     0.030 A 
HETATM   39  N   UNK N   1      28.555  12.186   1.595  0.00  0.00    -0.357 N 
HETATM   40  H   UNK N   1      28.912  12.984   2.049  0.00  0.00     0.166 HD
BRANCH  26  41
HETATM   41  C   UNK N   1      22.144   8.465   3.014  0.00  0.00     0.035 C 
HETATM   42  C   UNK N   1      21.876   9.287   4.265  0.00  0.00     0.008 C 
ENDBRANCH  26  41
BRANCH  26  43
HETATM   43  O   UNK N   1      21.246   9.595   1.111  0.00  0.00    -0.388 OA
HETATM   44  H   UNK N   1      20.844   9.411   0.248  0.00  0.00     0.210 HD
ENDBRANCH  26  43
BRANCH  21  45
HETATM   45  C   UNK N   1      26.754  13.995   2.134  0.00  0.00     0.278 C 
HETATM   46  O   UNK N   1      26.423  14.591   1.120  0.00  0.00    -0.264 OA
BRANCH  45  47
HETATM   47  O   UNK N   1      27.742  14.509   2.926  0.00  0.00    -0.325 OA
HETATM   48  C   UNK N   1      28.402  15.685   2.650  0.00  0.00     0.213 C 
ENDBRANCH  45  47
ENDBRANCH  21  45
ENDBRANCH  10  21
BRANCH  12  49
HETATM   49  O   UNK N   1      26.341  10.469   4.698  0.00  0.00    -0.355 OA
HETATM   50  C   UNK N   1      25.531   9.356   4.560  0.00  0.00     0.210 C 
ENDBRANCH  12  49
BRANCH  16  51
HETATM   51  C   UNK N   1      20.269  17.119   5.945  0.00  0.00     0.014 C 
HETATM   52  C   UNK N   1      21.403  18.118   6.141  0.00  0.00     0.006 C 
ENDBRANCH  16  51
BRANCH  18  53
HETATM   53  C   UNK N   1      21.150  13.581   9.441  0.00  0.00     0.298 C 
HETATM   54  O   UNK N   1      21.986  14.084  10.177  0.00  0.00    -0.262 OA
BRANCH  53  55
HETATM   55  O   UNK N   1      20.142  12.873  10.015  0.00  0.00    -0.324 OA
HETATM   56  C   UNK N   1      20.202  12.305  11.265  0.00  0.00     0.213 C 
ENDBRANCH  53  55
ENDBRANCH  18  53
BRANCH  18  57
HETATM   57  O   UNK N   1      20.783  12.619   7.298  0.00  0.00    -0.375 OA
HETATM   58  H   UNK N   1      20.303  12.003   6.722  0.00  0.00     0.211 HD
ENDBRANCH  18  57
BRANCH  15  59
HETATM   59  O   UNK N   1      20.443  16.019   8.428  0.00  0.00    -0.311 OA
BRANCH  59  60
HETATM   60  C   UNK N   1      19.315  16.567   8.983  0.00  0.00     0.255 C 
HETATM   61  C   UNK N   1      19.192  18.039   9.270  0.00  0.00     0.126 C 
HETATM   62  O   UNK N   1      18.395  15.837   9.308  0.00  0.00    -0.266 OA
ENDBRANCH  59  60
ENDBRANCH  15  59
TORSDOF 12
ENDMDL
MODEL 5
REMARK VINA RESULT:      -7.0      1.958      2.934
REMARK  12 active torsions:
REMARK  status: ('A' for Active; 'I' for Inactive)
REMARK    1  A    between atoms: C_42  and  C_8 
REMARK    2  A    between atoms: C_43  and  C_9 
REMARK    3  A    between atoms: O_59  and  C_27 
REMARK    4  A    between atoms: C_45  and  C_32 
REMARK    5  A    between atoms: O_56  and  C_35 
REMARK    6  A    between atoms: C_39  and  O_59 
REMARK    7  A    between atoms: C_45  and  C_40 
REMARK    8  A    between atoms: O_57  and  C_40 
REMARK    9  A    between atoms: C_46  and  C_41 
REMARK   10  A    between atoms: O_58  and  C_41 
REMARK   11  A    between atoms: C_42  and  O_54 
REMARK   12  A    between atoms: C_46  and  O_55 
ROOT
HETATM    1  C   UNK N   1      35.549  15.622  12.303  0.00  0.00     0.150 C 
HETATM    2  C   UNK N   1      37.675   9.462  10.013  0.00  0.00    -0.000 C 
HETATM    3  C   UNK N   1      37.581  10.069  11.201  0.00  0.00    -0.015 C 
HETATM    4  C   UNK N   1      36.581  12.662   9.976  0.00  0.00     0.049 C 
HETATM    5  C   UNK N   1      36.396   9.301   9.230  0.00  0.00     0.300 C 
HETATM    6  C   UNK N   1      36.535  11.647   8.858  0.00  0.00     0.274 C 
HETATM    7  C   UNK N   1      34.117  13.180   8.392  0.00  0.00     0.022 C 
HETATM    8  C   UNK N   1      34.452  15.685   9.602  0.00  0.00     0.067 C 
HETATM    9  C   UNK N   1      34.330  13.324   9.791  0.00  0.00    -0.018 C 
HETATM   10  C   UNK N   1      34.151  14.317   7.535  0.00  0.00     0.000 C 
HETATM   11  C   UNK N   1      34.415  14.558  10.366  0.00  0.00     0.040 C 
HETATM   12  C   UNK N   1      34.423  15.589   8.207  0.00  0.00     0.078 C 
HETATM   13  C   UNK N   1      35.204  10.930  10.673  0.00  0.00     0.253 C 
HETATM   14  C   UNK N   1      35.101  13.107  12.049  0.00  0.00     0.146 C 
HETATM   15  C   UNK N   1      36.415  11.207  13.115  0.00  0.00     0.193 C 
HETATM   16  C   UNK N   1      36.205  10.336  11.793  0.00  0.00     0.039 C 
HETATM   17  C   UNK N   1      35.233  12.440  10.649  0.00  0.00     0.047 C 
HETATM   18  C   UNK N   1      36.304  12.774  12.983  0.00  0.00     0.194 C 
HETATM   19  N   UNK N   1      34.872  14.498  11.693  0.00  0.00    -0.375 N 
HETATM   20  N   UNK N   1      35.633  10.560   9.294  0.00  0.00     0.098 N 
ENDROOT
BRANCH  10  21
HETATM   21  C   UNK N   1      34.329  14.090   5.953  0.00  0.00     0.121 C 
HETATM   22  C   UNK N   1      33.942  15.407   5.218  0.00  0.00     0.038 C 
HETATM   23  C   UNK N   1      32.468  15.602   4.921  0.00  0.00     0.018 C 
HETATM   24  C   UNK N   1      31.546  16.576   5.630  0.00  0.00     0.046 C 
HETATM   25  C   UNK N   1      32.414  15.955   3.451  0.00  0.00     0.277 C 
HETATM   26  C   UNK N   1      30.191  16.717   4.928  0.00  0.00     0.084 C 
HETATM   27  C   UNK N   1      29.994  15.653   3.803  0.00  0.00     0.310 C 
HETATM   28  N   UNK N   1      31.152  15.521   2.873  0.00  0.00     0.092 N 
HETATM   29  C   UNK N   1      31.380  14.121   2.469  0.00  0.00     0.277 C 
HETATM   30  C   UNK N   1      31.512  13.178   3.681  0.00  0.00     0.072 C 
HETATM   31  C   UNK N   1      32.867  12.567   4.031  0.00  0.00    -0.020 A 
HETATM   32  C   UNK N   1      33.338  11.520   3.252  0.00  0.00    -0.001 A 
HETATM   33  C   UNK N   1      33.894  12.796   5.053  0.00  0.00     0.040 A 
HETATM   34  C   UNK N   1      32.844  10.963   2.074  0.00  0.00     0.014 A 
HETATM   35  C   UNK N   1      34.500  11.094   3.805  0.00  0.00     0.043 A 
HETATM   36  C   UNK N   1      33.601   9.951   1.449  0.00  0.00     0.001 A 
HETATM   37  C   UNK N   1      34.808   9.505   2.031  0.00  0.00     0.002 A 
HETATM   38  C   UNK N   1      35.266  10.076   3.228  0.00  0.00     0.030 A 
HETATM   39  N   UNK N   1      34.834  11.812   4.868  0.00  0.00    -0.357 N 
HETATM   40  H   UNK N   1      35.627  11.665   5.432  0.00  0.00     0.166 HD
BRANCH  26  41
HETATM   41  C   UNK N   1      29.102  16.591   5.996  0.00  0.00     0.035 C 
HETATM   42  C   UNK N   1      29.583  17.016   7.374  0.00  0.00     0.008 C 
ENDBRANCH  26  41
BRANCH  26  43
HETATM   43  O   UNK N   1      30.158  17.998   4.380  0.00  0.00    -0.388 OA
HETATM   44  H   UNK N   1      30.011  18.912   4.670  0.00  0.00     0.210 HD
ENDBRANCH  26  43
BRANCH  21  45
HETATM   45  C   UNK N   1      35.877  14.004   5.825  0.00  0.00     0.278 C 
HETATM   46  O   UNK N   1      36.598  13.972   6.809  0.00  0.00    -0.264 OA
BRANCH  45  47
HETATM   47  O   UNK N   1      36.436  14.085   4.580  0.00  0.00    -0.325 OA
HETATM   48  C   UNK N   1      37.718  13.670   4.296  0.00  0.00     0.213 C 
ENDBRANCH  45  47
ENDBRANCH  21  45
ENDBRANCH  10  21
BRANCH  12  49
HETATM   49  O   UNK N   1      34.832  16.680   7.536  0.00  0.00    -0.355 OA
HETATM   50  C   UNK N   1      34.415  17.973   7.798  0.00  0.00     0.210 C 
ENDBRANCH  12  49
BRANCH  16  51
HETATM   51  C   UNK N   1      35.735   8.900  12.151  0.00  0.00     0.014 C 
HETATM   52  C   UNK N   1      34.265   8.611  11.868  0.00  0.00     0.006 C 
ENDBRANCH  16  51
BRANCH  18  53
HETATM   53  C   UNK N   1      36.139  13.417  14.375  0.00  0.00     0.298 C 
HETATM   54  O   UNK N   1      35.024  13.513  14.865  0.00  0.00    -0.262 OA
BRANCH  53  55
HETATM   55  O   UNK N   1      37.193  13.876  15.100  0.00  0.00    -0.324 OA
HETATM   56  C   UNK N   1      37.226  15.089  15.745  0.00  0.00     0.213 C 
ENDBRANCH  53  55
ENDBRANCH  18  53
BRANCH  18  57
HETATM   57  O   UNK N   1      37.475  13.287  12.413  0.00  0.00    -0.375 OA
HETATM   58  H   UNK N   1      38.313  13.376  11.932  0.00  0.00     0.211 HD
ENDBRANCH  18  57
BRANCH  15  59
HETATM   59  O   UNK N   1      35.606  10.746  14.146  0.00  0.00    -0.311 OA
BRANCH  59  60
HETATM   60  C   UNK N   1      36.091  10.057  15.228  0.00  0.00     0.255 C 
HETATM   61  C   UNK N   1      37.563   9.819  15.437  0.00  0.00     0.126 C 
HETATM   62  O   UNK N   1      35.310   9.570  16.025  0.00  0.00    -0.266 OA
ENDBRANCH  59  60
ENDBRANCH  15  59
TORSDOF 12
ENDMDL
MODEL 6
REMARK VINA RESULT:      -6.9     14.380     18.974
REMARK  12 active torsions:
REMARK  status: ('A' for Active; 'I' for Inactive)
REMARK    1  A    between atoms: C_42  and  C_8 
REMARK    2  A    between atoms: C_43  and  C_9 
REMARK    3  A    between atoms: O_59  and  C_27 
REMARK    4  A    between atoms: C_45  and  C_32 
REMARK    5  A    between atoms: O_56  and  C_35 
REMARK    6  A    between atoms: C_39  and  O_59 
REMARK    7  A    between atoms: C_45  and  C_40 
REMARK    8  A    between atoms: O_57  and  C_40 
REMARK    9  A    between atoms: C_46  and  C_41 
REMARK   10  A    between atoms: O_58  and  C_41 
REMARK   11  A    between atoms: C_42  and  O_54 
REMARK   12  A    between atoms: C_46  and  O_55 
ROOT
HETATM    1  C   UNK N   1      27.068  23.938  -4.680  0.00  0.00     0.150 C 
HETATM    2  C   UNK N   1      32.283  28.304  -5.882  0.00  0.00    -0.000 C 
HETATM    3  C   UNK N   1      30.991  28.413  -5.555  0.00  0.00    -0.015 C 
HETATM    4  C   UNK N   1      30.546  25.411  -5.670  0.00  0.00     0.049 C 
HETATM    5  C   UNK N   1      33.162  27.532  -4.931  0.00  0.00     0.300 C 
HETATM    6  C   UNK N   1      32.043  25.597  -5.748  0.00  0.00     0.274 C 
HETATM    7  C   UNK N   1      31.806  23.248  -4.063  0.00  0.00     0.022 C 
HETATM    8  C   UNK N   1      29.312  22.079  -4.577  0.00  0.00     0.067 C 
HETATM    9  C   UNK N   1      30.583  23.938  -3.833  0.00  0.00    -0.018 C 
HETATM   10  C   UNK N   1      31.805  21.950  -4.649  0.00  0.00     0.000 C 
HETATM   11  C   UNK N   1      29.382  23.320  -4.021  0.00  0.00     0.040 C 
HETATM   12  C   UNK N   1      30.480  21.425  -4.985  0.00  0.00     0.078 C 
HETATM   13  C   UNK N   1      31.199  26.563  -3.764  0.00  0.00     0.253 C 
HETATM   14  C   UNK N   1      28.823  25.561  -3.745  0.00  0.00     0.146 C 
HETATM   15  C   UNK N   1      28.943  28.072  -4.138  0.00  0.00     0.193 C 
HETATM   16  C   UNK N   1      30.536  27.980  -4.169  0.00  0.00     0.039 C 
HETATM   17  C   UNK N   1      30.315  25.405  -4.164  0.00  0.00     0.047 C 
HETATM   18  C   UNK N   1      28.128  26.761  -4.458  0.00  0.00     0.194 C 
HETATM   19  N   UNK N   1      28.307  24.224  -3.990  0.00  0.00    -0.375 N 
HETATM   20  N   UNK N   1      32.458  26.304  -4.518  0.00  0.00     0.098 N 
ENDROOT
BRANCH  10  21
HETATM   21  C   UNK N   1      33.172  21.381  -5.274  0.00  0.00     0.121 C 
HETATM   22  C   UNK N   1      33.682  22.387  -6.346  0.00  0.00     0.038 C 
HETATM   23  C   UNK N   1      33.103  22.236  -7.739  0.00  0.00     0.018 C 
HETATM   24  C   UNK N   1      32.096  23.172  -8.382  0.00  0.00     0.046 C 
HETATM   25  C   UNK N   1      34.305  22.206  -8.657  0.00  0.00     0.277 C 
HETATM   26  C   UNK N   1      31.908  22.892  -9.878  0.00  0.00     0.084 C 
HETATM   27  C   UNK N   1      32.606  21.568 -10.324  0.00  0.00     0.310 C 
HETATM   28  N   UNK N   1      34.012  21.424  -9.848  0.00  0.00     0.092 N 
HETATM   29  C   UNK N   1      34.331  20.033  -9.478  0.00  0.00     0.277 C 
HETATM   30  C   UNK N   1      33.324  19.453  -8.466  0.00  0.00     0.072 C 
HETATM   31  C   UNK N   1      33.752  19.199  -7.022  0.00  0.00    -0.020 A 
HETATM   32  C   UNK N   1      34.550  18.096  -6.756  0.00  0.00    -0.001 A 
HETATM   33  C   UNK N   1      33.528  19.850  -5.727  0.00  0.00     0.040 A 
HETATM   34  C   UNK N   1      35.172  17.190  -7.613  0.00  0.00     0.014 A 
HETATM   35  C   UNK N   1      34.721  18.034  -5.412  0.00  0.00     0.043 A 
HETATM   36  C   UNK N   1      36.013  16.209  -7.047  0.00  0.00     0.001 A 
HETATM   37  C   UNK N   1      36.183  16.143  -5.646  0.00  0.00     0.002 A 
HETATM   38  C   UNK N   1      35.526  17.061  -4.813  0.00  0.00     0.030 A 
HETATM   39  N   UNK N   1      34.117  19.036  -4.791  0.00  0.00    -0.357 N 
HETATM   40  H   UNK N   1      34.096  19.176  -3.817  0.00  0.00     0.166 HD
BRANCH  26  41
HETATM   41  C   UNK N   1      30.404  22.835 -10.152  0.00  0.00     0.035 C 
HETATM   42  C   UNK N   1      29.611  23.781  -9.264  0.00  0.00     0.008 C 
ENDBRANCH  26  41
BRANCH  26  43
HETATM   43  O   UNK N   1      32.464  23.973 -10.559  0.00  0.00    -0.388 OA
HETATM   44  H   UNK N   1      33.342  24.311 -10.798  0.00  0.00     0.210 HD
ENDBRANCH  26  43
BRANCH  21  45
HETATM   45  C   UNK N   1      34.152  21.546  -4.077  0.00  0.00     0.278 C 
HETATM   46  O   UNK N   1      33.825  21.247  -2.939  0.00  0.00    -0.264 OA
BRANCH  45  47
HETATM   47  O   UNK N   1      35.360  22.147  -4.297  0.00  0.00    -0.325 OA
HETATM   48  C   UNK N   1      36.568  21.531  -4.063  0.00  0.00     0.213 C 
ENDBRANCH  45  47
ENDBRANCH  21  45
ENDBRANCH  10  21
BRANCH  12  49
HETATM   49  O   UNK N   1      30.311  20.404  -5.842  0.00  0.00    -0.355 OA
HETATM   50  C   UNK N   1      29.781  20.518  -7.115  0.00  0.00     0.210 C 
ENDBRANCH  12  49
BRANCH  16  51
HETATM   51  C   UNK N   1      31.167  29.083  -3.275  0.00  0.00     0.014 C 
HETATM   52  C   UNK N   1      31.563  28.630  -1.873  0.00  0.00     0.006 C 
ENDBRANCH  16  51
BRANCH  18  53
HETATM   53  C   UNK N   1      26.662  26.919  -4.008  0.00  0.00     0.298 C 
HETATM   54  O   UNK N   1      26.312  26.462  -2.930  0.00  0.00    -0.262 OA
BRANCH  53  55
HETATM   55  O   UNK N   1      25.729  27.564  -4.758  0.00  0.00    -0.324 OA
HETATM   56  C   UNK N   1      24.808  26.938  -5.563  0.00  0.00     0.213 C 
ENDBRANCH  53  55
ENDBRANCH  18  53
BRANCH  18  57
HETATM   57  O   UNK N   1      28.127  26.528  -5.839  0.00  0.00    -0.375 OA
HETATM   58  H   UNK N   1      28.303  26.161  -6.720  0.00  0.00     0.211 HD
ENDBRANCH  18  57
BRANCH  15  59
HETATM   59  O   UNK N   1      28.502  28.642  -2.950  0.00  0.00    -0.311 OA
BRANCH  59  60
HETATM   60  C   UNK N   1      27.912  29.879  -2.886  0.00  0.00     0.255 C 
HETATM   61  C   UNK N   1      27.439  30.610  -4.113  0.00  0.00     0.126 C 
HETATM   62  O   UNK N   1      27.813  30.437  -1.808  0.00  0.00    -0.266 OA
ENDBRANCH  59  60
ENDBRANCH  15  59
TORSDOF 12
ENDMDL
MODEL 7
REMARK VINA RESULT:      -6.8      3.199      9.204
REMARK  12 active torsions:
REMARK  status: ('A' for Active; 'I' for Inactive)
REMARK    1  A    between atoms: C_42  and  C_8 
REMARK    2  A    between atoms: C_43  and  C_9 
REMARK    3  A    between atoms: O_59  and  C_27 
REMARK    4  A    between atoms: C_45  and  C_32 
REMARK    5  A    between atoms: O_56  and  C_35 
REMARK    6  A    between atoms: C_39  and  O_59 
REMARK    7  A    between atoms: C_45  and  C_40 
REMARK    8  A    between atoms: O_57  and  C_40 
REMARK    9  A    between atoms: C_46  and  C_41 
REMARK   10  A    between atoms: O_58  and  C_41 
REMARK   11  A    between atoms: C_42  and  O_54 
REMARK   12  A    between atoms: C_46  and  O_55 
ROOT
HETATM    1  C   UNK N   1      30.434  17.415   5.202  0.00  0.00     0.150 C 
HETATM    2  C   UNK N   1      29.533  10.640   4.208  0.00  0.00    -0.000 C 
HETATM    3  C   UNK N   1      28.760  11.730   4.171  0.00  0.00    -0.015 C 
HETATM    4  C   UNK N   1      31.028  13.560   5.026  0.00  0.00     0.049 C 
HETATM    5  C   UNK N   1      30.713  10.610   3.269  0.00  0.00     0.300 C 
HETATM    6  C   UNK N   1      31.680  12.233   4.717  0.00  0.00     0.274 C 
HETATM    7  C   UNK N   1      33.618  14.123   3.675  0.00  0.00     0.022 C 
HETATM    8  C   UNK N   1      33.215  16.566   4.988  0.00  0.00     0.067 C 
HETATM    9  C   UNK N   1      32.389  14.836   3.590  0.00  0.00    -0.018 C 
HETATM   10  C   UNK N   1      34.671  14.594   4.510  0.00  0.00     0.000 C 
HETATM   11  C   UNK N   1      32.245  16.059   4.177  0.00  0.00     0.040 C 
HETATM   12  C   UNK N   1      34.372  15.824   5.246  0.00  0.00     0.078 C 
HETATM   13  C   UNK N   1      30.527  13.044   2.820  0.00  0.00     0.253 C 
HETATM   14  C   UNK N   1      30.079  15.471   3.563  0.00  0.00     0.146 C 
HETATM   15  C   UNK N   1      28.017  13.994   3.370  0.00  0.00     0.193 C 
HETATM   16  C   UNK N   1      28.957  12.743   3.053  0.00  0.00     0.039 C 
HETATM   17  C   UNK N   1      30.995  14.215   3.651  0.00  0.00     0.047 C 
HETATM   18  C   UNK N   1      28.656  15.211   4.143  0.00  0.00     0.194 C 
HETATM   19  N   UNK N   1      30.906  16.484   4.201  0.00  0.00    -0.375 N 
HETATM   20  N   UNK N   1      31.384  11.923   3.302  0.00  0.00     0.098 N 
ENDROOT
BRANCH  10  21
HETATM   21  C   UNK N   1      35.854  13.582   4.911  0.00  0.00     0.121 C 
HETATM   22  C   UNK N   1      35.277  12.507   5.878  0.00  0.00     0.038 C 
HETATM   23  C   UNK N   1      35.235  12.878   7.348  0.00  0.00     0.018 C 
HETATM   24  C   UNK N   1      33.984  13.218   8.136  0.00  0.00     0.046 C 
HETATM   25  C   UNK N   1      35.886  11.712   8.059  0.00  0.00     0.277 C 
HETATM   26  C   UNK N   1      34.246  13.294   9.645  0.00  0.00     0.084 C 
HETATM   27  C   UNK N   1      35.770  13.246   9.984  0.00  0.00     0.310 C 
HETATM   28  N   UNK N   1      36.519  12.161   9.289  0.00  0.00     0.092 N 
HETATM   29  C   UNK N   1      37.870  12.593   8.885  0.00  0.00     0.277 C 
HETATM   30  C   UNK N   1      37.843  13.891   8.054  0.00  0.00     0.072 C 
HETATM   31  C   UNK N   1      38.167  13.850   6.562  0.00  0.00    -0.020 A 
HETATM   32  C   UNK N   1      39.494  13.715   6.180  0.00  0.00    -0.001 A 
HETATM   33  C   UNK N   1      37.401  13.927   5.314  0.00  0.00     0.040 A 
HETATM   34  C   UNK N   1      40.642  13.475   6.934  0.00  0.00     0.014 A 
HETATM   35  C   UNK N   1      39.537  13.793   4.828  0.00  0.00     0.043 A 
HETATM   36  C   UNK N   1      41.860  13.289   6.248  0.00  0.00     0.001 A 
HETATM   37  C   UNK N   1      41.902  13.378   4.839  0.00  0.00     0.002 A 
HETATM   38  C   UNK N   1      40.730  13.639   4.114  0.00  0.00     0.030 A 
HETATM   39  N   UNK N   1      38.329  13.936   4.303  0.00  0.00    -0.357 N 
HETATM   40  H   UNK N   1      38.129  14.032   3.344  0.00  0.00     0.166 HD
BRANCH  26  41
HETATM   41  C   UNK N   1      33.613  14.589  10.159  0.00  0.00     0.035 C 
HETATM   42  C   UNK N   1      32.355  14.968   9.394  0.00  0.00     0.008 C 
ENDBRANCH  26  41
BRANCH  26  43
HETATM   43  O   UNK N   1      33.598  12.201  10.217  0.00  0.00    -0.388 OA
HETATM   44  H   UNK N   1      33.620  11.690  11.042  0.00  0.00     0.210 HD
ENDBRANCH  26  43
BRANCH  21  45
HETATM   45  C   UNK N   1      36.084  12.827   3.571  0.00  0.00     0.278 C 
HETATM   46  O   UNK N   1      36.197  11.612   3.533  0.00  0.00    -0.264 OA
BRANCH  45  47
HETATM   47  O   UNK N   1      36.279  13.559   2.432  0.00  0.00    -0.325 OA
HETATM   48  C   UNK N   1      36.262  13.013   1.169  0.00  0.00     0.213 C 
ENDBRANCH  45  47
ENDBRANCH  21  45
ENDBRANCH  10  21
BRANCH  12  49
HETATM   49  O   UNK N   1      35.087  16.209   6.318  0.00  0.00    -0.355 OA
HETATM   50  C   UNK N   1      34.595  16.962   7.369  0.00  0.00     0.210 C 
ENDBRANCH  12  49
BRANCH  16  51
HETATM   51  C   UNK N   1      28.427  11.957   1.823  0.00  0.00     0.014 C 
HETATM   52  C   UNK N   1      29.222  12.155   0.537  0.00  0.00     0.006 C 
ENDBRANCH  16  51
BRANCH  18  53
HETATM   53  C   UNK N   1      27.754  16.455   4.018  0.00  0.00     0.298 C 
HETATM   54  O   UNK N   1      27.947  17.249   3.109  0.00  0.00    -0.262 OA
BRANCH  53  55
HETATM   55  O   UNK N   1      26.730  16.708   4.876  0.00  0.00    -0.324 OA
HETATM   56  C   UNK N   1      26.100  17.923   5.000  0.00  0.00     0.213 C 
ENDBRANCH  53  55
ENDBRANCH  18  53
BRANCH  18  57
HETATM   57  O   UNK N   1      28.770  14.902   5.503  0.00  0.00    -0.375 OA
HETATM   58  H   UNK N   1      28.881  14.429   6.343  0.00  0.00     0.211 HD
ENDBRANCH  18  57
BRANCH  15  59
HETATM   59  O   UNK N   1      27.369  14.431   2.222  0.00  0.00    -0.311 OA
BRANCH  59  60
HETATM   60  C   UNK N   1      26.005  14.432   2.085  0.00  0.00     0.255 C 
HETATM   61  C   UNK N   1      25.123  13.451   2.810  0.00  0.00     0.126 C 
HETATM   62  O   UNK N   1      25.482  15.214   1.311  0.00  0.00    -0.266 OA
ENDBRANCH  59  60
ENDBRANCH  15  59
TORSDOF 12
ENDMDL
MODEL 8
REMARK VINA RESULT:      -6.7      2.307     10.171
REMARK  12 active torsions:
REMARK  status: ('A' for Active; 'I' for Inactive)
REMARK    1  A    between atoms: C_42  and  C_8 
REMARK    2  A    between atoms: C_43  and  C_9 
REMARK    3  A    between atoms: O_59  and  C_27 
REMARK    4  A    between atoms: C_45  and  C_32 
REMARK    5  A    between atoms: O_56  and  C_35 
REMARK    6  A    between atoms: C_39  and  O_59 
REMARK    7  A    between atoms: C_45  and  C_40 
REMARK    8  A    between atoms: O_57  and  C_40 
REMARK    9  A    between atoms: C_46  and  C_41 
REMARK   10  A    between atoms: O_58  and  C_41 
REMARK   11  A    between atoms: C_42  and  O_54 
REMARK   12  A    between atoms: C_46  and  O_55 
ROOT
HETATM    1  C   UNK N   1      34.951  12.323   4.195  0.00  0.00     0.150 C 
HETATM    2  C   UNK N   1      34.348  17.776   8.391  0.00  0.00    -0.000 C 
HETATM    3  C   UNK N   1      33.994  17.482   7.135  0.00  0.00    -0.015 C 
HETATM    4  C   UNK N   1      35.296  14.740   7.242  0.00  0.00     0.049 C 
HETATM    5  C   UNK N   1      33.792  16.890   9.478  0.00  0.00     0.300 C 
HETATM    6  C   UNK N   1      35.305  15.243   8.666  0.00  0.00     0.274 C 
HETATM    7  C   UNK N   1      34.697  12.428   9.015  0.00  0.00     0.022 C 
HETATM    8  C   UNK N   1      35.617  11.071   6.743  0.00  0.00     0.067 C 
HETATM    9  C   UNK N   1      34.201  12.710   7.712  0.00  0.00    -0.018 C 
HETATM   10  C   UNK N   1      35.753  11.491   9.201  0.00  0.00     0.000 C 
HETATM   11  C   UNK N   1      34.611  11.983   6.633  0.00  0.00     0.040 C 
HETATM   12  C   UNK N   1      36.260  10.881   7.970  0.00  0.00     0.078 C 
HETATM   13  C   UNK N   1      33.094  15.165   7.838  0.00  0.00     0.253 C 
HETATM   14  C   UNK N   1      33.459  13.775   5.698  0.00  0.00     0.146 C 
HETATM   15  C   UNK N   1      32.816  16.206   5.318  0.00  0.00     0.193 C 
HETATM   16  C   UNK N   1      32.894  16.460   6.893  0.00  0.00     0.039 C 
HETATM   17  C   UNK N   1      33.916  14.101   7.150  0.00  0.00     0.047 C 
HETATM   18  C   UNK N   1      33.628  14.988   4.734  0.00  0.00     0.194 C 
HETATM   19  N   UNK N   1      34.213  12.563   5.416  0.00  0.00    -0.375 N 
HETATM   20  N   UNK N   1      33.898  15.483   9.052  0.00  0.00     0.098 N 
ENDROOT
BRANCH  10  21
HETATM   21  C   UNK N   1      36.564  11.502  10.589  0.00  0.00     0.121 C 
HETATM   22  C   UNK N   1      37.262  10.122  10.765  0.00  0.00     0.038 C 
HETATM   23  C   UNK N   1      36.425   9.019  11.382  0.00  0.00     0.018 C 
HETATM   24  C   UNK N   1      35.853   7.825  10.640  0.00  0.00     0.046 C 
HETATM   25  C   UNK N   1      37.282   8.460  12.496  0.00  0.00     0.277 C 
HETATM   26  C   UNK N   1      35.278   6.767  11.588  0.00  0.00     0.084 C 
HETATM   27  C   UNK N   1      35.197   7.275  13.062  0.00  0.00     0.310 C 
HETATM   28  N   UNK N   1      36.444   7.925  13.557  0.00  0.00     0.092 N 
HETATM   29  C   UNK N   1      36.158   9.076  14.434  0.00  0.00     0.277 C 
HETATM   30  C   UNK N   1      35.211  10.094  13.769  0.00  0.00     0.072 C 
HETATM   31  C   UNK N   1      35.741  11.454  13.322  0.00  0.00    -0.020 A 
HETATM   32  C   UNK N   1      35.984  12.417  14.292  0.00  0.00    -0.001 A 
HETATM   33  C   UNK N   1      36.090  12.081  12.043  0.00  0.00     0.040 A 
HETATM   34  C   UNK N   1      35.949  12.341  15.683  0.00  0.00     0.014 A 
HETATM   35  C   UNK N   1      36.359  13.551  13.652  0.00  0.00     0.043 A 
HETATM   36  C   UNK N   1      36.340  13.479  16.420  0.00  0.00     0.001 A 
HETATM   37  C   UNK N   1      36.724  14.661  15.750  0.00  0.00     0.002 A 
HETATM   38  C   UNK N   1      36.730  14.706  14.347  0.00  0.00     0.030 A 
HETATM   39  N   UNK N   1      36.409  13.384  12.338  0.00  0.00    -0.357 N 
HETATM   40  H   UNK N   1      36.639  14.079  11.681  0.00  0.00     0.166 HD
BRANCH  26  41
HETATM   41  C   UNK N   1      33.892   6.383  11.066  0.00  0.00     0.035 C 
HETATM   42  C   UNK N   1      33.154   7.560  10.447  0.00  0.00     0.008 C 
ENDBRANCH  26  41
BRANCH  26  43
HETATM   43  O   UNK N   1      36.125   5.663  11.513  0.00  0.00    -0.388 OA
HETATM   44  H   UNK N   1      36.985   5.379  11.861  0.00  0.00     0.210 HD
ENDBRANCH  26  43
BRANCH  21  45
HETATM   45  C   UNK N   1      37.719  12.493  10.265  0.00  0.00     0.278 C 
HETATM   46  O   UNK N   1      38.710  12.571  10.974  0.00  0.00    -0.264 OA
BRANCH  45  47
HETATM   47  O   UNK N   1      37.557  13.371   9.230  0.00  0.00    -0.325 OA
HETATM   48  C   UNK N   1      38.583  13.761   8.399  0.00  0.00     0.213 C 
ENDBRANCH  45  47
ENDBRANCH  21  45
ENDBRANCH  10  21
BRANCH  12  49
HETATM   49  O   UNK N   1      37.453  10.263   7.917  0.00  0.00    -0.355 OA
HETATM   50  C   UNK N   1      38.351  10.365   6.869  0.00  0.00     0.210 C 
ENDBRANCH  12  49
BRANCH  16  51
HETATM   51  C   UNK N   1      31.638  17.231   7.386  0.00  0.00     0.014 C 
HETATM   52  C   UNK N   1      30.581  16.372   8.072  0.00  0.00     0.006 C 
ENDBRANCH  16  51
BRANCH  18  53
HETATM   53  C   UNK N   1      33.140  14.656   3.309  0.00  0.00     0.298 C 
HETATM   54  O   UNK N   1      33.737  15.115   2.347  0.00  0.00    -0.262 OA
BRANCH  53  55
HETATM   55  O   UNK N   1      32.070  13.852   3.068  0.00  0.00    -0.324 OA
HETATM   56  C   UNK N   1      32.025  12.887   2.091  0.00  0.00     0.213 C 
ENDBRANCH  53  55
ENDBRANCH  18  53
BRANCH  18  57
HETATM   57  O   UNK N   1      34.986  15.316   4.654  0.00  0.00    -0.375 OA
HETATM   58  H   UNK N   1      35.942  15.364   4.813  0.00  0.00     0.211 HD
ENDBRANCH  18  57
BRANCH  15  59
HETATM   59  O   UNK N   1      31.496  16.165   4.887  0.00  0.00    -0.311 OA
BRANCH  59  60
HETATM   60  C   UNK N   1      30.876  17.222   4.270  0.00  0.00     0.255 C 
HETATM   61  C   UNK N   1      29.395  17.241   4.003  0.00  0.00     0.126 C 
HETATM   62  O   UNK N   1      31.546  18.158   3.872  0.00  0.00    -0.266 OA
ENDBRANCH  59  60
ENDBRANCH  15  59
TORSDOF 12
ENDMDL
MODEL 9
REMARK VINA RESULT:      -6.7      4.661      8.280
REMARK  12 active torsions:
REMARK  status: ('A' for Active; 'I' for Inactive)
REMARK    1  A    between atoms: C_42  and  C_8 
REMARK    2  A    between atoms: C_43  and  C_9 
REMARK    3  A    between atoms: O_59  and  C_27 
REMARK    4  A    between atoms: C_45  and  C_32 
REMARK    5  A    between atoms: O_56  and  C_35 
REMARK    6  A    between atoms: C_39  and  O_59 
REMARK    7  A    between atoms: C_45  and  C_40 
REMARK    8  A    between atoms: O_57  and  C_40 
REMARK    9  A    between atoms: C_46  and  C_41 
REMARK   10  A    between atoms: O_58  and  C_41 
REMARK   11  A    between atoms: C_42  and  O_54 
REMARK   12  A    between atoms: C_46  and  O_55 
ROOT
HETATM    1  C   UNK N   1      29.861  18.145   5.908  0.00  0.00     0.150 C 
HETATM    2  C   UNK N   1      30.999  12.641   1.892  0.00  0.00    -0.000 C 
HETATM    3  C   UNK N   1      31.754  13.554   2.513  0.00  0.00    -0.015 C 
HETATM    4  C   UNK N   1      29.339  15.080   3.546  0.00  0.00     0.049 C 
HETATM    5  C   UNK N   1      30.090  11.808   2.760  0.00  0.00     0.300 C 
HETATM    6  C   UNK N   1      28.789  13.787   2.992  0.00  0.00     0.274 C 
HETATM    7  C   UNK N   1      27.166  14.176   5.365  0.00  0.00     0.022 C 
HETATM    8  C   UNK N   1      27.223  16.905   5.997  0.00  0.00     0.067 C 
HETATM    9  C   UNK N   1      28.375  14.856   5.682  0.00  0.00    -0.018 C 
HETATM   10  C   UNK N   1      25.937  14.890   5.276  0.00  0.00     0.000 C 
HETATM   11  C   UNK N   1      28.366  16.166   6.059  0.00  0.00     0.040 C 
HETATM   12  C   UNK N   1      26.040  16.330   5.523  0.00  0.00     0.078 C 
HETATM   13  C   UNK N   1      30.375  13.345   4.687  0.00  0.00     0.253 C 
HETATM   14  C   UNK N   1      30.618  15.699   5.708  0.00  0.00     0.146 C 
HETATM   15  C   UNK N   1      32.667  14.831   4.476  0.00  0.00     0.193 C 
HETATM   16  C   UNK N   1      31.839  13.540   4.032  0.00  0.00     0.039 C 
HETATM   17  C   UNK N   1      29.712  14.673   4.966  0.00  0.00     0.047 C 
HETATM   18  C   UNK N   1      31.853  16.126   4.859  0.00  0.00     0.194 C 
HETATM   19  N   UNK N   1      29.656  16.724   6.084  0.00  0.00    -0.375 N 
HETATM   20  N   UNK N   1      29.428  12.685   3.743  0.00  0.00     0.098 N 
ENDROOT
BRANCH  10  21
HETATM   21  C   UNK N   1      24.695  14.203   4.522  0.00  0.00     0.121 C 
HETATM   22  C   UNK N   1      23.383  14.619   5.249  0.00  0.00     0.038 C 
HETATM   23  C   UNK N   1      22.986  13.782   6.449  0.00  0.00     0.018 C 
HETATM   24  C   UNK N   1      23.076  14.219   7.899  0.00  0.00     0.046 C 
HETATM   25  C   UNK N   1      21.538  13.415   6.203  0.00  0.00     0.277 C 
HETATM   26  C   UNK N   1      22.362  13.251   8.849  0.00  0.00     0.084 C 
HETATM   27  C   UNK N   1      21.926  11.933   8.133  0.00  0.00     0.310 C 
HETATM   28  N   UNK N   1      21.225  12.143   6.834  0.00  0.00     0.092 N 
HETATM   29  C   UNK N   1      21.593  11.122   5.835  0.00  0.00     0.277 C 
HETATM   30  C   UNK N   1      23.119  11.013   5.648  0.00  0.00     0.072 C 
HETATM   31  C   UNK N   1      23.769  11.507   4.358  0.00  0.00    -0.020 A 
HETATM   32  C   UNK N   1      23.643  10.728   3.217  0.00  0.00    -0.001 A 
HETATM   33  C   UNK N   1      24.563  12.673   3.957  0.00  0.00     0.040 A 
HETATM   34  C   UNK N   1      22.896   9.577   2.975  0.00  0.00     0.014 A 
HETATM   35  C   UNK N   1      24.368  11.322   2.237  0.00  0.00     0.043 A 
HETATM   36  C   UNK N   1      22.892   9.050   1.666  0.00  0.00     0.001 A 
HETATM   37  C   UNK N   1      23.654   9.668   0.650  0.00  0.00     0.002 A 
HETATM   38  C   UNK N   1      24.409  10.816   0.935  0.00  0.00     0.030 A 
HETATM   39  N   UNK N   1      24.929  12.449   2.653  0.00  0.00    -0.357 N 
HETATM   40  H   UNK N   1      25.512  13.031   2.114  0.00  0.00     0.166 HD
BRANCH  26  41
HETATM   41  C   UNK N   1      23.314  12.952  10.009  0.00  0.00     0.035 C 
HETATM   42  C   UNK N   1      24.774  12.961   9.583  0.00  0.00     0.008 C 
ENDBRANCH  26  41
BRANCH  26  43
HETATM   43  O   UNK N   1      21.239  13.921   9.331  0.00  0.00    -0.388 OA
HETATM   44  H   UNK N   1      20.501  13.763   9.940  0.00  0.00     0.210 HD
ENDBRANCH  26  43
BRANCH  21  45
HETATM   45  C   UNK N   1      24.672  14.991   3.181  0.00  0.00     0.278 C 
HETATM   46  O   UNK N   1      23.621  15.330   2.658  0.00  0.00    -0.264 OA
BRANCH  45  47
HETATM   47  O   UNK N   1      25.852  15.200   2.523  0.00  0.00    -0.325 OA
HETATM   48  C   UNK N   1      25.927  15.664   1.230  0.00  0.00     0.213 C 
ENDBRANCH  45  47
ENDBRANCH  21  45
ENDBRANCH  10  21
BRANCH  12  49
HETATM   49  O   UNK N   1      25.080  17.191   5.144  0.00  0.00    -0.355 OA
HETATM   50  C   UNK N   1      25.305  18.392   4.494  0.00  0.00     0.210 C 
ENDBRANCH  12  49
BRANCH  16  51
HETATM   51  C   UNK N   1      32.660  12.247   4.287  0.00  0.00     0.014 C 
HETATM   52  C   UNK N   1      32.318  11.506   5.575  0.00  0.00     0.006 C 
ENDBRANCH  16  51
BRANCH  18  53
HETATM   53  C   UNK N   1      32.754  17.117   5.622  0.00  0.00     0.298 C 
HETATM   54  O   UNK N   1      33.415  17.933   4.996  0.00  0.00    -0.262 OA
BRANCH  53  55
HETATM   55  O   UNK N   1      32.839  17.137   6.978  0.00  0.00    -0.324 OA
HETATM   56  C   UNK N   1      33.697  17.938   7.693  0.00  0.00     0.213 C 
ENDBRANCH  53  55
ENDBRANCH  18  53
BRANCH  18  57
HETATM   57  O   UNK N   1      31.404  16.765   3.697  0.00  0.00    -0.375 OA
HETATM   58  H   UNK N   1      31.217  17.429   3.014  0.00  0.00     0.211 HD
ENDBRANCH  18  57
BRANCH  15  59
HETATM   59  O   UNK N   1      33.579  14.515   5.475  0.00  0.00    -0.311 OA
BRANCH  59  60
HETATM   60  C   UNK N   1      34.937  14.615   5.310  0.00  0.00     0.255 C 
HETATM   61  C   UNK N   1      35.683  13.812   4.278  0.00  0.00     0.126 C 
HETATM   62  O   UNK N   1      35.578  15.335   6.054  0.00  0.00    -0.266 OA
ENDBRANCH  59  60
ENDBRANCH  15  59
TORSDOF 12
ENDMDL
