MODEL 1
REMARK VINA RESULT:      -5.7      0.000      0.000
REMARK  4 active torsions:
REMARK  status: ('A' for Active; 'I' for Inactive)
REMARK    1  A    between atoms: C_5  and  N_12 
REMARK    2  A    between atoms: S_14  and  C_10 
REMARK    3  A    between atoms: N_12  and  C_18 
REMARK    4  A    between atoms: N_15  and  S_14 
ROOT
HETATM    1  C   UNK N   1      34.644  16.437   8.915  0.00  0.00     0.110 A 
HETATM    2  C   UNK N   1      34.704  15.180   8.324  0.00  0.00    -0.005 A 
HETATM    3  S   UNK N   1      34.159  17.871   8.012  0.00  0.00     0.186 S 
HETATM    4  S   UNK N   1      35.000  16.265  10.521  0.00  0.00    -0.064 SA
HETATM    5  C   UNK N   1      34.414  14.934   6.862  0.00  0.00     0.113 C 
HETATM    6  C   UNK N   1      35.037  14.141   9.235  0.00  0.00     0.044 A 
HETATM    7  C   UNK N   1      33.668  17.414   6.332  0.00  0.00     0.112 C 
HETATM    8  O   UNK N   1      35.277  18.923   7.997  0.00  0.00    -0.222 OA
HETATM    9  O   UNK N   1      33.019  18.598   8.741  0.00  0.00    -0.222 OA
HETATM   10  C   UNK N   1      35.253  14.622  10.534  0.00  0.00     0.121 A 
HETATM   11  C   UNK N   1      34.485  16.176   5.927  0.00  0.00     0.049 C 
HETATM   12  C   UNK N   1      32.179  17.128   6.263  0.00  0.00     0.026 C 
ENDROOT
BRANCH  10  13
HETATM   13  S   UNK N   1      35.663  13.624  11.965  0.00  0.00     0.263 S 
HETATM   14  O   UNK N   1      37.089  13.106  12.201  0.00  0.00    -0.200 OA
HETATM   15  O   UNK N   1      34.964  13.745  13.326  0.00  0.00    -0.200 OA
BRANCH  13  16
HETATM   16  N   UNK N   1      36.353  15.185  12.421  0.00  0.00    -0.324 N 
HETATM   17  H   UNK N   1      36.789  16.049  12.741  0.00  0.00     0.169 HD
HETATM   18  H   UNK N   1      35.856  15.667  11.673  0.00  0.00     0.169 HD
ENDBRANCH  13  16
ENDBRANCH  10  13
BRANCH   5  19
HETATM   19  N   UNK N   1      33.158  14.216   6.713  0.00  0.00    -0.413 N 
HETATM   20  H   UNK N   1      32.410  14.155   7.404  0.00  0.00     0.153 HD
BRANCH  19  21
HETATM   21  C   UNK N   1      33.168  13.604   5.396  0.00  0.00     0.110 C 
HETATM   22  C   UNK N   1      31.772  13.642   4.813  0.00  0.00     0.026 C 
ENDBRANCH  19  21
ENDBRANCH   5  19
TORSDOF 4
ENDMDL
MODEL 2
REMARK VINA RESULT:      -5.6     14.982     17.632
REMARK  4 active torsions:
REMARK  status: ('A' for Active; 'I' for Inactive)
REMARK    1  A    between atoms: C_5  and  N_12 
REMARK    2  A    between atoms: S_14  and  C_10 
REMARK    3  A    between atoms: N_12  and  C_18 
REMARK    4  A    between atoms: N_15  and  S_14 
ROOT
HETATM    1  C   UNK N   1      28.187  23.348  -5.843  0.00  0.00     0.110 A 
HETATM    2  C   UNK N   1      28.024  23.928  -4.591  0.00  0.00    -0.005 A 
HETATM    3  S   UNK N   1      27.030  23.605  -7.148  0.00  0.00     0.186 S 
HETATM    4  S   UNK N   1      29.624  22.529  -5.846  0.00  0.00    -0.064 SA
HETATM    5  C   UNK N   1      26.833  24.779  -4.216  0.00  0.00     0.113 C 
HETATM    6  C   UNK N   1      29.102  23.668  -3.702  0.00  0.00     0.044 A 
HETATM    7  C   UNK N   1      25.756  24.780  -6.631  0.00  0.00     0.112 C 
HETATM    8  O   UNK N   1      26.408  22.278  -7.610  0.00  0.00    -0.222 OA
HETATM    9  O   UNK N   1      27.754  24.097  -8.411  0.00  0.00    -0.222 OA
HETATM   10  C   UNK N   1      30.089  22.858  -4.284  0.00  0.00     0.121 A 
HETATM   11  C   UNK N   1      25.570  24.627  -5.111  0.00  0.00     0.049 C 
HETATM   12  C   UNK N   1      26.153  26.200  -6.989  0.00  0.00     0.026 C 
ENDROOT
BRANCH  10  13
HETATM   13  S   UNK N   1      31.611  22.333  -3.498  0.00  0.00     0.263 S 
HETATM   14  O   UNK N   1      31.691  22.095  -1.984  0.00  0.00    -0.200 OA
HETATM   15  O   UNK N   1      32.674  21.461  -4.180  0.00  0.00    -0.200 OA
BRANCH  13  16
HETATM   16  N   UNK N   1      30.684  20.830  -3.499  0.00  0.00    -0.324 N 
HETATM   17  H   UNK N   1      30.158  19.960  -3.423  0.00  0.00     0.169 HD
HETATM   18  H   UNK N   1      30.570  20.856  -4.512  0.00  0.00     0.169 HD
ENDBRANCH  13  16
ENDBRANCH  10  13
BRANCH   5  19
HETATM   19  N   UNK N   1      27.235  26.170  -4.079  0.00  0.00    -0.413 N 
HETATM   20  H   UNK N   1      28.038  26.616  -4.522  0.00  0.00     0.153 HD
BRANCH  19  21
HETATM   21  C   UNK N   1      26.275  26.807  -3.193  0.00  0.00     0.110 C 
HETATM   22  C   UNK N   1      25.864  28.143  -3.773  0.00  0.00     0.026 C 
ENDBRANCH  19  21
ENDBRANCH   5  19
TORSDOF 4
ENDMDL
MODEL 3
REMARK VINA RESULT:      -5.6      4.345      5.706
REMARK  4 active torsions:
REMARK  status: ('A' for Active; 'I' for Inactive)
REMARK    1  A    between atoms: C_5  and  N_12 
REMARK    2  A    between atoms: S_14  and  C_10 
REMARK    3  A    between atoms: N_12  and  C_18 
REMARK    4  A    between atoms: N_15  and  S_14 
ROOT
HETATM    1  C   UNK N   1      31.949  16.339   6.558  0.00  0.00     0.110 A 
HETATM    2  C   UNK N   1      30.711  16.306   5.926  0.00  0.00    -0.005 A 
HETATM    3  S   UNK N   1      33.415  15.757   5.772  0.00  0.00     0.186 S 
HETATM    4  S   UNK N   1      31.753  17.071   8.028  0.00  0.00    -0.064 SA
HETATM    5  C   UNK N   1      30.497  15.729   4.546  0.00  0.00     0.113 C 
HETATM    6  C   UNK N   1      29.668  16.894   6.691  0.00  0.00     0.044 A 
HETATM    7  C   UNK N   1      33.056  15.264   4.069  0.00  0.00     0.112 C 
HETATM    8  O   UNK N   1      34.050  14.603   6.562  0.00  0.00    -0.222 OA
HETATM    9  O   UNK N   1      34.506  16.838   5.815  0.00  0.00    -0.222 OA
HETATM   10  C   UNK N   1      30.119  17.361   7.935  0.00  0.00     0.121 A 
HETATM   11  C   UNK N   1      31.601  14.765   4.024  0.00  0.00     0.049 C 
HETATM   12  C   UNK N   1      33.260  16.427   3.115  0.00  0.00     0.026 C 
ENDROOT
BRANCH  10  13
HETATM   13  S   UNK N   1      29.116  18.186   9.169  0.00  0.00     0.263 S 
HETATM   14  O   UNK N   1      27.767  17.611   9.622  0.00  0.00    -0.200 OA
HETATM   15  O   UNK N   1      29.687  19.034  10.314  0.00  0.00    -0.200 OA
BRANCH  13  16
HETATM   16  N   UNK N   1      29.791  16.851  10.107  0.00  0.00    -0.324 N 
HETATM   17  H   UNK N   1      30.242  16.125  10.664  0.00  0.00     0.169 HD
HETATM   18  H   UNK N   1      28.987  16.255   9.910  0.00  0.00     0.169 HD
ENDBRANCH  13  16
ENDBRANCH  10  13
BRANCH   5  19
HETATM   19  N   UNK N   1      30.215  16.794   3.596  0.00  0.00    -0.413 N 
HETATM   20  H   UNK N   1      30.575  17.748   3.630  0.00  0.00     0.153 HD
BRANCH  19  21
HETATM   21  C   UNK N   1      29.326  16.243   2.587  0.00  0.00     0.110 C 
HETATM   22  C   UNK N   1      27.961  16.005   3.194  0.00  0.00     0.026 C 
ENDBRANCH  19  21
ENDBRANCH   5  19
TORSDOF 4
ENDMDL
MODEL 4
REMARK VINA RESULT:      -5.6      5.000      8.039
REMARK  4 active torsions:
REMARK  status: ('A' for Active; 'I' for Inactive)
REMARK    1  A    between atoms: C_5  and  N_12 
REMARK    2  A    between atoms: S_14  and  C_10 
REMARK    3  A    between atoms: N_12  and  C_18 
REMARK    4  A    between atoms: N_15  and  S_14 
ROOT
HETATM    1  C   UNK N   1      29.381  17.918   7.170  0.00  0.00     0.110 A 
HETATM    2  C   UNK N   1      29.905  17.408   5.988  0.00  0.00    -0.005 A 
HETATM    3  S   UNK N   1      30.205  17.724   8.716  0.00  0.00     0.186 S 
HETATM    4  S   UNK N   1      27.999  18.749   6.802  0.00  0.00    -0.064 SA
HETATM    5  C   UNK N   1      31.185  16.608   5.922  0.00  0.00     0.113 C 
HETATM    6  C   UNK N   1      29.136  17.738   4.839  0.00  0.00     0.044 A 
HETATM    7  C   UNK N   1      31.803  16.911   8.474  0.00  0.00     0.112 C 
HETATM    8  O   UNK N   1      29.335  16.951   9.718  0.00  0.00    -0.222 OA
HETATM    9  O   UNK N   1      30.379  19.089   9.401  0.00  0.00    -0.222 OA
HETATM   10  C   UNK N   1      27.998  18.493   5.160  0.00  0.00     0.121 A 
HETATM   11  C   UNK N   1      31.672  15.978   7.258  0.00  0.00     0.049 C 
HETATM   12  C   UNK N   1      32.903  17.934   8.258  0.00  0.00     0.026 C 
ENDROOT
BRANCH  10  13
HETATM   13  S   UNK N   1      26.796  19.123   3.989  0.00  0.00     0.263 S 
HETATM   14  O   UNK N   1      25.721  18.216   3.375  0.00  0.00    -0.200 OA
HETATM   15  O   UNK N   1      26.266  20.563   3.994  0.00  0.00    -0.200 OA
BRANCH  13  16
HETATM   16  N   UNK N   1      25.816  18.984   5.451  0.00  0.00    -0.324 N 
HETATM   17  H   UNK N   1      25.200  18.953   6.264  0.00  0.00     0.169 HD
HETATM   18  H   UNK N   1      26.474  18.331   5.877  0.00  0.00     0.169 HD
ENDBRANCH  13  16
ENDBRANCH  10  13
BRANCH   5  19
HETATM   19  N   UNK N   1      32.230  17.386   5.277  0.00  0.00    -0.413 N 
HETATM   20  H   UNK N   1      32.462  18.362   5.463  0.00  0.00     0.153 HD
BRANCH  19  21
HETATM   21  C   UNK N   1      32.885  16.512   4.318  0.00  0.00     0.110 C 
HETATM   22  C   UNK N   1      32.381  16.825   2.926  0.00  0.00     0.026 C 
ENDBRANCH  19  21
ENDBRANCH   5  19
TORSDOF 4
ENDMDL
MODEL 5
REMARK VINA RESULT:      -5.5     14.677     17.423
REMARK  4 active torsions:
REMARK  status: ('A' for Active; 'I' for Inactive)
REMARK    1  A    between atoms: C_5  and  N_12 
REMARK    2  A    between atoms: S_14  and  C_10 
REMARK    3  A    between atoms: N_12  and  C_18 
REMARK    4  A    between atoms: N_15  and  S_14 
ROOT
HETATM    1  C   UNK N   1      29.174  23.429  -4.300  0.00  0.00     0.110 A 
HETATM    2  C   UNK N   1      29.108  22.500  -5.332  0.00  0.00    -0.005 A 
HETATM    3  S   UNK N   1      30.404  23.340  -3.040  0.00  0.00     0.186 S 
HETATM    4  S   UNK N   1      28.010  24.574  -4.567  0.00  0.00    -0.064 SA
HETATM    5  C   UNK N   1      30.037  21.313  -5.443  0.00  0.00     0.113 C 
HETATM    6  C   UNK N   1      28.100  22.789  -6.291  0.00  0.00     0.044 A 
HETATM    7  C   UNK N   1      31.556  21.989  -3.387  0.00  0.00     0.112 C 
HETATM    8  O   UNK N   1      29.767  23.184  -1.651  0.00  0.00    -0.222 OA
HETATM    9  O   UNK N   1      31.145  24.681  -2.925  0.00  0.00    -0.222 OA
HETATM   10  C   UNK N   1      27.375  23.946  -5.969  0.00  0.00     0.121 A 
HETATM   11  C   UNK N   1      30.779  20.895  -4.141  0.00  0.00     0.049 C 
HETATM   12  C   UNK N   1      32.734  22.480  -4.207  0.00  0.00     0.026 C 
ENDROOT
BRANCH  10  13
HETATM   13  S   UNK N   1      26.046  24.653  -6.940  0.00  0.00     0.263 S 
HETATM   14  O   UNK N   1      25.201  23.793  -7.890  0.00  0.00    -0.200 OA
HETATM   15  O   UNK N   1      25.198  25.852  -6.493  0.00  0.00    -0.200 OA
BRANCH  13  16
HETATM   16  N   UNK N   1      25.143  23.815  -5.675  0.00  0.00    -0.324 N 
HETATM   17  H   UNK N   1      24.565  23.320  -4.995  0.00  0.00     0.169 HD
HETATM   18  H   UNK N   1      25.892  23.951  -4.996  0.00  0.00     0.169 HD
ENDBRANCH  13  16
ENDBRANCH  10  13
BRANCH   5  19
HETATM   19  N   UNK N   1      30.956  21.498  -6.554  0.00  0.00    -0.413 N 
HETATM   20  H   UNK N   1      31.359  22.382  -6.868  0.00  0.00     0.153 HD
BRANCH  19  21
HETATM   21  C   UNK N   1      31.195  20.188  -7.135  0.00  0.00     0.110 C 
HETATM   22  C   UNK N   1      29.871  19.540  -7.478  0.00  0.00     0.026 C 
ENDBRANCH  19  21
ENDBRANCH   5  19
TORSDOF 4
ENDMDL
MODEL 6
REMARK VINA RESULT:      -5.5      4.177      6.432
REMARK  4 active torsions:
REMARK  status: ('A' for Active; 'I' for Inactive)
REMARK    1  A    between atoms: C_5  and  N_12 
REMARK    2  A    between atoms: S_14  and  C_10 
REMARK    3  A    between atoms: N_12  and  C_18 
REMARK    4  A    between atoms: N_15  and  S_14 
ROOT
HETATM    1  C   UNK N   1      31.669  16.109   6.930  0.00  0.00     0.110 A 
HETATM    2  C   UNK N   1      32.217  16.943   7.897  0.00  0.00    -0.005 A 
HETATM    3  S   UNK N   1      32.627  14.883   6.102  0.00  0.00     0.186 S 
HETATM    4  S   UNK N   1      30.051  16.440   6.826  0.00  0.00    -0.064 SA
HETATM    5  C   UNK N   1      33.676  16.915   8.289  0.00  0.00     0.113 C 
HETATM    6  C   UNK N   1      31.267  17.808   8.504  0.00  0.00     0.044 A 
HETATM    7  C   UNK N   1      34.300  14.830   6.788  0.00  0.00     0.112 C 
HETATM    8  O   UNK N   1      32.655  15.127   4.586  0.00  0.00    -0.222 OA
HETATM    9  O   UNK N   1      31.943  13.511   6.211  0.00  0.00    -0.222 OA
HETATM   10  C   UNK N   1      29.980  17.641   7.972  0.00  0.00     0.121 A 
HETATM   11  C   UNK N   1      34.649  16.247   7.276  0.00  0.00     0.049 C 
HETATM   12  C   UNK N   1      34.388  13.828   7.924  0.00  0.00     0.026 C 
ENDROOT
BRANCH  10  13
HETATM   13  S   UNK N   1      28.510  18.524   8.492  0.00  0.00     0.263 S 
HETATM   14  O   UNK N   1      27.786  19.501   7.555  0.00  0.00    -0.200 OA
HETATM   15  O   UNK N   1      27.488  17.975   9.497  0.00  0.00    -0.200 OA
BRANCH  13  16
HETATM   16  N   UNK N   1      27.817  17.288   7.438  0.00  0.00    -0.324 N 
HETATM   17  H   UNK N   1      27.363  16.626   6.809  0.00  0.00     0.169 HD
HETATM   18  H   UNK N   1      28.531  16.609   7.700  0.00  0.00     0.169 HD
ENDBRANCH  13  16
ENDBRANCH  10  13
BRANCH   5  19
HETATM   19  N   UNK N   1      33.824  16.362   9.626  0.00  0.00    -0.413 N 
HETATM   20  H   UNK N   1      33.143  15.791  10.126  0.00  0.00     0.153 HD
BRANCH  19  21
HETATM   21  C   UNK N   1      35.127  16.776  10.119  0.00  0.00     0.110 C 
HETATM   22  C   UNK N   1      35.480  15.969  11.350  0.00  0.00     0.026 C 
ENDBRANCH  19  21
ENDBRANCH   5  19
TORSDOF 4
ENDMDL
MODEL 7
REMARK VINA RESULT:      -5.2      9.879     12.788
REMARK  4 active torsions:
REMARK  status: ('A' for Active; 'I' for Inactive)
REMARK    1  A    between atoms: C_5  and  N_12 
REMARK    2  A    between atoms: S_14  and  C_10 
REMARK    3  A    between atoms: N_12  and  C_18 
REMARK    4  A    between atoms: N_15  and  S_14 
ROOT
HETATM    1  C   UNK N   1      24.220  17.262   4.149  0.00  0.00     0.110 A 
HETATM    2  C   UNK N   1      24.972  18.431   4.104  0.00  0.00    -0.005 A 
HETATM    3  S   UNK N   1      24.912  15.727   4.671  0.00  0.00     0.186 S 
HETATM    4  S   UNK N   1      22.663  17.639   3.737  0.00  0.00    -0.064 SA
HETATM    5  C   UNK N   1      26.443  18.487   4.444  0.00  0.00     0.113 C 
HETATM    6  C   UNK N   1      24.216  19.577   3.736  0.00  0.00     0.044 A 
HETATM    7  C   UNK N   1      26.619  15.966   5.218  0.00  0.00     0.112 C 
HETATM    8  O   UNK N   1      24.827  14.672   3.558  0.00  0.00    -0.222 OA
HETATM    9  O   UNK N   1      24.055  15.111   5.788  0.00  0.00    -0.222 OA
HETATM   10  C   UNK N   1      22.873  19.267   3.476  0.00  0.00     0.121 A 
HETATM   11  C   UNK N   1      27.210  17.134   4.410  0.00  0.00     0.049 C 
HETATM   12  C   UNK N   1      26.674  16.253   6.707  0.00  0.00     0.026 C 
ENDROOT
BRANCH  10  13
HETATM   13  S   UNK N   1      21.600  20.439   3.013  0.00  0.00     0.263 S 
HETATM   14  O   UNK N   1      21.356  20.823   1.547  0.00  0.00    -0.200 OA
HETATM   15  O   UNK N   1      20.287  20.632   3.785  0.00  0.00    -0.200 OA
BRANCH  13  16
HETATM   16  N   UNK N   1      20.850  18.910   2.545  0.00  0.00    -0.324 N 
HETATM   17  H   UNK N   1      20.443  18.040   2.203  0.00  0.00     0.169 HD
HETATM   18  H   UNK N   1      20.515  18.739   3.493  0.00  0.00     0.169 HD
ENDBRANCH  13  16
ENDBRANCH  10  13
BRANCH   5  19
HETATM   19  N   UNK N   1      26.641  19.190   5.701  0.00  0.00    -0.413 N 
HETATM   20  H   UNK N   1      26.197  18.973   6.594  0.00  0.00     0.153 HD
BRANCH  19  21
HETATM   21  C   UNK N   1      27.592  20.259   5.449  0.00  0.00     0.110 C 
HETATM   22  C   UNK N   1      27.205  21.479   6.258  0.00  0.00     0.026 C 
ENDBRANCH  19  21
ENDBRANCH   5  19
TORSDOF 4
ENDMDL
MODEL 8
REMARK VINA RESULT:      -5.1     12.577     14.956
REMARK  4 active torsions:
REMARK  status: ('A' for Active; 'I' for Inactive)
REMARK    1  A    between atoms: C_5  and  N_12 
REMARK    2  A    between atoms: S_14  and  C_10 
REMARK    3  A    between atoms: N_12  and  C_18 
REMARK    4  A    between atoms: N_15  and  S_14 
ROOT
HETATM    1  C   UNK N   1      20.473  16.489   4.113  0.00  0.00     0.110 A 
HETATM    2  C   UNK N   1      21.856  16.502   4.252  0.00  0.00    -0.005 A 
HETATM    3  S   UNK N   1      19.475  15.227   4.835  0.00  0.00     0.186 S 
HETATM    4  S   UNK N   1      20.028  17.848   3.283  0.00  0.00    -0.064 SA
HETATM    5  C   UNK N   1      22.630  15.428   4.980  0.00  0.00     0.113 C 
HETATM    6  C   UNK N   1      22.473  17.642   3.668  0.00  0.00     0.044 A 
HETATM    7  C   UNK N   1      20.498  14.111   5.824  0.00  0.00     0.112 C 
HETATM    8  O   UNK N   1      18.689  14.458   3.763  0.00  0.00    -0.222 OA
HETATM    9  O   UNK N   1      18.361  15.855   5.687  0.00  0.00    -0.222 OA
HETATM   10  C   UNK N   1      21.542  18.496   3.057  0.00  0.00     0.121 A 
HETATM   11  C   UNK N   1      21.897  14.071   5.185  0.00  0.00     0.049 C 
HETATM   12  C   UNK N   1      20.573  14.581   7.265  0.00  0.00     0.026 C 
ENDROOT
BRANCH  10  13
HETATM   13  S   UNK N   1      21.922  20.044   2.239  0.00  0.00     0.263 S 
HETATM   14  O   UNK N   1      21.315  20.402   0.876  0.00  0.00    -0.200 OA
HETATM   15  O   UNK N   1      22.248  21.349   2.979  0.00  0.00    -0.200 OA
BRANCH  13  16
HETATM   16  N   UNK N   1      20.292  20.360   2.841  0.00  0.00    -0.324 N 
HETATM   17  H   UNK N   1      19.339  20.467   3.188  0.00  0.00     0.169 HD
HETATM   18  H   UNK N   1      20.453  21.367   2.862  0.00  0.00     0.169 HD
ENDBRANCH  13  16
ENDBRANCH  10  13
BRANCH   5  19
HETATM   19  N   UNK N   1      23.159  15.951   6.229  0.00  0.00    -0.413 N 
HETATM   20  H   UNK N   1      22.625  16.395   6.976  0.00  0.00     0.153 HD
BRANCH  19  21
HETATM   21  C   UNK N   1      24.594  15.720   6.216  0.00  0.00     0.110 C 
HETATM   22  C   UNK N   1      24.943  14.657   7.234  0.00  0.00     0.026 C 
ENDBRANCH  19  21
ENDBRANCH   5  19
TORSDOF 4
ENDMDL
MODEL 9
REMARK VINA RESULT:      -4.9      2.964      6.661
REMARK  4 active torsions:
REMARK  status: ('A' for Active; 'I' for Inactive)
REMARK    1  A    between atoms: C_5  and  N_12 
REMARK    2  A    between atoms: S_14  and  C_10 
REMARK    3  A    between atoms: N_12  and  C_18 
REMARK    4  A    between atoms: N_15  and  S_14 
ROOT
HETATM    1  C   UNK N   1      35.682  13.665   9.452  0.00  0.00     0.110 A 
HETATM    2  C   UNK N   1      35.876  14.511  10.538  0.00  0.00    -0.005 A 
HETATM    3  S   UNK N   1      36.105  11.955   9.513  0.00  0.00     0.186 S 
HETATM    4  S   UNK N   1      34.946  14.534   8.253  0.00  0.00    -0.064 SA
HETATM    5  C   UNK N   1      36.505  14.065  11.838  0.00  0.00     0.113 C 
HETATM    6  C   UNK N   1      35.399  15.832  10.321  0.00  0.00     0.044 A 
HETATM    7  C   UNK N   1      36.675  11.512  11.172  0.00  0.00     0.112 C 
HETATM    8  O   UNK N   1      37.157  11.603   8.452  0.00  0.00    -0.222 OA
HETATM    9  O   UNK N   1      34.901  11.095   9.096  0.00  0.00    -0.222 OA
HETATM   10  C   UNK N   1      34.853  15.995   9.039  0.00  0.00     0.121 A 
HETATM   11  C   UNK N   1      37.343  12.755  11.784  0.00  0.00     0.049 C 
HETATM   12  C   UNK N   1      35.518  11.039  12.033  0.00  0.00     0.026 C 
ENDROOT
BRANCH  10  13
HETATM   13  S   UNK N   1      34.125  17.501   8.396  0.00  0.00     0.263 S 
HETATM   14  O   UNK N   1      34.610  18.130   7.083  0.00  0.00    -0.200 OA
HETATM   15  O   UNK N   1      32.661  17.908   8.613  0.00  0.00    -0.200 OA
BRANCH  13  16
HETATM   16  N   UNK N   1      33.406  16.287   7.333  0.00  0.00    -0.324 N 
HETATM   17  H   UNK N   1      33.063  15.562   6.703  0.00  0.00     0.169 HD
HETATM   18  H   UNK N   1      32.460  16.595   7.556  0.00  0.00     0.169 HD
ENDBRANCH  13  16
ENDBRANCH  10  13
BRANCH   5  19
HETATM   19  N   UNK N   1      35.503  14.022  12.891  0.00  0.00    -0.413 N 
HETATM   20  H   UNK N   1      34.492  13.981  12.765  0.00  0.00     0.153 HD
BRANCH  19  21
HETATM   21  C   UNK N   1      36.213  14.049  14.159  0.00  0.00     0.110 C 
HETATM   22  C   UNK N   1      35.494  13.167  15.157  0.00  0.00     0.026 C 
ENDBRANCH  19  21
ENDBRANCH   5  19
TORSDOF 4
ENDMDL
