MODEL 1
REMARK VINA RESULT:      -4.4      0.000      0.000
REMARK  2 active torsions:
REMARK  status: ('A' for Active; 'I' for Inactive)
REMARK    1  A    between atoms: C_7  and  C_8 
REMARK    2  A    between atoms: N_9  and  O_11 
ROOT
HETATM    1  C   UNK N   1      23.344  11.200   7.866  0.00  0.00     0.004 A 
HETATM    2  C   UNK N   1      22.344  11.930   7.231  0.00  0.00     0.017 A 
HETATM    3  C   UNK N   1      21.447  12.673   7.997  0.00  0.00     0.090 A 
HETATM    4  C   UNK N   1      23.442  11.229   9.257  0.00  0.00     0.031 A 
HETATM    5  N   UNK N   1      21.545  12.693   9.357  0.00  0.00    -0.360 N 
HETATM    6  C   UNK N   1      20.585  13.495  10.100  0.00  0.00     0.155 C 
HETATM    7  C   UNK N   1      22.530  11.989  10.002  0.00  0.00     0.051 A 
ENDROOT
BRANCH   7   8
HETATM    8  C   UNK N   1      22.651  12.051  11.476  0.00  0.00     0.143 C 
HETATM    9  N   UNK N   1      23.783  12.234  12.048  0.00  0.00    -0.278 N 
ATOM     10  HN  UNK N   1      24.631  12.316  11.488  1.00  0.00     0.193 HD
BRANCH   9  11
HETATM   11  O   UNK N   1      23.849  12.315  13.358  0.00  0.00    -0.290 OA
HETATM   12  H   UNK N   1      24.368  11.700  13.841  0.00  0.00     0.244 HD
ENDBRANCH   9  11
ENDBRANCH   7   8
TORSDOF 2
ENDMDL
MODEL 2
REMARK VINA RESULT:      -4.4     11.249     11.801
REMARK  2 active torsions:
REMARK  status: ('A' for Active; 'I' for Inactive)
REMARK    1  A    between atoms: C_7  and  C_8 
REMARK    2  A    between atoms: N_9  and  O_11 
ROOT
HETATM    1  C   UNK N   1      30.253  17.611   7.987  0.00  0.00     0.004 A 
HETATM    2  C   UNK N   1      30.197  17.214   6.654  0.00  0.00     0.017 A 
HETATM    3  C   UNK N   1      31.382  17.058   5.936  0.00  0.00     0.090 A 
HETATM    4  C   UNK N   1      31.491  17.837   8.589  0.00  0.00     0.031 A 
HETATM    5  N   UNK N   1      32.589  17.287   6.529  0.00  0.00    -0.360 N 
HETATM    6  C   UNK N   1      33.790  17.097   5.730  0.00  0.00     0.155 C 
HETATM    7  C   UNK N   1      32.666  17.668   7.845  0.00  0.00     0.051 A 
ENDROOT
BRANCH   7   8
HETATM    8  C   UNK N   1      33.983  17.873   8.488  0.00  0.00     0.143 C 
HETATM    9  N   UNK N   1      34.283  17.305   9.597  0.00  0.00    -0.278 N 
ATOM     10  HN  UNK N   1      33.599  16.715  10.070  1.00  0.00     0.193 HD
BRANCH   9  11
HETATM   11  O   UNK N   1      35.473  17.485  10.125  0.00  0.00    -0.290 OA
HETATM   12  H   UNK N   1      35.617  17.301  11.033  0.00  0.00     0.244 HD
ENDBRANCH   9  11
ENDBRANCH   7   8
TORSDOF 2
ENDMDL
MODEL 3
REMARK VINA RESULT:      -4.4      9.286      9.673
REMARK  2 active torsions:
REMARK  status: ('A' for Active; 'I' for Inactive)
REMARK    1  A    between atoms: C_7  and  C_8 
REMARK    2  A    between atoms: N_9  and  O_11 
ROOT
HETATM    1  C   UNK N   1      26.695  21.183   5.530  0.00  0.00     0.004 A 
HETATM    2  C   UNK N   1      26.857  20.552   4.300  0.00  0.00     0.017 A 
HETATM    3  C   UNK N   1      27.526  19.331   4.239  0.00  0.00     0.090 A 
HETATM    4  C   UNK N   1      27.193  20.581   6.685  0.00  0.00     0.031 A 
HETATM    5  N   UNK N   1      28.016  18.751   5.372  0.00  0.00    -0.360 N 
HETATM    6  C   UNK N   1      28.696  17.470   5.246  0.00  0.00     0.155 C 
HETATM    7  C   UNK N   1      27.857  19.350   6.596  0.00  0.00     0.051 A 
ENDROOT
BRANCH   7   8
HETATM    8  C   UNK N   1      28.357  18.690   7.823  0.00  0.00     0.143 C 
HETATM    9  N   UNK N   1      27.658  18.655   8.897  0.00  0.00    -0.278 N 
ATOM     10  HN  UNK N   1      26.745  19.109   8.928  1.00  0.00     0.193 HD
BRANCH   9  11
HETATM   11  O   UNK N   1      28.121  18.034   9.959  0.00  0.00    -0.290 OA
HETATM   12  H   UNK N   1      27.537  17.549  10.510  0.00  0.00     0.244 HD
ENDBRANCH   9  11
ENDBRANCH   7   8
TORSDOF 2
ENDMDL
MODEL 4
REMARK VINA RESULT:      -4.4      9.507     10.746
REMARK  2 active torsions:
REMARK  status: ('A' for Active; 'I' for Inactive)
REMARK    1  A    between atoms: C_7  and  C_8 
REMARK    2  A    between atoms: N_9  and  O_11 
ROOT
HETATM    1  C   UNK N   1      21.014  17.765   4.665  0.00  0.00     0.004 A 
HETATM    2  C   UNK N   1      22.306  17.785   5.181  0.00  0.00     0.017 A 
HETATM    3  C   UNK N   1      23.254  18.642   4.622  0.00  0.00     0.090 A 
HETATM    4  C   UNK N   1      20.681  18.607   3.604  0.00  0.00     0.031 A 
HETATM    5  N   UNK N   1      22.923  19.458   3.581  0.00  0.00    -0.360 N 
HETATM    6  C   UNK N   1      23.952  20.337   3.047  0.00  0.00     0.155 C 
HETATM    7  C   UNK N   1      21.651  19.462   3.065  0.00  0.00     0.051 A 
ENDROOT
BRANCH   7   8
HETATM    8  C   UNK N   1      21.294  20.382   1.962  0.00  0.00     0.143 C 
HETATM    9  N   UNK N   1      20.803  19.948   0.860  0.00  0.00    -0.278 N 
ATOM     10  HN  UNK N   1      20.672  18.947   0.719  1.00  0.00     0.193 HD
BRANCH   9  11
HETATM   11  O   UNK N   1      20.468  20.796  -0.087  0.00  0.00    -0.290 OA
HETATM   12  H   UNK N   1      19.999  20.496  -0.841  0.00  0.00     0.244 HD
ENDBRANCH   9  11
ENDBRANCH   7   8
TORSDOF 2
ENDMDL
MODEL 5
REMARK VINA RESULT:      -4.3     19.311     20.448
REMARK  2 active torsions:
REMARK  status: ('A' for Active; 'I' for Inactive)
REMARK    1  A    between atoms: C_7  and  C_8 
REMARK    2  A    between atoms: N_9  and  O_11 
ROOT
HETATM    1  C   UNK N   1      25.101  27.528  -5.186  0.00  0.00     0.004 A 
HETATM    2  C   UNK N   1      25.636  27.684  -3.910  0.00  0.00     0.017 A 
HETATM    3  C   UNK N   1      26.319  26.622  -3.320  0.00  0.00     0.090 A 
HETATM    4  C   UNK N   1      25.264  26.318  -5.860  0.00  0.00     0.031 A 
HETATM    5  N   UNK N   1      26.470  25.439  -3.982  0.00  0.00    -0.360 N 
HETATM    6  C   UNK N   1      27.202  24.371  -3.318  0.00  0.00     0.155 C 
HETATM    7  C   UNK N   1      25.960  25.269  -5.245  0.00  0.00     0.051 A 
ENDROOT
BRANCH   7   8
HETATM    8  C   UNK N   1      26.165  23.994  -5.969  0.00  0.00     0.143 C 
HETATM    9  N   UNK N   1      25.187  23.208  -6.232  0.00  0.00    -0.278 N 
ATOM     10  HN  UNK N   1      24.245  23.444  -5.921  1.00  0.00     0.193 HD
BRANCH   9  11
HETATM   11  O   UNK N   1      25.401  22.099  -6.904  0.00  0.00    -0.290 OA
HETATM   12  H   UNK N   1      26.154  21.575  -6.715  0.00  0.00     0.244 HD
ENDBRANCH   9  11
ENDBRANCH   7   8
TORSDOF 2
ENDMDL
MODEL 6
REMARK VINA RESULT:      -4.2      9.925     10.426
REMARK  2 active torsions:
REMARK  status: ('A' for Active; 'I' for Inactive)
REMARK    1  A    between atoms: C_7  and  C_8 
REMARK    2  A    between atoms: N_9  and  O_11 
ROOT
HETATM    1  C   UNK N   1      32.887  17.955   8.181  0.00  0.00     0.004 A 
HETATM    2  C   UNK N   1      33.213  17.624   6.869  0.00  0.00     0.017 A 
HETATM    3  C   UNK N   1      32.206  17.215   5.996  0.00  0.00     0.090 A 
HETATM    4  C   UNK N   1      31.559  17.883   8.602  0.00  0.00     0.031 A 
HETATM    5  N   UNK N   1      30.911  17.141   6.415  0.00  0.00    -0.360 N 
HETATM    6  C   UNK N   1      29.904  16.718   5.454  0.00  0.00     0.155 C 
HETATM    7  C   UNK N   1      30.566  17.474   7.701  0.00  0.00     0.051 A 
ENDROOT
BRANCH   7   8
HETATM    8  C   UNK N   1      29.151  17.429   8.132  0.00  0.00     0.143 C 
HETATM    9  N   UNK N   1      28.709  18.195   9.061  0.00  0.00    -0.278 N 
ATOM     10  HN  UNK N   1      29.342  18.837   9.537  1.00  0.00     0.193 HD
BRANCH   9  11
HETATM   11  O   UNK N   1      27.439  18.150   9.397  0.00  0.00    -0.290 OA
HETATM   12  H   UNK N   1      26.781  18.077   8.734  0.00  0.00     0.244 HD
ENDBRANCH   9  11
ENDBRANCH   7   8
TORSDOF 2
ENDMDL
MODEL 7
REMARK VINA RESULT:      -4.2     14.579     15.371
REMARK  2 active torsions:
REMARK  status: ('A' for Active; 'I' for Inactive)
REMARK    1  A    between atoms: C_7  and  C_8 
REMARK    2  A    between atoms: N_9  and  O_11 
ROOT
HETATM    1  C   UNK N   1      35.198  13.350  18.716  0.00  0.00     0.004 A 
HETATM    2  C   UNK N   1      35.310  11.991  18.997  0.00  0.00     0.017 A 
HETATM    3  C   UNK N   1      35.544  11.093  17.956  0.00  0.00     0.090 A 
HETATM    4  C   UNK N   1      35.330  13.796  17.402  0.00  0.00     0.031 A 
HETATM    5  N   UNK N   1      35.665  11.536  16.672  0.00  0.00    -0.360 N 
HETATM    6  C   UNK N   1      35.918  10.551  15.631  0.00  0.00     0.155 C 
HETATM    7  C   UNK N   1      35.569  12.872  16.375  0.00  0.00     0.051 A 
ENDROOT
BRANCH   7   8
HETATM    8  C   UNK N   1      35.744  13.343  14.983  0.00  0.00     0.143 C 
HETATM    9  N   UNK N   1      36.765  14.035  14.633  0.00  0.00    -0.278 N 
ATOM     10  HN  UNK N   1      37.469  14.294  15.326  1.00  0.00     0.193 HD
BRANCH   9  11
HETATM   11  O   UNK N   1      36.904  14.411  13.382  0.00  0.00    -0.290 OA
HETATM   12  H   UNK N   1      36.271  14.981  12.990  0.00  0.00     0.244 HD
ENDBRANCH   9  11
ENDBRANCH   7   8
TORSDOF 2
ENDMDL
MODEL 8
REMARK VINA RESULT:      -4.1      1.164      2.430
REMARK  2 active torsions:
REMARK  status: ('A' for Active; 'I' for Inactive)
REMARK    1  A    between atoms: C_7  and  C_8 
REMARK    2  A    between atoms: N_9  and  O_11 
ROOT
HETATM    1  C   UNK N   1      20.616  14.187   8.718  0.00  0.00     0.004 A 
HETATM    2  C   UNK N   1      20.990  13.599   7.513  0.00  0.00     0.017 A 
HETATM    3  C   UNK N   1      21.953  12.592   7.513  0.00  0.00     0.090 A 
HETATM    4  C   UNK N   1      21.201  13.755   9.908  0.00  0.00     0.031 A 
HETATM    5  N   UNK N   1      22.526  12.178   8.679  0.00  0.00    -0.360 N 
HETATM    6  C   UNK N   1      23.518  11.115   8.614  0.00  0.00     0.155 C 
HETATM    7  C   UNK N   1      22.164  12.736   9.879  0.00  0.00     0.051 A 
ENDROOT
BRANCH   7   8
HETATM    8  C   UNK N   1      22.763  12.250  11.142  0.00  0.00     0.143 C 
HETATM    9  N   UNK N   1      22.043  11.740  12.072  0.00  0.00    -0.278 N 
ATOM     10  HN  UNK N   1      21.031  11.685  11.962  1.00  0.00     0.193 HD
BRANCH   9  11
HETATM   11  O   UNK N   1      22.612  11.290  13.168  0.00  0.00    -0.290 OA
HETATM   12  H   UNK N   1      23.402  11.685  13.482  0.00  0.00     0.244 HD
ENDBRANCH   9  11
ENDBRANCH   7   8
TORSDOF 2
ENDMDL
MODEL 9
REMARK VINA RESULT:      -4.1     13.596     14.568
REMARK  2 active torsions:
REMARK  status: ('A' for Active; 'I' for Inactive)
REMARK    1  A    between atoms: C_7  and  C_8 
REMARK    2  A    between atoms: N_9  and  O_11 
ROOT
HETATM    1  C   UNK N   1      34.657  11.770  14.018  0.00  0.00     0.004 A 
HETATM    2  C   UNK N   1      35.180  11.721  15.307  0.00  0.00     0.017 A 
HETATM    3  C   UNK N   1      36.002  12.756  15.751  0.00  0.00     0.090 A 
HETATM    4  C   UNK N   1      34.953  12.855  13.193  0.00  0.00     0.031 A 
HETATM    5  N   UNK N   1      36.293  13.811  14.938  0.00  0.00    -0.360 N 
HETATM    6  C   UNK N   1      37.148  14.864  15.463  0.00  0.00     0.155 C 
HETATM    7  C   UNK N   1      35.778  13.884  13.667  0.00  0.00     0.051 A 
ENDROOT
BRANCH   7   8
HETATM    8  C   UNK N   1      36.067  15.054  12.809  0.00  0.00     0.143 C 
HETATM    9  N   UNK N   1      36.721  14.935  11.713  0.00  0.00    -0.278 N 
ATOM     10  HN  UNK N   1      37.075  14.023  11.426  1.00  0.00     0.193 HD
BRANCH   9  11
HETATM   11  O   UNK N   1      36.934  15.991  10.959  0.00  0.00    -0.290 OA
HETATM   12  H   UNK N   1      36.232  16.356  10.456  0.00  0.00     0.244 HD
ENDBRANCH   9  11
ENDBRANCH   7   8
TORSDOF 2
ENDMDL
