REMARK  10 active torsions:
REMARK  status: ('A' for Active; 'I' for Inactive)
REMARK    1  A    between atoms: C_2  and  C_3 
REMARK    2  A    between atoms: C_4  and  C_5 
REMARK    3  A    between atoms: C_19  and  C_7 
REMARK    4  A    between atoms: N_23  and  C_19 
REMARK    5  A    between atoms: C_20  and  C_24 
REMARK    6  A    between atoms: C_24  and  C_25 
REMARK    7  A    between atoms: C_27  and  C_28 
REMARK    8  A    between atoms: C_28  and  O_30 
REMARK    9  A    between atoms: C_31  and  C_32 
REMARK   10  A    between atoms: C_32  and  O_35 
ROOT
HETATM    1  C   UNK N   1      -0.149   0.457   0.522  0.00  0.00     0.013 A 
HETATM    2  C   UNK N   1       0.795  -0.522   0.179  0.00  0.00    -0.025 A 
HETATM    3  C   UNK N   1       1.211   2.167  -0.489  0.00  0.00    -0.040 A 
HETATM    4  C   UNK N   1       0.045   1.791   0.171  0.00  0.00     0.010 A 
HETATM    5  C   UNK N   1       2.008  -0.115  -0.387  0.00  0.00     0.013 A 
HETATM    6  C   UNK N   1       2.200   1.216  -0.742  0.00  0.00     0.010 A 
ENDROOT
BRANCH   3   7
HETATM    7  C   UNK N   1       1.258   3.485  -1.180  0.00  0.00     0.169 C 
BRANCH   7   8
HETATM    8  N   UNK N   1       2.178   4.474  -0.631  0.00  0.00    -0.325 N 
HETATM    9  C   UNK N   1       3.519   4.381  -0.522  0.00  0.00     0.084 A 
HETATM   10  N   UNK N   1       4.069   5.519  -0.070  0.00  0.00    -0.345 N 
HETATM   11  C   UNK N   1       3.046   6.384   0.114  0.00  0.00     0.078 A 
ATOM     12  HN  UNK N   1       5.059   5.695   0.101  1.00  0.00     0.167 HD
HETATM   13  C   UNK N   1       1.844   5.723  -0.228  0.00  0.00     0.136 A 
BRANCH   9  14
HETATM   14  C   UNK N   1       4.331   3.187  -0.899  0.00  0.00     0.076 C 
BRANCH  14  15
HETATM   15  C   UNK N   1       4.998   2.601   0.333  0.00  0.00     0.003 C 
HETATM   16  C   UNK N   1       5.518   1.213   0.018  0.00  0.00     0.005 C 
ENDBRANCH  14  15
ENDBRANCH   9  14
BRANCH  11  17
HETATM   17  C   UNK N   1       3.360   7.794   0.583  0.00  0.00     0.095 C 
HETATM   18  C   UNK N   1       2.196   8.730   0.794  0.00  0.00     0.052 C 
HETATM   19  C   UNK N   1       4.262   8.443  -0.452  0.00  0.00     0.052 C 
BRANCH  17  20
HETATM   20  O   UNK N   1       4.058   7.712   1.787  0.00  0.00    -0.384 OA
HETATM   21  H   UNK N   1       4.252   7.263   2.624  0.00  0.00     0.211 HD
ENDBRANCH  17  20
ENDBRANCH  11  17
BRANCH  13  22
HETATM   22  C   UNK N   1       0.422   6.210  -0.231  0.00  0.00     0.196 C 
HETATM   23  O   UNK N   1       0.138   7.351   0.070  0.00  0.00    -0.645 OA
BRANCH  22  24
HETATM   24  O   UNK N   1      -0.579   5.373  -0.567  0.00  0.00    -0.772 OA
HETATM   25  H   UNK N   1      -1.431   5.685  -0.801  0.00  0.00     0.167 HD
ENDBRANCH  22  24
ENDBRANCH  13  22
ENDBRANCH   7   8
ENDBRANCH   3   7
BRANCH   2  26
HETATM   26  C   UNK N   1       0.512  -1.980   0.309  0.00  0.00    -0.012 A 
HETATM   27  C   UNK N   1       1.615  -2.845   0.429  0.00  0.00     0.013 A 
HETATM   28  C   UNK N   1       1.447  -4.221   0.558  0.00  0.00     0.001 A 
HETATM   29  C   UNK N   1       0.167  -4.765   0.579  0.00  0.00     0.001 A 
HETATM   30  C   UNK N   1      -0.945  -3.937   0.439  0.00  0.00     0.016 A 
HETATM   31  C   UNK N   1      -0.806  -2.549   0.280  0.00  0.00     0.021 A 
BRANCH  31  32
HETATM   32  C   UNK N   1      -2.057  -1.794  -0.016  0.00  0.00     0.142 A 
HETATM   33  N   UNK N   1      -3.290  -2.215   0.314  0.00  0.00    -0.270 N 
HETATM   34  N   UNK N   1      -4.120  -1.304  -0.172  0.00  0.00    -0.007 NA
ATOM     35  HN  UNK N   1      -3.536  -3.060   0.830  1.00  0.00     0.185 HD
HETATM   36  N   UNK N   1      -3.429  -0.370  -0.803  0.00  0.00    -0.007 NA
HETATM   37  N   UNK N   1      -2.141  -0.659  -0.734  0.00  0.00    -0.270 N 
HETATM   38  H   UNK N   1      -1.397  -0.148  -1.126  0.00  0.00     0.185 HD
ENDBRANCH  31  32
ENDBRANCH   2  26
TORSDOF 10
