MODEL 1
REMARK VINA RESULT:      -7.7      0.000      0.000
REMARK  8 active torsions:
REMARK  status: ('A' for Active; 'I' for Inactive)
REMARK    1  A    between atoms: C_1  and  O_30 
REMARK    2  A    between atoms: C_11  and  C_8 
REMARK    3  A    between atoms: C_15  and  O_38 
REMARK    4  A    between atoms: C_28  and  C_17 
REMARK    5  A    between atoms: C_18  and  O_40 
REMARK    6  A    between atoms: C_20  and  O_41 
REMARK    7  A    between atoms: C_23  and  C_49 
REMARK    8  A    between atoms: C_27  and  O_43 
ROOT
HETATM    1  C   UNK N   1      31.451  11.549   4.321  0.00  0.00     0.238 C 
HETATM    2  C   UNK N   1      30.299  10.935   3.537  0.00  0.00     0.278 C 
HETATM    3  C   UNK N   1      28.911  10.985   4.020  0.00  0.00     0.296 C 
HETATM    4  N   UNK N   1      27.926  10.404   3.275  0.00  0.00    -0.331 N 
HETATM    5  O   UNK N   1      31.089  12.875   4.770  0.00  0.00    -0.338 OA
HETATM    6  O   UNK N   1      26.732  13.154   4.201  0.00  0.00    -0.309 OA
HETATM    7  C   UNK N   1      26.959  12.679   2.946  0.00  0.00     0.282 C 
HETATM    8  C   UNK N   1      26.343  14.436   4.561  0.00  0.00     0.166 C 
HETATM    9  C   UNK N   1      32.135  13.849   4.693  0.00  0.00     0.183 C 
HETATM   10  C   UNK N   1      26.831  11.188   2.686  0.00  0.00     0.187 C 
HETATM   11  C   UNK N   1      27.425  15.105   5.423  0.00  0.00     0.044 C 
HETATM   12  C   UNK N   1      32.737  11.535   3.435  0.00  0.00     0.055 C 
HETATM   13  C   UNK N   1      27.409  18.449   5.430  0.00  0.00     0.137 C 
HETATM   14  C   UNK N   1      26.881  16.185   6.373  0.00  0.00     0.131 C 
HETATM   15  C   UNK N   1      26.328  17.439   5.702  0.00  0.00     0.111 C 
HETATM   16  C   UNK N   1      33.502  13.261   5.101  0.00  0.00     0.153 C 
HETATM   17  C   UNK N   1      29.064  17.867   7.132  0.00  0.00    -0.012 C 
HETATM   18  C   UNK N   1      31.809  15.137   5.509  0.00  0.00     0.152 C 
HETATM   19  C   UNK N   1      29.937  17.948   8.139  0.00  0.00    -0.086 C 
HETATM   20  C   UNK N   1      33.928  12.171   4.128  0.00  0.00     0.044 C 
HETATM   21  C   UNK N   1      28.263  18.999   6.547  0.00  0.00     0.078 C 
HETATM   22  O   UNK N   1      30.488  10.508   2.403  0.00  0.00    -0.281 OA
HETATM   23  O   UNK N   1      28.635  11.748   4.939  0.00  0.00    -0.264 OA
HETATM   24  O   UNK N   1      27.275  13.440   2.038  0.00  0.00    -0.263 OA
HETATM   25  C   UNK N   1      31.688  15.010   7.047  0.00  0.00     0.039 C 
HETATM   26  O   UNK N   1      27.580  18.852   4.292  0.00  0.00    -0.297 OA
HETATM   27  C   UNK N   1      30.595  16.690   8.612  0.00  0.00     0.037 C 
HETATM   28  C   UNK N   1      31.799  16.370   7.747  0.00  0.00    -0.012 C 
HETATM   29  C   UNK N   1      28.097   9.018   2.850  0.00  0.00     0.127 C 
HETATM   30  C   UNK N   1      28.681  15.520   4.671  0.00  0.00     0.015 C 
HETATM   31  C   UNK N   1      26.866  10.991   1.155  0.00  0.00     0.035 C 
HETATM   32  C   UNK N   1      33.153  10.157   2.938  0.00  0.00     0.016 C 
HETATM   33  C   UNK N   1      30.221  19.240   8.836  0.00  0.00     0.043 C 
HETATM   34  C   UNK N   1      33.045  16.406   8.611  0.00  0.00     0.010 C 
HETATM   35  C   UNK N   1      28.100   8.871   1.339  0.00  0.00     0.020 C 
HETATM   36  C   UNK N   1      26.854   9.521   0.773  0.00  0.00     0.004 C 
ENDROOT
BRANCH   8  37
HETATM   37  C   UNK N   1      25.784  15.225   3.374  0.00  0.00    -0.058 C 
HETATM   38  C   UNK N   1      24.512  15.041   2.982  0.00  0.00    -0.017 C 
HETATM   39  C   UNK N   1      26.665  16.062   2.504  0.00  0.00     0.046 C 
BRANCH  38  40
HETATM   40  C   UNK N   1      23.488  14.281   3.799  0.00  0.00     0.011 C 
HETATM   41  C   UNK N   1      22.771  15.271   4.731  0.00  0.00     0.042 C 
HETATM   42  C   UNK N   1      22.108  16.420   3.939  0.00  0.00     0.139 C 
HETATM   43  C   UNK N   1      21.701  15.988   2.518  0.00  0.00     0.111 C 
HETATM   44  C   UNK N   1      21.293  14.522   2.458  0.00  0.00     0.023 C 
HETATM   45 Cl   UNK N   1      20.433  17.040   1.856  0.00  0.00    -0.122 Cl
HETATM   46  C   UNK N   1      22.451  13.606   2.891  0.00  0.00     0.010 C 
BRANCH  42  47
HETATM   47  O   UNK N   1      22.998  17.496   3.837  0.00  0.00    -0.389 OA
HETATM   48  C   UNK N   1      22.745  18.297   4.949  0.00  0.00     0.202 C 
ENDBRANCH  42  47
ENDBRANCH  38  40
ENDBRANCH   8  37
BRANCH  14  49
HETATM   49  O   UNK N   1      25.921  15.646   7.231  0.00  0.00    -0.395 OA
HETATM   50  H   UNK N   1      25.017  15.397   7.478  0.00  0.00     0.210 HD
ENDBRANCH  14  49
BRANCH  21  51
HETATM   51  C   UNK N   1      27.382  19.652   7.612  0.00  0.00     0.011 C 
HETATM   52  C   UNK N   1      26.760  20.936   7.091  0.00  0.00     0.006 C 
ENDBRANCH  21  51
BRANCH   1  53
HETATM   53  O   UNK N   1      31.656  10.748   5.448  0.00  0.00    -0.359 OA
HETATM   54  H   UNK N   1      32.189  10.295   6.119  0.00  0.00     0.213 HD
ENDBRANCH   1  53
BRANCH  18  55
HETATM   55  O   UNK N   1      32.535  16.275   5.073  0.00  0.00    -0.388 OA
HETATM   56  C   UNK N   1      32.181  16.594   3.753  0.00  0.00     0.202 C 
ENDBRANCH  18  55
BRANCH  16  57
HETATM   57  O   UNK N   1      33.441  12.728   6.394  0.00  0.00    -0.388 OA
HETATM   58  C   UNK N   1      34.766  12.650   6.824  0.00  0.00     0.202 C 
ENDBRANCH  16  57
TORSDOF 8
ENDMDL
MODEL 2
REMARK VINA RESULT:      -7.0      2.026      3.709
REMARK  8 active torsions:
REMARK  status: ('A' for Active; 'I' for Inactive)
REMARK    1  A    between atoms: C_1  and  O_30 
REMARK    2  A    between atoms: C_11  and  C_8 
REMARK    3  A    between atoms: C_15  and  O_38 
REMARK    4  A    between atoms: C_28  and  C_17 
REMARK    5  A    between atoms: C_18  and  O_40 
REMARK    6  A    between atoms: C_20  and  O_41 
REMARK    7  A    between atoms: C_23  and  C_49 
REMARK    8  A    between atoms: C_27  and  O_43 
ROOT
HETATM    1  C   UNK N   1      34.089  12.817   5.845  0.00  0.00     0.238 C 
HETATM    2  C   UNK N   1      33.722  11.602   5.004  0.00  0.00     0.278 C 
HETATM    3  C   UNK N   1      32.393  10.978   5.072  0.00  0.00     0.296 C 
HETATM    4  N   UNK N   1      32.131   9.883   4.303  0.00  0.00    -0.331 N 
HETATM    5  O   UNK N   1      33.033  13.803   5.772  0.00  0.00    -0.338 OA
HETATM    6  O   UNK N   1      29.582  11.694   4.032  0.00  0.00    -0.309 OA
HETATM    7  C   UNK N   1      30.448  11.257   3.077  0.00  0.00     0.282 C 
HETATM    8  C   UNK N   1      28.557  12.616   3.884  0.00  0.00     0.166 C 
HETATM    9  C   UNK N   1      33.475  15.162   5.686  0.00  0.00     0.183 C 
HETATM   10  C   UNK N   1      31.110   9.900   3.245  0.00  0.00     0.187 C 
HETATM   11  C   UNK N   1      28.814  13.852   4.762  0.00  0.00     0.044 C 
HETATM   12  C   UNK N   1      35.472  13.369   5.368  0.00  0.00     0.055 C 
HETATM   13  C   UNK N   1      27.300  16.667   3.778  0.00  0.00     0.137 C 
HETATM   14  C   UNK N   1      27.534  14.596   5.175  0.00  0.00     0.131 C 
HETATM   15  C   UNK N   1      26.773  15.283   4.044  0.00  0.00     0.111 C 
HETATM   16  C   UNK N   1      34.697  15.429   6.591  0.00  0.00     0.153 C 
HETATM   17  C   UNK N   1      28.269  17.249   5.945  0.00  0.00    -0.012 C 
HETATM   18  C   UNK N   1      32.328  16.179   5.972  0.00  0.00     0.152 C 
HETATM   19  C   UNK N   1      28.566  17.896   7.074  0.00  0.00    -0.086 C 
HETATM   20  C   UNK N   1      35.895  14.613   6.128  0.00  0.00     0.044 C 
HETATM   21  C   UNK N   1      27.330  17.713   4.865  0.00  0.00     0.078 C 
HETATM   22  O   UNK N   1      34.490  11.201   4.137  0.00  0.00    -0.281 OA
HETATM   23  O   UNK N   1      31.483  11.591   5.621  0.00  0.00    -0.264 OA
HETATM   24  O   UNK N   1      30.703  11.953   2.101  0.00  0.00    -0.263 OA
HETATM   25  C   UNK N   1      31.713  16.197   7.392  0.00  0.00     0.039 C 
HETATM   26  O   UNK N   1      27.684  16.956   2.657  0.00  0.00    -0.297 OA
HETATM   27  C   UNK N   1      29.487  17.236   8.051  0.00  0.00     0.037 C 
HETATM   28  C   UNK N   1      30.932  17.489   7.664  0.00  0.00    -0.012 C 
HETATM   29  C   UNK N   1      33.050   8.749   4.365  0.00  0.00     0.127 C 
HETATM   30  C   UNK N   1      29.929  14.766   4.274  0.00  0.00     0.015 C 
HETATM   31  C   UNK N   1      31.798   9.564   1.904  0.00  0.00     0.035 C 
HETATM   32  C   UNK N   1      36.612  12.362   5.426  0.00  0.00     0.016 C 
HETATM   33  C   UNK N   1      27.957  19.220   7.409  0.00  0.00     0.043 C 
HETATM   34  C   UNK N   1      31.605  18.276   8.772  0.00  0.00     0.010 C 
HETATM   35  C   UNK N   1      33.682   8.442   3.020  0.00  0.00     0.020 C 
HETATM   36  C   UNK N   1      32.591   8.271   1.983  0.00  0.00     0.004 C 
ENDROOT
BRANCH   8  37
HETATM   37  C   UNK N   1      28.194  12.845   2.415  0.00  0.00    -0.058 C 
HETATM   38  C   UNK N   1      27.314  12.033   1.805  0.00  0.00    -0.017 C 
HETATM   39  C   UNK N   1      28.932  13.830   1.568  0.00  0.00     0.046 C 
BRANCH  38  40
HETATM   40  C   UNK N   1      26.442  11.039   2.546  0.00  0.00     0.011 C 
HETATM   41  C   UNK N   1      25.161  11.755   3.003  0.00  0.00     0.042 C 
HETATM   42  C   UNK N   1      24.402  12.382   1.812  0.00  0.00     0.139 C 
HETATM   43  C   UNK N   1      24.643  11.612   0.500  0.00  0.00     0.111 C 
HETATM   44  C   UNK N   1      24.842  10.121   0.737  0.00  0.00     0.023 C 
HETATM   45 Cl   UNK N   1      23.348  11.913  -0.678  0.00  0.00    -0.122 Cl
HETATM   46  C   UNK N   1      26.060   9.860   1.639  0.00  0.00     0.010 C 
BRANCH  42  47
HETATM   47  O   UNK N   1      24.819  13.706   1.632  0.00  0.00    -0.389 OA
HETATM   48  C   UNK N   1      23.697  14.491   1.890  0.00  0.00     0.202 C 
ENDBRANCH  42  47
ENDBRANCH  38  40
ENDBRANCH   8  37
BRANCH  14  49
HETATM   49  O   UNK N   1      26.675  13.744   5.873  0.00  0.00    -0.395 OA
HETATM   50  H   UNK N   1      26.019  13.541   6.557  0.00  0.00     0.210 HD
ENDBRANCH  14  49
BRANCH  21  51
HETATM   51  C   UNK N   1      25.924  17.935   5.422  0.00  0.00     0.011 C 
HETATM   52  C   UNK N   1      25.103  18.811   4.493  0.00  0.00     0.006 C 
ENDBRANCH  21  51
BRANCH   1  53
HETATM   53  O   UNK N   1      34.194  12.387   7.169  0.00  0.00    -0.359 OA
HETATM   54  H   UNK N   1      34.660  12.198   7.999  0.00  0.00     0.213 HD
ENDBRANCH   1  53
BRANCH  18  55
HETATM   55  O   UNK N   1      32.571  17.465   5.424  0.00  0.00    -0.388 OA
HETATM   56  C   UNK N   1      32.700  17.377   4.030  0.00  0.00     0.202 C 
ENDBRANCH  18  55
BRANCH  16  57
HETATM   57  O   UNK N   1      34.403  15.106   7.920  0.00  0.00    -0.388 OA
HETATM   58  C   UNK N   1      34.984  16.119   8.684  0.00  0.00     0.202 C 
ENDBRANCH  16  57
TORSDOF 8
ENDMDL
MODEL 3
REMARK VINA RESULT:      -7.0      2.486      7.103
REMARK  8 active torsions:
REMARK  status: ('A' for Active; 'I' for Inactive)
REMARK    1  A    between atoms: C_1  and  O_30 
REMARK    2  A    between atoms: C_11  and  C_8 
REMARK    3  A    between atoms: C_15  and  O_38 
REMARK    4  A    between atoms: C_28  and  C_17 
REMARK    5  A    between atoms: C_18  and  O_40 
REMARK    6  A    between atoms: C_20  and  O_41 
REMARK    7  A    between atoms: C_23  and  C_49 
REMARK    8  A    between atoms: C_27  and  O_43 
ROOT
HETATM    1  C   UNK N   1      30.552  16.423   4.093  0.00  0.00     0.238 C 
HETATM    2  C   UNK N   1      29.557  17.494   4.522  0.00  0.00     0.278 C 
HETATM    3  C   UNK N   1      28.330  17.769   3.761  0.00  0.00     0.296 C 
HETATM    4  N   UNK N   1      27.487  18.751   4.191  0.00  0.00    -0.331 N 
HETATM    5  O   UNK N   1      29.848  15.205   3.756  0.00  0.00    -0.338 OA
HETATM    6  O   UNK N   1      25.614  16.361   3.399  0.00  0.00    -0.309 OA
HETATM    7  C   UNK N   1      25.779  16.980   4.600  0.00  0.00     0.282 C 
HETATM    8  C   UNK N   1      24.886  15.210   3.136  0.00  0.00     0.166 C 
HETATM    9  C   UNK N   1      30.484  13.997   4.186  0.00  0.00     0.183 C 
HETATM   10  C   UNK N   1      26.113  18.462   4.627  0.00  0.00     0.187 C 
HETATM   11  C   UNK N   1      25.810  14.093   2.625  0.00  0.00     0.044 C 
HETATM   12  C   UNK N   1      31.607  16.223   5.228  0.00  0.00     0.055 C 
HETATM   13  C   UNK N   1      24.686  10.973   3.055  0.00  0.00     0.137 C 
HETATM   14  C   UNK N   1      25.101  13.063   1.730  0.00  0.00     0.131 C 
HETATM   15  C   UNK N   1      24.061  12.188   2.425  0.00  0.00     0.111 C 
HETATM   16  C   UNK N   1      32.016  14.058   4.009  0.00  0.00     0.153 C 
HETATM   17  C   UNK N   1      26.694  10.690   1.692  0.00  0.00    -0.012 C 
HETATM   18  C   UNK N   1      29.887  12.733   3.495  0.00  0.00     0.152 C 
HETATM   19  C   UNK N   1      27.642  10.157   0.917  0.00  0.00    -0.086 C 
HETATM   20  C   UNK N   1      32.615  15.137   4.899  0.00  0.00     0.044 C 
HETATM   21  C   UNK N   1      25.478   9.987   2.233  0.00  0.00     0.078 C 
HETATM   22  O   UNK N   1      29.690  18.056   5.603  0.00  0.00    -0.281 OA
HETATM   23  O   UNK N   1      27.970  16.961   2.913  0.00  0.00    -0.264 OA
HETATM   24  O   UNK N   1      25.672  16.352   5.647  0.00  0.00    -0.263 OA
HETATM   25  C   UNK N   1      30.067  12.589   1.965  0.00  0.00     0.039 C 
HETATM   26  O   UNK N   1      24.526  10.767   4.247  0.00  0.00    -0.297 OA
HETATM   27  C   UNK N   1      28.748  11.043   0.435  0.00  0.00     0.037 C 
HETATM   28  C   UNK N   1      29.832  11.149   1.491  0.00  0.00    -0.012 C 
HETATM   29  C   UNK N   1      28.036  20.078   4.456  0.00  0.00     0.127 C 
HETATM   30  C   UNK N   1      26.716  13.475   3.679  0.00  0.00     0.015 C 
HETATM   31  C   UNK N   1      25.961  18.933   6.089  0.00  0.00     0.035 C 
HETATM   32  C   UNK N   1      32.370  17.481   5.616  0.00  0.00     0.016 C 
HETATM   33  C   UNK N   1      27.591   8.730   0.474  0.00  0.00     0.043 C 
HETATM   34  C   UNK N   1      31.118  10.574   0.930  0.00  0.00     0.010 C 
HETATM   35  C   UNK N   1      27.842  20.508   5.899  0.00  0.00     0.020 C 
HETATM   36  C   UNK N   1      26.376  20.384   6.263  0.00  0.00     0.004 C 
ENDROOT
BRANCH   8  37
HETATM   37  C   UNK N   1      23.912  14.871   4.267  0.00  0.00    -0.058 C 
HETATM   38  C   UNK N   1      22.685  15.419   4.286  0.00  0.00    -0.017 C 
HETATM   39  C   UNK N   1      24.344  14.095   5.469  0.00  0.00     0.046 C 
BRANCH  38  40
HETATM   40  C   UNK N   1      22.086  16.167   3.112  0.00  0.00     0.011 C 
HETATM   41  C   UNK N   1      21.015  15.278   2.459  0.00  0.00     0.042 C 
HETATM   42  C   UNK N   1      19.923  14.865   3.471  0.00  0.00     0.139 C 
HETATM   43  C   UNK N   1      19.738  15.911   4.585  0.00  0.00     0.111 C 
HETATM   44  C   UNK N   1      19.997  17.328   4.092  0.00  0.00     0.023 C 
HETATM   45 Cl   UNK N   1      18.140  15.773   5.348  0.00  0.00    -0.122 Cl
HETATM   46  C   UNK N   1      21.436  17.480   3.570  0.00  0.00     0.010 C 
BRANCH  42  47
HETATM   47  O   UNK N   1      20.267  13.643   4.061  0.00  0.00    -0.389 OA
HETATM   48  C   UNK N   1      20.277  12.715   3.022  0.00  0.00     0.202 C 
ENDBRANCH  42  47
ENDBRANCH  38  40
ENDBRANCH   8  37
BRANCH  14  49
HETATM   49  O   UNK N   1      24.527  13.688   0.621  0.00  0.00    -0.395 OA
HETATM   50  H   UNK N   1      24.525  14.310  -0.122  0.00  0.00     0.210 HD
ENDBRANCH  14  49
BRANCH  21  51
HETATM   51  C   UNK N   1      24.616   9.434   1.098  0.00  0.00     0.011 C 
HETATM   52  C   UNK N   1      23.793   8.248   1.569  0.00  0.00     0.006 C 
ENDBRANCH  21  51
BRANCH   1  53
HETATM   53  O   UNK N   1      31.191  16.890   2.943  0.00  0.00    -0.359 OA
HETATM   54  H   UNK N   1      31.830  16.851   2.214  0.00  0.00     0.213 HD
ENDBRANCH   1  53
BRANCH  18  55
HETATM   55  O   UNK N   1      30.112  11.537   4.225  0.00  0.00    -0.388 OA
HETATM   56  C   UNK N   1      28.897  11.042   4.724  0.00  0.00     0.202 C 
ENDBRANCH  18  55
BRANCH  16  57
HETATM   57  O   UNK N   1      32.346  14.323   2.675  0.00  0.00    -0.388 OA
HETATM   58  C   UNK N   1      33.737  14.437   2.655  0.00  0.00     0.202 C 
ENDBRANCH  16  57
TORSDOF 8
ENDMDL
MODEL 4
REMARK VINA RESULT:      -6.9      2.410      7.141
REMARK  8 active torsions:
REMARK  status: ('A' for Active; 'I' for Inactive)
REMARK    1  A    between atoms: C_1  and  O_30 
REMARK    2  A    between atoms: C_11  and  C_8 
REMARK    3  A    between atoms: C_15  and  O_38 
REMARK    4  A    between atoms: C_28  and  C_17 
REMARK    5  A    between atoms: C_18  and  O_40 
REMARK    6  A    between atoms: C_20  and  O_41 
REMARK    7  A    between atoms: C_23  and  C_49 
REMARK    8  A    between atoms: C_27  and  O_43 
ROOT
HETATM    1  C   UNK N   1      30.711  10.943   3.965  0.00  0.00     0.238 C 
HETATM    2  C   UNK N   1      31.250  12.240   4.554  0.00  0.00     0.278 C 
HETATM    3  C   UNK N   1      31.006  13.544   3.923  0.00  0.00     0.296 C 
HETATM    4  N   UNK N   1      31.528  14.668   4.494  0.00  0.00    -0.331 N 
HETATM    5  O   UNK N   1      29.321  11.108   3.602  0.00  0.00    -0.338 OA
HETATM    6  O   UNK N   1      28.596  15.450   3.694  0.00  0.00    -0.309 OA
HETATM    7  C   UNK N   1      29.191  15.429   4.918  0.00  0.00     0.282 C 
HETATM    8  C   UNK N   1      27.254  15.658   3.411  0.00  0.00     0.166 C 
HETATM    9  C   UNK N   1      28.480   9.985   3.887  0.00  0.00     0.183 C 
HETATM   10  C   UNK N   1      30.674  15.741   5.023  0.00  0.00     0.187 C 
HETATM   11  C   UNK N   1      26.646  14.414   2.742  0.00  0.00     0.044 C 
HETATM   12  C   UNK N   1      30.940   9.784   4.988  0.00  0.00     0.055 C 
HETATM   13  C   UNK N   1      23.331  14.085   3.040  0.00  0.00     0.137 C 
HETATM   14  C   UNK N   1      25.440  14.723   1.839  0.00  0.00     0.131 C 
HETATM   15  C   UNK N   1      24.189  15.222   2.555  0.00  0.00     0.111 C 
HETATM   16  C   UNK N   1      29.186   8.646   3.585  0.00  0.00     0.153 C 
HETATM   17  C   UNK N   1      23.961  12.302   1.492  0.00  0.00    -0.012 C 
HETATM   18  C   UNK N   1      27.104  10.073   3.160  0.00  0.00     0.152 C 
HETATM   19  C   UNK N   1      23.901  11.308   0.603  0.00  0.00    -0.086 C 
HETATM   20  C   UNK N   1      30.390   8.457   4.496  0.00  0.00     0.044 C 
HETATM   21  C   UNK N   1      22.796  13.048   2.083  0.00  0.00     0.078 C 
HETATM   22  O   UNK N   1      31.783  12.237   5.658  0.00  0.00    -0.281 OA
HETATM   23  O   UNK N   1      30.147  13.625   3.052  0.00  0.00    -0.264 OA
HETATM   24  O   UNK N   1      28.544  15.152   5.922  0.00  0.00    -0.263 OA
HETATM   25  C   UNK N   1      27.095  10.016   1.614  0.00  0.00     0.039 C 
HETATM   26  O   UNK N   1      23.042  14.015   4.223  0.00  0.00    -0.297 OA
HETATM   27  C   UNK N   1      25.184  10.730   0.094  0.00  0.00     0.037 C 
HETATM   28  C   UNK N   1      25.705   9.680   1.058  0.00  0.00    -0.012 C 
HETATM   29  C   UNK N   1      32.954  14.695   4.807  0.00  0.00     0.127 C 
HETATM   30  C   UNK N   1      26.436  13.225   3.668  0.00  0.00     0.015 C 
HETATM   31  C   UNK N   1      30.993  15.916   6.524  0.00  0.00     0.035 C 
HETATM   32  C   UNK N   1      32.390   9.577   5.400  0.00  0.00     0.016 C 
HETATM   33  C   UNK N   1      22.599  10.808   0.063  0.00  0.00     0.043 C 
HETATM   34  C   UNK N   1      25.742   8.341   0.349  0.00  0.00     0.010 C 
HETATM   35  C   UNK N   1      33.218  14.893   6.288  0.00  0.00     0.020 C 
HETATM   36  C   UNK N   1      32.478  16.126   6.766  0.00  0.00     0.004 C 
ENDROOT
BRANCH   8  37
HETATM   37  C   UNK N   1      26.503  16.274   4.593  0.00  0.00    -0.058 C 
HETATM   38  C   UNK N   1      26.647  17.580   4.876  0.00  0.00    -0.017 C 
HETATM   39  C   UNK N   1      25.756  15.430   5.574  0.00  0.00     0.046 C 
BRANCH  38  40
HETATM   40  C   UNK N   1      27.313  18.568   3.941  0.00  0.00     0.011 C 
HETATM   41  C   UNK N   1      26.252  19.560   3.438  0.00  0.00     0.042 C 
HETATM   42  C   UNK N   1      25.552  20.288   4.608  0.00  0.00     0.139 C 
HETATM   43  C   UNK N   1      26.466  20.417   5.841  0.00  0.00     0.111 C 
HETATM   44  C   UNK N   1      27.932  20.566   5.457  0.00  0.00     0.023 C 
HETATM   45 Cl   UNK N   1      25.938  21.738   6.905  0.00  0.00    -0.122 Cl
HETATM   46  C   UNK N   1      28.424  19.345   4.662  0.00  0.00     0.010 C 
BRANCH  42  47
HETATM   47  O   UNK N   1      24.402  19.581   4.980  0.00  0.00    -0.389 OA
HETATM   48  C   UNK N   1      23.656  19.438   3.812  0.00  0.00     0.202 C 
ENDBRANCH  42  47
ENDBRANCH  38  40
ENDBRANCH   8  37
BRANCH  14  49
HETATM   49  O   UNK N   1      25.798  15.621   0.832  0.00  0.00    -0.395 OA
HETATM   50  H   UNK N   1      25.899  16.507   0.453  0.00  0.00     0.210 HD
ENDBRANCH  14  49
BRANCH  21  51
HETATM   51  C   UNK N   1      21.966  13.719   0.989  0.00  0.00     0.011 C 
HETATM   52  C   UNK N   1      20.560  14.017   1.479  0.00  0.00     0.006 C 
ENDBRANCH  21  51
BRANCH   1  53
HETATM   53  O   UNK N   1      31.438  10.684   2.801  0.00  0.00    -0.359 OA
HETATM   54  H   UNK N   1      31.931  10.923   2.001  0.00  0.00     0.213 HD
ENDBRANCH   1  53
BRANCH  18  55
HETATM   55  O   UNK N   1      26.093   9.293   3.779  0.00  0.00    -0.388 OA
HETATM   56  C   UNK N   1      25.614   9.948   4.924  0.00  0.00     0.202 C 
ENDBRANCH  18  55
BRANCH  16  57
HETATM   57  O   UNK N   1      29.605   8.602   2.250  0.00  0.00    -0.388 OA
HETATM   58  C   UNK N   1      30.258   7.377   2.109  0.00  0.00     0.202 C 
ENDBRANCH  16  57
TORSDOF 8
ENDMDL
MODEL 5
REMARK VINA RESULT:      -6.8      2.404      7.085
REMARK  8 active torsions:
REMARK  status: ('A' for Active; 'I' for Inactive)
REMARK    1  A    between atoms: C_1  and  O_30 
REMARK    2  A    between atoms: C_11  and  C_8 
REMARK    3  A    between atoms: C_15  and  O_38 
REMARK    4  A    between atoms: C_28  and  C_17 
REMARK    5  A    between atoms: C_18  and  O_40 
REMARK    6  A    between atoms: C_20  and  O_41 
REMARK    7  A    between atoms: C_23  and  C_49 
REMARK    8  A    between atoms: C_27  and  O_43 
ROOT
HETATM    1  C   UNK N   1      28.972  17.402   5.425  0.00  0.00     0.238 C 
HETATM    2  C   UNK N   1      27.495  17.490   5.066  0.00  0.00     0.278 C 
HETATM    3  C   UNK N   1      26.988  17.088   3.746  0.00  0.00     0.296 C 
HETATM    4  N   UNK N   1      25.654  17.203   3.482  0.00  0.00    -0.331 N 
HETATM    5  O   UNK N   1      29.502  16.120   5.018  0.00  0.00    -0.338 OA
HETATM    6  O   UNK N   1      26.474  14.405   2.321  0.00  0.00    -0.309 OA
HETATM    7  C   UNK N   1      25.570  14.718   3.289  0.00  0.00     0.282 C 
HETATM    8  C   UNK N   1      26.910  13.142   1.949  0.00  0.00     0.166 C 
HETATM    9  C   UNK N   1      30.422  15.522   5.938  0.00  0.00     0.183 C 
HETATM   10  C   UNK N   1      24.813  16.032   3.196  0.00  0.00     0.187 C 
HETATM   11  C   UNK N   1      28.417  12.993   2.213  0.00  0.00     0.044 C 
HETATM   12  C   UNK N   1      29.142  17.674   6.955  0.00  0.00     0.055 C 
HETATM   13  C   UNK N   1      29.517   9.859   2.600  0.00  0.00     0.137 C 
HETATM   14  C   UNK N   1      29.107  11.966   1.301  0.00  0.00     0.131 C 
HETATM   15  C   UNK N   1      28.701  10.511   1.517  0.00  0.00     0.111 C 
HETATM   16  C   UNK N   1      31.370  16.567   6.566  0.00  0.00     0.153 C 
HETATM   17  C   UNK N   1      31.562  11.196   2.546  0.00  0.00    -0.012 C 
HETATM   18  C   UNK N   1      31.223  14.347   5.298  0.00  0.00     0.152 C 
HETATM   19  C   UNK N   1      32.847  11.556   2.489  0.00  0.00    -0.086 C 
HETATM   20  C   UNK N   1      30.586  17.562   7.408  0.00  0.00     0.044 C 
HETATM   21  C   UNK N   1      31.022   9.792   2.510  0.00  0.00     0.078 C 
HETATM   22  O   UNK N   1      26.669  17.765   5.929  0.00  0.00    -0.281 OA
HETATM   23  O   UNK N   1      27.719  16.436   3.008  0.00  0.00    -0.264 OA
HETATM   24  O   UNK N   1      25.375  13.958   4.231  0.00  0.00    -0.263 OA
HETATM   25  C   UNK N   1      32.194  14.677   4.140  0.00  0.00     0.039 C 
HETATM   26  O   UNK N   1      28.951   9.352   3.553  0.00  0.00    -0.297 OA
HETATM   27  C   UNK N   1      33.176  13.015   2.483  0.00  0.00     0.037 C 
HETATM   28  C   UNK N   1      33.210  13.551   3.902  0.00  0.00    -0.012 C 
HETATM   29  C   UNK N   1      25.001  18.486   3.729  0.00  0.00     0.127 C 
HETATM   30  C   UNK N   1      28.804  12.875   3.680  0.00  0.00     0.015 C 
HETATM   31  C   UNK N   1      23.685  15.979   4.249  0.00  0.00     0.035 C 
HETATM   32  C   UNK N   1      28.594  19.013   7.428  0.00  0.00     0.016 C 
HETATM   33  C   UNK N   1      33.945  10.548   2.369  0.00  0.00     0.043 C 
HETATM   34  C   UNK N   1      34.610  14.047   4.206  0.00  0.00     0.010 C 
HETATM   35  C   UNK N   1      23.885  18.379   4.751  0.00  0.00     0.020 C 
HETATM   36  C   UNK N   1      22.922  17.290   4.327  0.00  0.00     0.004 C 
ENDROOT
BRANCH   8  37
HETATM   37  C   UNK N   1      25.982  12.037   2.460  0.00  0.00    -0.058 C 
HETATM   38  C   UNK N   1      24.836  11.767   1.811  0.00  0.00    -0.017 C 
HETATM   39  C   UNK N   1      26.209  11.368   3.777  0.00  0.00     0.046 C 
BRANCH  38  40
HETATM   40  C   UNK N   1      24.506  12.312   0.437  0.00  0.00     0.011 C 
HETATM   41  C   UNK N   1      23.691  11.257  -0.328  0.00  0.00     0.042 C 
HETATM   42  C   UNK N   1      22.407  10.863   0.438  0.00  0.00     0.139 C 
HETATM   43  C   UNK N   1      21.884  12.010   1.322  0.00  0.00     0.111 C 
HETATM   44  C   UNK N   1      22.169  13.378   0.716  0.00  0.00     0.023 C 
HETATM   45 Cl   UNK N   1      20.157  11.812   1.688  0.00  0.00    -0.122 Cl
HETATM   46  C   UNK N   1      23.681  13.603   0.541  0.00  0.00     0.010 C 
BRANCH  42  47
HETATM   47  O   UNK N   1      22.668   9.757   1.255  0.00  0.00    -0.389 OA
HETATM   48  C   UNK N   1      23.079   8.743   0.393  0.00  0.00     0.202 C 
ENDBRANCH  42  47
ENDBRANCH  38  40
ENDBRANCH   8  37
BRANCH  14  49
HETATM   49  O   UNK N   1      28.938  12.309  -0.042  0.00  0.00    -0.395 OA
HETATM   50  H   UNK N   1      28.411  12.452  -0.844  0.00  0.00     0.210 HD
ENDBRANCH  14  49
BRANCH  21  51
HETATM   51  C   UNK N   1      31.442   9.078   1.226  0.00  0.00     0.011 C 
HETATM   52  C   UNK N   1      31.572   7.582   1.453  0.00  0.00     0.006 C 
ENDBRANCH  21  51
BRANCH   1  53
HETATM   53  O   UNK N   1      29.633  18.398   4.702  0.00  0.00    -0.359 OA
HETATM   54  H   UNK N   1      30.409  18.876   4.371  0.00  0.00     0.213 HD
ENDBRANCH   1  53
BRANCH  18  55
HETATM   55  O   UNK N   1      31.743  13.438   6.256  0.00  0.00    -0.388 OA
HETATM   56  C   UNK N   1      32.437  14.137   7.255  0.00  0.00     0.202 C 
ENDBRANCH  18  55
BRANCH  16  57
HETATM   57  O   UNK N   1      32.071  17.255   5.569  0.00  0.00    -0.388 OA
HETATM   58  C   UNK N   1      33.309  17.562   6.134  0.00  0.00     0.202 C 
ENDBRANCH  16  57
TORSDOF 8
ENDMDL
MODEL 6
REMARK VINA RESULT:      -6.8      8.556     12.920
REMARK  8 active torsions:
REMARK  status: ('A' for Active; 'I' for Inactive)
REMARK    1  A    between atoms: C_1  and  O_30 
REMARK    2  A    between atoms: C_11  and  C_8 
REMARK    3  A    between atoms: C_15  and  O_38 
REMARK    4  A    between atoms: C_28  and  C_17 
REMARK    5  A    between atoms: C_18  and  O_40 
REMARK    6  A    between atoms: C_20  and  O_41 
REMARK    7  A    between atoms: C_23  and  C_49 
REMARK    8  A    between atoms: C_27  and  O_43 
ROOT
HETATM    1  C   UNK N   1      38.370   5.839  11.699  0.00  0.00     0.238 C 
HETATM    2  C   UNK N   1      38.072   6.366  10.301  0.00  0.00     0.278 C 
HETATM    3  C   UNK N   1      36.820   7.068   9.982  0.00  0.00     0.296 C 
HETATM    4  N   UNK N   1      36.608   7.504   8.707  0.00  0.00    -0.331 N 
HETATM    5  O   UNK N   1      38.060   6.853  12.683  0.00  0.00    -0.338 OA
HETATM    6  O   UNK N   1      35.678   9.874  10.542  0.00  0.00    -0.309 OA
HETATM    7  C   UNK N   1      36.653   9.835   9.593  0.00  0.00     0.282 C 
HETATM    8  C   UNK N   1      35.407  10.902  11.431  0.00  0.00     0.166 C 
HETATM    9  C   UNK N   1      38.989   6.950  13.768  0.00  0.00     0.183 C 
HETATM   10  C   UNK N   1      36.472   8.932   8.385  0.00  0.00     0.187 C 
HETATM   11  C   UNK N   1      35.614  10.430  12.880  0.00  0.00     0.044 C 
HETATM   12  C   UNK N   1      39.858   5.365  11.759  0.00  0.00     0.055 C 
HETATM   13  C   UNK N   1      36.241  12.839  15.113  0.00  0.00     0.137 C 
HETATM   14  C   UNK N   1      34.771  11.201  13.910  0.00  0.00     0.131 C 
HETATM   15  C   UNK N   1      35.141  12.669  14.102  0.00  0.00     0.111 C 
HETATM   16  C   UNK N   1      39.472   5.562  14.239  0.00  0.00     0.153 C 
HETATM   17  C   UNK N   1      35.969  10.830  16.478  0.00  0.00    -0.012 C 
HETATM   18  C   UNK N   1      38.426   7.785  14.958  0.00  0.00     0.152 C 
HETATM   19  C   UNK N   1      35.819  10.011  17.522  0.00  0.00    -0.086 C 
HETATM   20  C   UNK N   1      40.253   4.864  13.136  0.00  0.00     0.044 C 
HETATM   21  C   UNK N   1      36.089  12.330  16.525  0.00  0.00     0.078 C 
HETATM   22  O   UNK N   1      38.942   6.342   9.438  0.00  0.00    -0.281 OA
HETATM   23  O   UNK N   1      36.114   7.460  10.904  0.00  0.00    -0.264 OA
HETATM   24  O   UNK N   1      37.670  10.509   9.714  0.00  0.00    -0.263 OA
HETATM   25  C   UNK N   1      37.199   7.229  15.718  0.00  0.00     0.039 C 
HETATM   26  O   UNK N   1      37.263  13.423  14.794  0.00  0.00    -0.297 OA
HETATM   27  C   UNK N   1      35.662   8.547  17.259  0.00  0.00     0.037 C 
HETATM   28  C   UNK N   1      37.021   7.894  17.090  0.00  0.00    -0.012 C 
HETATM   29  C   UNK N   1      36.764   6.554   7.609  0.00  0.00     0.127 C 
HETATM   30  C   UNK N   1      37.066  10.236  13.291  0.00  0.00     0.015 C 
HETATM   31  C   UNK N   1      37.576   9.305   7.372  0.00  0.00     0.035 C 
HETATM   32  C   UNK N   1      40.227   4.299  10.737  0.00  0.00     0.016 C 
HETATM   33  C   UNK N   1      35.744  10.524  18.924  0.00  0.00     0.043 C 
HETATM   34  C   UNK N   1      37.212   6.869  18.190  0.00  0.00     0.010 C 
HETATM   35  C   UNK N   1      37.842   6.975   6.627  0.00  0.00     0.020 C 
HETATM   36  C   UNK N   1      37.566   8.390   6.160  0.00  0.00     0.004 C 
ENDROOT
BRANCH   8  37
HETATM   37  C   UNK N   1      36.061  12.220  11.009  0.00  0.00    -0.058 C 
HETATM   38  C   UNK N   1      35.486  12.984  10.064  0.00  0.00    -0.017 C 
HETATM   39  C   UNK N   1      37.429  12.601  11.472  0.00  0.00     0.046 C 
BRANCH  38  40
HETATM   40  C   UNK N   1      34.077  12.762   9.554  0.00  0.00     0.011 C 
HETATM   41  C   UNK N   1      33.407  14.131   9.352  0.00  0.00     0.042 C 
HETATM   42  C   UNK N   1      34.215  15.024   8.383  0.00  0.00     0.139 C 
HETATM   43  C   UNK N   1      35.011  14.196   7.358  0.00  0.00     0.111 C 
HETATM   44  C   UNK N   1      34.298  12.904   6.984  0.00  0.00     0.023 C 
HETATM   45 Cl   UNK N   1      35.412  15.155   5.918  0.00  0.00    -0.122 Cl
HETATM   46  C   UNK N   1      34.089  12.008   8.217  0.00  0.00     0.010 C 
BRANCH  42  47
HETATM   47  O   UNK N   1      35.113  15.813   9.110  0.00  0.00    -0.389 OA
HETATM   48  C   UNK N   1      34.559  17.091   9.129  0.00  0.00     0.202 C 
ENDBRANCH  42  47
ENDBRANCH  38  40
ENDBRANCH   8  37
BRANCH  14  49
HETATM   49  O   UNK N   1      33.411  11.091  13.612  0.00  0.00    -0.395 OA
HETATM   50  H   UNK N   1      32.469  11.066  13.842  0.00  0.00     0.210 HD
ENDBRANCH  14  49
BRANCH  21  51
HETATM   51  C   UNK N   1      34.860  12.956  17.182  0.00  0.00     0.011 C 
HETATM   52  C   UNK N   1      35.254  14.121  18.073  0.00  0.00     0.006 C 
ENDBRANCH  21  51
BRANCH   1  53
HETATM   53  O   UNK N   1      37.527   4.747  11.917  0.00  0.00    -0.359 OA
HETATM   54  H   UNK N   1      37.258   3.912  12.332  0.00  0.00     0.213 HD
ENDBRANCH   1  53
BRANCH  18  55
HETATM   55  O   UNK N   1      39.440   8.319  15.796  0.00  0.00    -0.388 OA
HETATM   56  C   UNK N   1      40.458   8.887  15.016  0.00  0.00     0.202 C 
ENDBRANCH  18  55
BRANCH  16  57
HETATM   57  O   UNK N   1      38.384   4.764  14.612  0.00  0.00    -0.388 OA
HETATM   58  C   UNK N   1      38.936   3.537  14.982  0.00  0.00     0.202 C 
ENDBRANCH  16  57
TORSDOF 8
ENDMDL
MODEL 7
REMARK VINA RESULT:      -6.7      4.428      9.521
REMARK  8 active torsions:
REMARK  status: ('A' for Active; 'I' for Inactive)
REMARK    1  A    between atoms: C_1  and  O_30 
REMARK    2  A    between atoms: C_11  and  C_8 
REMARK    3  A    between atoms: C_15  and  O_38 
REMARK    4  A    between atoms: C_28  and  C_17 
REMARK    5  A    between atoms: C_18  and  O_40 
REMARK    6  A    between atoms: C_20  and  O_41 
REMARK    7  A    between atoms: C_23  and  C_49 
REMARK    8  A    between atoms: C_27  and  O_43 
ROOT
HETATM    1  C   UNK N   1      33.574  14.975   9.235  0.00  0.00     0.238 C 
HETATM    2  C   UNK N   1      34.419  13.752   9.566  0.00  0.00     0.278 C 
HETATM    3  C   UNK N   1      33.914  12.383   9.390  0.00  0.00     0.296 C 
HETATM    4  N   UNK N   1      34.717  11.330   9.717  0.00  0.00    -0.331 N 
HETATM    5  O   UNK N   1      32.942  14.801   7.946  0.00  0.00    -0.338 OA
HETATM    6  O   UNK N   1      33.404  10.530   6.981  0.00  0.00    -0.309 OA
HETATM    7  C   UNK N   1      34.716  10.695   7.306  0.00  0.00     0.282 C 
HETATM    8  C   UNK N   1      32.866  10.324   5.720  0.00  0.00     0.166 C 
HETATM    9  C   UNK N   1      32.900  15.975   7.127  0.00  0.00     0.183 C 
HETATM   10  C   UNK N   1      35.176  10.359   8.714  0.00  0.00     0.187 C 
HETATM   11  C   UNK N   1      31.935  11.486   5.335  0.00  0.00     0.044 C 
HETATM   12  C   UNK N   1      34.473  16.251   9.307  0.00  0.00     0.055 C 
HETATM   13  C   UNK N   1      31.468  11.942   2.055  0.00  0.00     0.137 C 
HETATM   14  C   UNK N   1      30.838  11.095   4.332  0.00  0.00     0.131 C 
HETATM   15  C   UNK N   1      31.323  10.728   2.932  0.00  0.00     0.111 C 
HETATM   16  C   UNK N   1      32.596  17.243   7.953  0.00  0.00     0.153 C 
HETATM   17  C   UNK N   1      29.887  13.490   3.094  0.00  0.00    -0.012 C 
HETATM   18  C   UNK N   1      31.909  15.830   5.932  0.00  0.00     0.152 C 
HETATM   19  C   UNK N   1      28.891  14.360   3.276  0.00  0.00    -0.086 C 
HETATM   20  C   UNK N   1      33.716  17.516   8.946  0.00  0.00     0.044 C 
HETATM   21  C   UNK N   1      30.299  12.859   1.791  0.00  0.00     0.078 C 
HETATM   22  O   UNK N   1      35.604  13.885   9.855  0.00  0.00    -0.281 OA
HETATM   23  O   UNK N   1      32.895  12.213   8.730  0.00  0.00    -0.264 OA
HETATM   24  O   UNK N   1      35.515  11.119   6.478  0.00  0.00    -0.263 OA
HETATM   25  C   UNK N   1      30.403  15.684   6.252  0.00  0.00     0.039 C 
HETATM   26  O   UNK N   1      32.543  12.174   1.527  0.00  0.00    -0.297 OA
HETATM   27  C   UNK N   1      28.605  14.831   4.667  0.00  0.00     0.037 C 
HETATM   28  C   UNK N   1      29.523  15.983   5.031  0.00  0.00    -0.012 C 
HETATM   29  C   UNK N   1      35.331  11.305  11.042  0.00  0.00     0.127 C 
HETATM   30  C   UNK N   1      32.642  12.792   5.001  0.00  0.00     0.015 C 
HETATM   31  C   UNK N   1      36.720  10.373   8.700  0.00  0.00     0.035 C 
HETATM   32  C   UNK N   1      35.160  16.471  10.647  0.00  0.00     0.016 C 
HETATM   33  C   UNK N   1      28.027  14.820   2.146  0.00  0.00     0.043 C 
HETATM   34  C   UNK N   1      28.681  17.217   5.290  0.00  0.00     0.010 C 
HETATM   35  C   UNK N   1      36.848  11.295  10.977  0.00  0.00     0.020 C 
HETATM   36  C   UNK N   1      37.301  10.157  10.086  0.00  0.00     0.004 C 
ENDROOT
BRANCH   8  37
HETATM   37  C   UNK N   1      33.924   9.889   4.704  0.00  0.00    -0.058 C 
HETATM   38  C   UNK N   1      34.262   8.593   4.597  0.00  0.00    -0.017 C 
HETATM   39  C   UNK N   1      34.746  10.885   3.951  0.00  0.00     0.046 C 
BRANCH  38  40
HETATM   40  C   UNK N   1      33.477   7.469   5.242  0.00  0.00     0.011 C 
HETATM   41  C   UNK N   1      32.368   7.026   4.274  0.00  0.00     0.042 C 
HETATM   42  C   UNK N   1      32.946   6.588   2.908  0.00  0.00     0.139 C 
HETATM   43  C   UNK N   1      34.376   6.032   3.034  0.00  0.00     0.111 C 
HETATM   44  C   UNK N   1      34.599   5.316   4.360  0.00  0.00     0.023 C 
HETATM   45 Cl   UNK N   1      34.790   4.989   1.657  0.00  0.00    -0.122 Cl
HETATM   46  C   UNK N   1      34.384   6.269   5.548  0.00  0.00     0.010 C 
BRANCH  42  47
HETATM   47  O   UNK N   1      32.971   7.683   2.036  0.00  0.00    -0.389 OA
HETATM   48  C   UNK N   1      31.945   7.457   1.121  0.00  0.00     0.202 C 
ENDBRANCH  42  47
ENDBRANCH  38  40
ENDBRANCH   8  37
BRANCH  14  49
HETATM   49  O   UNK N   1      30.049  10.063   4.844  0.00  0.00    -0.395 OA
HETATM   50  H   UNK N   1      29.890   9.280   5.393  0.00  0.00     0.210 HD
ENDBRANCH  14  49
BRANCH  21  51
HETATM   51  C   UNK N   1      29.142  12.074   1.174  0.00  0.00     0.011 C 
HETATM   52  C   UNK N   1      29.530  11.509  -0.181  0.00  0.00     0.006 C 
ENDBRANCH  21  51
BRANCH   1  53
HETATM   53  O   UNK N   1      32.572  15.059  10.204  0.00  0.00    -0.359 OA
HETATM   54  H   UNK N   1      31.657  15.110  10.521  0.00  0.00     0.213 HD
ENDBRANCH   1  53
BRANCH  18  55
HETATM   55  O   UNK N   1      32.196  16.712   4.857  0.00  0.00    -0.388 OA
HETATM   56  C   UNK N   1      33.380  16.318   4.215  0.00  0.00     0.202 C 
ENDBRANCH  18  55
BRANCH  16  57
HETATM   57  O   UNK N   1      31.388  17.101   8.646  0.00  0.00    -0.388 OA
HETATM   58  C   UNK N   1      30.898  18.397   8.803  0.00  0.00     0.202 C 
ENDBRANCH  16  57
TORSDOF 8
ENDMDL
MODEL 8
REMARK VINA RESULT:      -6.4      2.759      7.632
REMARK  8 active torsions:
REMARK  status: ('A' for Active; 'I' for Inactive)
REMARK    1  A    between atoms: C_1  and  O_30 
REMARK    2  A    between atoms: C_11  and  C_8 
REMARK    3  A    between atoms: C_15  and  O_38 
REMARK    4  A    between atoms: C_28  and  C_17 
REMARK    5  A    between atoms: C_18  and  O_40 
REMARK    6  A    between atoms: C_20  and  O_41 
REMARK    7  A    between atoms: C_23  and  C_49 
REMARK    8  A    between atoms: C_27  and  O_43 
ROOT
HETATM    1  C   UNK N   1      29.639  13.059   3.253  0.00  0.00     0.238 C 
HETATM    2  C   UNK N   1      29.396  14.305   4.094  0.00  0.00     0.278 C 
HETATM    3  C   UNK N   1      28.285  15.228   3.820  0.00  0.00     0.296 C 
HETATM    4  N   UNK N   1      28.131  16.334   4.603  0.00  0.00    -0.331 N 
HETATM    5  O   UNK N   1      28.393  12.351   3.054  0.00  0.00    -0.338 OA
HETATM    6  O   UNK N   1      25.236  15.174   4.256  0.00  0.00    -0.309 OA
HETATM    7  C   UNK N   1      25.969  15.368   5.386  0.00  0.00     0.282 C 
HETATM    8  C   UNK N   1      24.020  14.517   4.141  0.00  0.00     0.166 C 
HETATM    9  C   UNK N   1      28.488  10.924   3.124  0.00  0.00     0.183 C 
HETATM   10  C   UNK N   1      26.942  16.533   5.445  0.00  0.00     0.187 C 
HETATM   11  C   UNK N   1      24.159  13.278   3.242  0.00  0.00     0.044 C 
HETATM   12  C   UNK N   1      30.735  12.183   3.941  0.00  0.00     0.055 C 
HETATM   13  C   UNK N   1      21.879  10.879   3.716  0.00  0.00     0.137 C 
HETATM   14  C   UNK N   1      22.853  12.870   2.541  0.00  0.00     0.131 C 
HETATM   15  C   UNK N   1      21.745  12.354   3.456  0.00  0.00     0.111 C 
HETATM   16  C   UNK N   1      29.773  10.398   2.450  0.00  0.00     0.153 C 
HETATM   17  C   UNK N   1      23.105  10.139   1.736  0.00  0.00    -0.012 C 
HETATM   18  C   UNK N   1      27.221  10.216   2.554  0.00  0.00     0.152 C 
HETATM   19  C   UNK N   1      23.466   9.468   0.640  0.00  0.00    -0.086 C 
HETATM   20  C   UNK N   1      31.007  10.894   3.188  0.00  0.00     0.044 C 
HETATM   21  C   UNK N   1      21.887   9.883   2.583  0.00  0.00     0.078 C 
HETATM   22  O   UNK N   1      30.046  14.490   5.117  0.00  0.00    -0.281 OA
HETATM   23  O   UNK N   1      27.389  14.863   3.067  0.00  0.00    -0.264 OA
HETATM   24  O   UNK N   1      25.857  14.607   6.341  0.00  0.00    -0.263 OA
HETATM   25  C   UNK N   1      26.916  10.380   1.046  0.00  0.00     0.039 C 
HETATM   26  O   UNK N   1      21.954  10.478   4.866  0.00  0.00    -0.297 OA
HETATM   27  C   UNK N   1      24.690   9.916  -0.096  0.00  0.00     0.037 C 
HETATM   28  C   UNK N   1      25.932   9.317   0.539  0.00  0.00    -0.012 C 
HETATM   29  C   UNK N   1      29.277  17.218   4.798  0.00  0.00     0.127 C 
HETATM   30  C   UNK N   1      24.916  12.114   3.864  0.00  0.00     0.015 C 
HETATM   31  C   UNK N   1      27.405  16.662   6.912  0.00  0.00     0.035 C 
HETATM   32  C   UNK N   1      32.062  12.892   4.172  0.00  0.00     0.016 C 
HETATM   33  C   UNK N   1      22.652   8.335   0.102  0.00  0.00     0.043 C 
HETATM   34  C   UNK N   1      26.616   8.422  -0.475  0.00  0.00     0.010 C 
HETATM   35  C   UNK N   1      29.679  17.333   6.256  0.00  0.00     0.020 C 
HETATM   36  C   UNK N   1      28.470  17.732   7.077  0.00  0.00     0.004 C 
ENDROOT
BRANCH   8  37
HETATM   37  C   UNK N   1      23.326  14.344   5.494  0.00  0.00    -0.058 C 
HETATM   38  C   UNK N   1      22.574  15.337   5.997  0.00  0.00    -0.017 C 
HETATM   39  C   UNK N   1      23.612  13.174   6.379  0.00  0.00     0.046 C 
BRANCH  38  40
HETATM   40  C   UNK N   1      22.142  16.546   5.194  0.00  0.00     0.011 C 
HETATM   41  C   UNK N   1      20.702  16.322   4.704  0.00  0.00     0.042 C 
HETATM   42  C   UNK N   1      19.734  16.062   5.881  0.00  0.00     0.139 C 
HETATM   43  C   UNK N   1      20.201  16.747   7.179  0.00  0.00     0.111 C 
HETATM   44  C   UNK N   1      20.933  18.055   6.907  0.00  0.00     0.023 C 
HETATM   45 Cl   UNK N   1      18.852  16.983   8.310  0.00  0.00    -0.122 Cl
HETATM   46  C   UNK N   1      22.188  17.820   6.049  0.00  0.00     0.010 C 
BRANCH  42  47
HETATM   47  O   UNK N   1      19.639  14.686   6.116  0.00  0.00    -0.389 OA
HETATM   48  C   UNK N   1      19.131  14.139   4.938  0.00  0.00     0.202 C 
ENDBRANCH  42  47
ENDBRANCH  38  40
ENDBRANCH   8  37
BRANCH  14  49
HETATM   49  O   UNK N   1      22.368  13.918   1.757  0.00  0.00    -0.395 OA
HETATM   50  H   UNK N   1      21.993  14.802   1.621  0.00  0.00     0.210 HD
ENDBRANCH  14  49
BRANCH  21  51
HETATM   51  C   UNK N   1      20.609  10.016   1.755  0.00  0.00     0.011 C 
HETATM   52  C   UNK N   1      19.478   9.209   2.369  0.00  0.00     0.006 C 
ENDBRANCH  21  51
BRANCH   1  53
HETATM   53  O   UNK N   1      30.102  13.485   2.006  0.00  0.00    -0.359 OA
HETATM   54  H   UNK N   1      30.737  13.538   1.275  0.00  0.00     0.213 HD
ENDBRANCH   1  53
BRANCH  18  55
HETATM   55  O   UNK N   1      27.050   8.895   3.044  0.00  0.00    -0.388 OA
HETATM   56  C   UNK N   1      26.864   8.919   4.435  0.00  0.00     0.202 C 
ENDBRANCH  18  55
BRANCH  16  57
HETATM   57  O   UNK N   1      29.833  10.815   1.115  0.00  0.00    -0.388 OA
HETATM   58  C   UNK N   1      31.047  10.326   0.630  0.00  0.00     0.202 C 
ENDBRANCH  16  57
TORSDOF 8
ENDMDL
MODEL 9
REMARK VINA RESULT:      -6.3      7.476     12.917
REMARK  8 active torsions:
REMARK  status: ('A' for Active; 'I' for Inactive)
REMARK    1  A    between atoms: C_1  and  O_30 
REMARK    2  A    between atoms: C_11  and  C_8 
REMARK    3  A    between atoms: C_15  and  O_38 
REMARK    4  A    between atoms: C_28  and  C_17 
REMARK    5  A    between atoms: C_18  and  O_40 
REMARK    6  A    between atoms: C_20  and  O_41 
REMARK    7  A    between atoms: C_23  and  C_49 
REMARK    8  A    between atoms: C_27  and  O_43 
ROOT
HETATM    1  C   UNK N   1      38.852   8.318  13.534  0.00  0.00     0.238 C 
HETATM    2  C   UNK N   1      37.584   9.011  14.015  0.00  0.00     0.278 C 
HETATM    3  C   UNK N   1      37.314  10.428  13.732  0.00  0.00     0.296 C 
HETATM    4  N   UNK N   1      36.165  10.994  14.203  0.00  0.00    -0.331 N 
HETATM    5  O   UNK N   1      39.092   8.640  12.145  0.00  0.00    -0.338 OA
HETATM    6  O   UNK N   1      36.437  12.039  11.256  0.00  0.00    -0.309 OA
HETATM    7  C   UNK N   1      35.451  11.299  11.833  0.00  0.00     0.282 C 
HETATM    8  C   UNK N   1      36.586  12.347   9.913  0.00  0.00     0.166 C 
HETATM    9  C   UNK N   1      39.567   7.554  11.342  0.00  0.00     0.183 C 
HETATM   10  C   UNK N   1      35.128  11.516  13.301  0.00  0.00     0.187 C 
HETATM   11  C   UNK N   1      37.887  11.743   9.362  0.00  0.00     0.044 C 
HETATM   12  C   UNK N   1      38.722   6.782  13.791  0.00  0.00     0.055 C 
HETATM   13  C   UNK N   1      37.963  11.232   6.058  0.00  0.00     0.137 C 
HETATM   14  C   UNK N   1      38.466  12.507   8.159  0.00  0.00     0.131 C 
HETATM   15  C   UNK N   1      37.637  12.450   6.879  0.00  0.00     0.111 C 
HETATM   16  C   UNK N   1      40.588   6.680  12.102  0.00  0.00     0.153 C 
HETATM   17  C   UNK N   1      40.248  10.751   6.777  0.00  0.00    -0.012 C 
HETATM   18  C   UNK N   1      40.143   8.033   9.975  0.00  0.00     0.152 C 
HETATM   19  C   UNK N   1      41.557  10.490   6.768  0.00  0.00    -0.086 C 
HETATM   20  C   UNK N   1      39.930   6.006  13.298  0.00  0.00     0.044 C 
HETATM   21  C   UNK N   1      39.368  10.968   5.576  0.00  0.00     0.078 C 
HETATM   22  O   UNK N   1      36.685   8.357  14.531  0.00  0.00    -0.281 OA
HETATM   23  O   UNK N   1      37.991  10.998  12.884  0.00  0.00    -0.264 OA
HETATM   24  O   UNK N   1      34.838  10.461  11.182  0.00  0.00    -0.263 OA
HETATM   25  C   UNK N   1      41.413   8.916   9.993  0.00  0.00     0.039 C 
HETATM   26  O   UNK N   1      37.070  10.460   5.752  0.00  0.00    -0.297 OA
HETATM   27  C   UNK N   1      42.266  10.360   8.079  0.00  0.00     0.037 C 
HETATM   28  C   UNK N   1      42.107   8.953   8.625  0.00  0.00    -0.012 C 
HETATM   29  C   UNK N   1      35.849  10.856  15.622  0.00  0.00     0.127 C 
HETATM   30  C   UNK N   1      37.869  10.232   9.182  0.00  0.00     0.015 C 
HETATM   31  C   UNK N   1      33.813  10.760  13.591  0.00  0.00     0.035 C 
HETATM   32  C   UNK N   1      38.467   6.399  15.241  0.00  0.00     0.016 C 
HETATM   33  C   UNK N   1      42.333  10.388   5.494  0.00  0.00     0.043 C 
HETATM   34  C   UNK N   1      43.477   8.309   8.723  0.00  0.00     0.010 C 
HETATM   35  C   UNK N   1      34.537  10.130  15.856  0.00  0.00     0.020 C 
HETATM   36  C   UNK N   1      33.442  10.812  15.063  0.00  0.00     0.004 C 
ENDROOT
BRANCH   8  37
HETATM   37  C   UNK N   1      35.297  12.113   9.121  0.00  0.00    -0.058 C 
HETATM   38  C   UNK N   1      34.352  13.068   9.075  0.00  0.00    -0.017 C 
HETATM   39  C   UNK N   1      34.960  10.775   8.547  0.00  0.00     0.046 C 
BRANCH  38  40
HETATM   40  C   UNK N   1      34.577  14.489   9.548  0.00  0.00     0.011 C 
HETATM   41  C   UNK N   1      35.039  15.338   8.353  0.00  0.00     0.042 C 
HETATM   42  C   UNK N   1      34.018  15.293   7.194  0.00  0.00     0.139 C 
HETATM   43  C   UNK N   1      32.581  15.061   7.695  0.00  0.00     0.111 C 
HETATM   44  C   UNK N   1      32.341  15.687   9.063  0.00  0.00     0.023 C 
HETATM   45 Cl   UNK N   1      31.381  15.617   6.510  0.00  0.00    -0.122 Cl
HETATM   46  C   UNK N   1      33.285  15.090  10.120  0.00  0.00     0.010 C 
BRANCH  42  47
HETATM   47  O   UNK N   1      34.352  14.259   6.312  0.00  0.00    -0.389 OA
HETATM   48  C   UNK N   1      35.120  14.853   5.312  0.00  0.00     0.202 C 
ENDBRANCH  42  47
ENDBRANCH  38  40
ENDBRANCH   8  37
BRANCH  14  49
HETATM   49  O   UNK N   1      38.719  13.838   8.499  0.00  0.00    -0.395 OA
HETATM   50  H   UNK N   1      39.184  14.684   8.412  0.00  0.00     0.210 HD
ENDBRANCH  14  49
BRANCH  21  51
HETATM   51  C   UNK N   1      39.868  12.144   4.739  0.00  0.00     0.011 C 
HETATM   52  C   UNK N   1      39.434  12.005   3.290  0.00  0.00     0.006 C 
ENDBRANCH  21  51
BRANCH   1  53
HETATM   53  O   UNK N   1      39.912   8.826  14.289  0.00  0.00    -0.359 OA
HETATM   54  H   UNK N   1      40.483   8.892  15.070  0.00  0.00     0.213 HD
ENDBRANCH   1  53
BRANCH  18  55
HETATM   55  O   UNK N   1      40.152   7.017   8.984  0.00  0.00    -0.388 OA
HETATM   56  C   UNK N   1      38.841   6.587   8.725  0.00  0.00     0.202 C 
ENDBRANCH  18  55
BRANCH  16  57
HETATM   57  O   UNK N   1      41.666   7.456  12.544  0.00  0.00    -0.388 OA
HETATM   58  C   UNK N   1      42.491   6.575  13.244  0.00  0.00     0.202 C 
ENDBRANCH  16  57
TORSDOF 8
ENDMDL
