MODEL 1
REMARK VINA RESULT:      -4.4      0.000      0.000
REMARK  6 active torsions:
REMARK  status: ('A' for Active; 'I' for Inactive)
REMARK    1  A    between atoms: C_5  and  C_6 
REMARK    2  A    between atoms: C_6  and  C_7 
REMARK    3  A    between atoms: C_7  and  C_8 
REMARK    4  A    between atoms: C_8  and  C_9 
REMARK    5  A    between atoms: C_9  and  C_10 
REMARK    6  A    between atoms: C_10  and  O_12 
ROOT
HETATM    1  C   UNK N   1      31.446  17.430   8.275  0.00  0.00     0.002 C 
ENDROOT
BRANCH   1   2
HETATM    2  C   UNK N   1      30.682  17.215   6.979  0.00  0.00     0.016 C 
BRANCH   2   3
HETATM    3  C   UNK N   1      31.539  16.517   5.934  0.00  0.00     0.059 C 
HETATM    4  C   UNK N   1      31.686  17.439   4.752  0.00  0.00     0.027 C 
HETATM    5  C   UNK N   1      32.472  16.693   3.704  0.00  0.00     0.087 C 
HETATM    6  S   UNK N   1      31.731  15.054   3.442  0.00  0.00    -0.097 SA
HETATM    7  S   UNK N   1      30.730  15.006   5.330  0.00  0.00    -0.093 SA
ENDBRANCH   2   3
ENDBRANCH   1   2
BRANCH   1   8
HETATM    8  C   UNK N   1      32.706  16.579   8.287  0.00  0.00     0.010 C 
BRANCH   8   9
HETATM    9  C   UNK N   1      33.857  17.315   8.957  0.00  0.00     0.110 C 
BRANCH   9  10
HETATM   10  C   UNK N   1      34.566  18.263   8.033  0.00  0.00     0.139 C 
HETATM   11  O   UNK N   1      34.508  18.120   6.821  0.00  0.00    -0.650 OA
BRANCH  10  12
HETATM   12  O   UNK N   1      35.300  19.265   8.548  0.00  0.00    -0.776 OA
HETATM   13  H   UNK N   1      35.596  19.220   9.436  0.00  0.00     0.167 HD
ENDBRANCH  10  12
ENDBRANCH   9  10
ENDBRANCH   8   9
ENDBRANCH   1   8
TORSDOF 6
ENDMDL
MODEL 2
REMARK VINA RESULT:      -4.4     11.472     11.962
REMARK  6 active torsions:
REMARK  status: ('A' for Active; 'I' for Inactive)
REMARK    1  A    between atoms: C_5  and  C_6 
REMARK    2  A    between atoms: C_6  and  C_7 
REMARK    3  A    between atoms: C_7  and  C_8 
REMARK    4  A    between atoms: C_8  and  C_9 
REMARK    5  A    between atoms: C_9  and  C_10 
REMARK    6  A    between atoms: C_10  and  O_12 
ROOT
HETATM    1  C   UNK N   1      21.881  13.709   9.924  0.00  0.00     0.002 C 
ENDROOT
BRANCH   1   2
HETATM    2  C   UNK N   1      20.678  14.122   9.093  0.00  0.00     0.016 C 
BRANCH   2   3
HETATM    3  C   UNK N   1      21.073  15.063   7.965  0.00  0.00     0.059 C 
HETATM    4  C   UNK N   1      20.457  16.410   8.237  0.00  0.00     0.027 C 
HETATM    5  C   UNK N   1      20.799  17.298   7.067  0.00  0.00     0.087 C 
HETATM    6  S   UNK N   1      20.381  16.447   5.516  0.00  0.00    -0.097 SA
HETATM    7  S   UNK N   1      20.410  14.488   6.373  0.00  0.00    -0.093 SA
ENDBRANCH   2   3
ENDBRANCH   1   2
BRANCH   1   8
HETATM    8  C   UNK N   1      21.593  12.406  10.652  0.00  0.00     0.010 C 
BRANCH   8   9
HETATM    9  C   UNK N   1      22.851  11.560  10.780  0.00  0.00     0.110 C 
BRANCH   9  10
HETATM   10  C   UNK N   1      23.689  11.929  11.970  0.00  0.00     0.139 C 
HETATM   11  O   UNK N   1      23.217  11.917  13.098  0.00  0.00    -0.650 OA
BRANCH  10  12
HETATM   12  O   UNK N   1      24.966  12.308  11.790  0.00  0.00    -0.776 OA
HETATM   13  H   UNK N   1      25.644  11.941  12.323  0.00  0.00     0.167 HD
ENDBRANCH  10  12
ENDBRANCH   9  10
ENDBRANCH   8   9
ENDBRANCH   1   8
TORSDOF 6
ENDMDL
MODEL 3
REMARK VINA RESULT:      -4.2      2.914      3.481
REMARK  6 active torsions:
REMARK  status: ('A' for Active; 'I' for Inactive)
REMARK    1  A    between atoms: C_5  and  C_6 
REMARK    2  A    between atoms: C_6  and  C_7 
REMARK    3  A    between atoms: C_7  and  C_8 
REMARK    4  A    between atoms: C_8  and  C_9 
REMARK    5  A    between atoms: C_9  and  C_10 
REMARK    6  A    between atoms: C_10  and  O_12 
ROOT
HETATM    1  C   UNK N   1      31.007  17.300   6.542  0.00  0.00     0.002 C 
ENDROOT
BRANCH   1   2
HETATM    2  C   UNK N   1      29.655  16.768   6.987  0.00  0.00     0.016 C 
BRANCH   2   3
HETATM    3  C   UNK N   1      28.514  17.621   6.450  0.00  0.00     0.059 C 
HETATM    4  C   UNK N   1      28.933  18.183   5.118  0.00  0.00     0.027 C 
HETATM    5  C   UNK N   1      27.818  19.083   4.647  0.00  0.00     0.087 C 
HETATM    6  S   UNK N   1      27.368  20.238   5.977  0.00  0.00    -0.097 SA
HETATM    7  S   UNK N   1      28.186  19.035   7.543  0.00  0.00    -0.093 SA
ENDBRANCH   2   3
ENDBRANCH   1   2
BRANCH   1   8
HETATM    8  C   UNK N   1      32.089  16.857   7.514  0.00  0.00     0.010 C 
BRANCH   8   9
HETATM    9  C   UNK N   1      32.745  18.054   8.187  0.00  0.00     0.110 C 
BRANCH   9  10
HETATM   10  C   UNK N   1      34.149  18.298   7.714  0.00  0.00     0.139 C 
HETATM   11  O   UNK N   1      34.911  19.011   8.351  0.00  0.00    -0.650 OA
BRANCH  10  12
HETATM   12  O   UNK N   1      34.564  17.748   6.560  0.00  0.00    -0.776 OA
HETATM   13  H   UNK N   1      34.662  18.282   5.796  0.00  0.00     0.167 HD
ENDBRANCH  10  12
ENDBRANCH   9  10
ENDBRANCH   8   9
ENDBRANCH   1   8
TORSDOF 6
ENDMDL
MODEL 4
REMARK VINA RESULT:      -4.2      4.936      6.805
REMARK  6 active torsions:
REMARK  status: ('A' for Active; 'I' for Inactive)
REMARK    1  A    between atoms: C_5  and  C_6 
REMARK    2  A    between atoms: C_6  and  C_7 
REMARK    3  A    between atoms: C_7  and  C_8 
REMARK    4  A    between atoms: C_8  and  C_9 
REMARK    5  A    between atoms: C_9  and  C_10 
REMARK    6  A    between atoms: C_10  and  O_12 
ROOT
HETATM    1  C   UNK N   1      35.563  15.185   9.898  0.00  0.00     0.002 C 
ENDROOT
BRANCH   1   2
HETATM    2  C   UNK N   1      34.702  15.166  11.150  0.00  0.00     0.016 C 
BRANCH   2   3
HETATM    3  C   UNK N   1      35.090  14.025  12.079  0.00  0.00     0.059 C 
HETATM    4  C   UNK N   1      36.083  14.551  13.082  0.00  0.00     0.027 C 
HETATM    5  C   UNK N   1      36.507  13.384  13.938  0.00  0.00     0.087 C 
HETATM    6  S   UNK N   1      36.999  11.997  12.872  0.00  0.00    -0.097 SA
HETATM    7  S   UNK N   1      35.917  12.691  11.164  0.00  0.00    -0.093 SA
ENDBRANCH   2   3
ENDBRANCH   1   2
BRANCH   1   8
HETATM    8  C   UNK N   1      34.808  15.841   8.753  0.00  0.00     0.010 C 
BRANCH   8   9
HETATM    9  C   UNK N   1      34.323  17.230   9.141  0.00  0.00     0.110 C 
BRANCH   9  10
HETATM   10  C   UNK N   1      34.723  18.289   8.154  0.00  0.00     0.139 C 
HETATM   11  O   UNK N   1      35.260  19.323   8.527  0.00  0.00    -0.650 OA
BRANCH  10  12
HETATM   12  O   UNK N   1      34.461  18.111   6.848  0.00  0.00    -0.776 OA
HETATM   13  H   UNK N   1      34.960  18.572   6.203  0.00  0.00     0.167 HD
ENDBRANCH  10  12
ENDBRANCH   9  10
ENDBRANCH   8   9
ENDBRANCH   1   8
TORSDOF 6
ENDMDL
MODEL 5
REMARK VINA RESULT:      -4.1      3.490      4.208
REMARK  6 active torsions:
REMARK  status: ('A' for Active; 'I' for Inactive)
REMARK    1  A    between atoms: C_5  and  C_6 
REMARK    2  A    between atoms: C_6  and  C_7 
REMARK    3  A    between atoms: C_7  and  C_8 
REMARK    4  A    between atoms: C_8  and  C_9 
REMARK    5  A    between atoms: C_9  and  C_10 
REMARK    6  A    between atoms: C_10  and  O_12 
ROOT
HETATM    1  C   UNK N   1      32.125  17.360   8.490  0.00  0.00     0.002 C 
ENDROOT
BRANCH   1   2
HETATM    2  C   UNK N   1      33.275  18.171   7.918  0.00  0.00     0.016 C 
BRANCH   2   3
HETATM    3  C   UNK N   1      33.838  17.531   6.657  0.00  0.00     0.059 C 
HETATM    4  C   UNK N   1      32.701  17.306   5.695  0.00  0.00     0.027 C 
HETATM    5  C   UNK N   1      33.274  16.603   4.490  0.00  0.00     0.087 C 
HETATM    6  S   UNK N   1      34.252  15.170   5.032  0.00  0.00    -0.097 SA
HETATM    7  S   UNK N   1      34.558  15.902   7.017  0.00  0.00    -0.093 SA
ENDBRANCH   2   3
ENDBRANCH   1   2
BRANCH   1   8
HETATM    8  C   UNK N   1      30.936  18.265   8.772  0.00  0.00     0.010 C 
BRANCH   8   9
HETATM    9  C   UNK N   1      29.632  17.480   8.749  0.00  0.00     0.110 C 
BRANCH   9  10
HETATM   10  C   UNK N   1      28.423  18.354   8.576  0.00  0.00     0.139 C 
HETATM   11  O   UNK N   1      28.392  19.219   7.712  0.00  0.00    -0.650 OA
BRANCH  10  12
HETATM   12  O   UNK N   1      27.373  18.204   9.401  0.00  0.00    -0.776 OA
HETATM   13  H   UNK N   1      26.927  17.381   9.446  0.00  0.00     0.167 HD
ENDBRANCH  10  12
ENDBRANCH   9  10
ENDBRANCH   8   9
ENDBRANCH   1   8
TORSDOF 6
ENDMDL
MODEL 6
REMARK VINA RESULT:      -4.1      1.653      2.627
REMARK  6 active torsions:
REMARK  status: ('A' for Active; 'I' for Inactive)
REMARK    1  A    between atoms: C_5  and  C_6 
REMARK    2  A    between atoms: C_6  and  C_7 
REMARK    3  A    between atoms: C_7  and  C_8 
REMARK    4  A    between atoms: C_8  and  C_9 
REMARK    5  A    between atoms: C_9  and  C_10 
REMARK    6  A    between atoms: C_10  and  O_12 
ROOT
HETATM    1  C   UNK N   1      31.423  16.618   7.665  0.00  0.00     0.002 C 
ENDROOT
BRANCH   1   2
HETATM    2  C   UNK N   1      31.190  16.909   6.192  0.00  0.00     0.016 C 
BRANCH   2   3
HETATM    3  C   UNK N   1      29.715  16.815   5.830  0.00  0.00     0.059 C 
HETATM    4  C   UNK N   1      28.908  16.986   7.090  0.00  0.00     0.027 C 
HETATM    5  C   UNK N   1      27.458  16.811   6.715  0.00  0.00     0.087 C 
HETATM    6  S   UNK N   1      27.260  15.280   5.756  0.00  0.00    -0.097 SA
HETATM    7  S   UNK N   1      29.311  15.174   5.161  0.00  0.00    -0.093 SA
ENDBRANCH   2   3
ENDBRANCH   1   2
BRANCH   1   8
HETATM    8  C   UNK N   1      32.037  17.830   8.347  0.00  0.00     0.010 C 
BRANCH   8   9
HETATM    9  C   UNK N   1      33.472  17.551   8.773  0.00  0.00     0.110 C 
BRANCH   9  10
HETATM   10  C   UNK N   1      34.485  18.295   7.951  0.00  0.00     0.139 C 
HETATM   11  O   UNK N   1      34.617  18.063   6.758  0.00  0.00    -0.650 OA
BRANCH  10  12
HETATM   12  O   UNK N   1      35.278  19.205   8.542  0.00  0.00    -0.776 OA
HETATM   13  H   UNK N   1      35.953  19.629   8.049  0.00  0.00     0.167 HD
ENDBRANCH  10  12
ENDBRANCH   9  10
ENDBRANCH   8   9
ENDBRANCH   1   8
TORSDOF 6
ENDMDL
MODEL 7
REMARK VINA RESULT:      -4.1     14.991     16.548
REMARK  6 active torsions:
REMARK  status: ('A' for Active; 'I' for Inactive)
REMARK    1  A    between atoms: C_5  and  C_6 
REMARK    2  A    between atoms: C_6  and  C_7 
REMARK    3  A    between atoms: C_7  and  C_8 
REMARK    4  A    between atoms: C_8  and  C_9 
REMARK    5  A    between atoms: C_9  and  C_10 
REMARK    6  A    between atoms: C_10  and  O_12 
ROOT
HETATM    1  C   UNK N   1      25.661  26.402  -6.729  0.00  0.00     0.002 C 
ENDROOT
BRANCH   1   2
HETATM    2  C   UNK N   1      24.874  26.950  -5.551  0.00  0.00     0.016 C 
BRANCH   2   3
HETATM    3  C   UNK N   1      25.587  28.126  -4.900  0.00  0.00     0.059 C 
HETATM    4  C   UNK N   1      26.855  28.393  -5.668  0.00  0.00     0.027 C 
HETATM    5  C   UNK N   1      27.577  29.510  -4.956  0.00  0.00     0.087 C 
HETATM    6  S   UNK N   1      27.698  29.122  -3.185  0.00  0.00    -0.097 SA
HETATM    7  S   UNK N   1      26.074  27.732  -3.194  0.00  0.00    -0.093 SA
ENDBRANCH   2   3
ENDBRANCH   1   2
BRANCH   1   8
HETATM    8  C   UNK N   1      25.950  24.924  -6.524  0.00  0.00     0.010 C 
BRANCH   8   9
HETATM    9  C   UNK N   1      25.562  24.480  -5.121  0.00  0.00     0.110 C 
BRANCH   9  10
HETATM   10  C   UNK N   1      26.748  24.233  -4.233  0.00  0.00     0.139 C 
HETATM   11  O   UNK N   1      27.886  24.277  -4.680  0.00  0.00    -0.650 OA
BRANCH  10  12
HETATM   12  O   UNK N   1      26.555  23.929  -2.938  0.00  0.00    -0.776 OA
HETATM   13  H   UNK N   1      27.020  23.214  -2.550  0.00  0.00     0.167 HD
ENDBRANCH  10  12
ENDBRANCH   9  10
ENDBRANCH   8   9
ENDBRANCH   1   8
TORSDOF 6
ENDMDL
MODEL 8
REMARK VINA RESULT:      -4.1     14.283     15.866
REMARK  6 active torsions:
REMARK  status: ('A' for Active; 'I' for Inactive)
REMARK    1  A    between atoms: C_5  and  C_6 
REMARK    2  A    between atoms: C_6  and  C_7 
REMARK    3  A    between atoms: C_7  and  C_8 
REMARK    4  A    between atoms: C_8  and  C_9 
REMARK    5  A    between atoms: C_9  and  C_10 
REMARK    6  A    between atoms: C_10  and  O_12 
ROOT
HETATM    1  C   UNK N   1      25.328  25.430  -5.271  0.00  0.00     0.002 C 
ENDROOT
BRANCH   1   2
HETATM    2  C   UNK N   1      26.567  25.107  -6.089  0.00  0.00     0.016 C 
BRANCH   2   3
HETATM    3  C   UNK N   1      27.602  24.355  -5.264  0.00  0.00     0.059 C 
HETATM    4  C   UNK N   1      27.218  24.466  -3.812  0.00  0.00     0.027 C 
HETATM    5  C   UNK N   1      28.299  23.781  -3.014  0.00  0.00     0.087 C 
HETATM    6  S   UNK N   1      29.925  24.403  -3.536  0.00  0.00    -0.097 SA
HETATM    7  S   UNK N   1      29.247  25.107  -5.437  0.00  0.00    -0.093 SA
ENDBRANCH   2   3
ENDBRANCH   1   2
BRANCH   1   8
HETATM    8  C   UNK N   1      24.900  26.867  -5.516  0.00  0.00     0.010 C 
BRANCH   8   9
HETATM    9  C   UNK N   1      26.018  27.840  -5.169  0.00  0.00     0.110 C 
BRANCH   9  10
HETATM   10  C   UNK N   1      25.831  28.496  -3.831  0.00  0.00     0.139 C 
HETATM   11  O   UNK N   1      25.526  27.838  -2.846  0.00  0.00    -0.650 OA
BRANCH  10  12
HETATM   12  O   UNK N   1      25.972  29.828  -3.721  0.00  0.00    -0.776 OA
HETATM   13  H   UNK N   1      26.756  30.243  -4.023  0.00  0.00     0.167 HD
ENDBRANCH  10  12
ENDBRANCH   9  10
ENDBRANCH   8   9
ENDBRANCH   1   8
TORSDOF 6
ENDMDL
MODEL 9
REMARK VINA RESULT:      -4.0     10.091     11.130
REMARK  6 active torsions:
REMARK  status: ('A' for Active; 'I' for Inactive)
REMARK    1  A    between atoms: C_5  and  C_6 
REMARK    2  A    between atoms: C_6  and  C_7 
REMARK    3  A    between atoms: C_7  and  C_8 
REMARK    4  A    between atoms: C_8  and  C_9 
REMARK    5  A    between atoms: C_9  and  C_10 
REMARK    6  A    between atoms: C_10  and  O_12 
ROOT
HETATM    1  C   UNK N   1      22.210  12.321   8.942  0.00  0.00     0.002 C 
ENDROOT
BRANCH   1   2
HETATM    2  C   UNK N   1      23.198  12.745   7.869  0.00  0.00     0.016 C 
BRANCH   2   3
HETATM    3  C   UNK N   1      22.626  13.842   6.984  0.00  0.00     0.059 C 
HETATM    4  C   UNK N   1      23.685  14.896   6.795  0.00  0.00     0.027 C 
HETATM    5  C   UNK N   1      23.066  16.005   5.981  0.00  0.00     0.087 C 
HETATM    6  S   UNK N   1      21.479  16.489   6.722  0.00  0.00    -0.097 SA
HETATM    7  S   UNK N   1      21.208  14.652   7.782  0.00  0.00    -0.093 SA
ENDBRANCH   2   3
ENDBRANCH   1   2
BRANCH   1   8
HETATM    8  C   UNK N   1      22.914  11.492  10.004  0.00  0.00     0.010 C 
BRANCH   8   9
HETATM    9  C   UNK N   1      22.550  11.968  11.403  0.00  0.00     0.110 C 
BRANCH   9  10
HETATM   10  C   UNK N   1      23.741  12.101  12.308  0.00  0.00     0.139 C 
HETATM   11  O   UNK N   1      23.611  12.084  13.523  0.00  0.00    -0.650 OA
BRANCH  10  12
HETATM   12  O   UNK N   1      24.962  12.274  11.773  0.00  0.00    -0.776 OA
HETATM   13  H   UNK N   1      25.725  12.182  12.309  0.00  0.00     0.167 HD
ENDBRANCH  10  12
ENDBRANCH   9  10
ENDBRANCH   8   9
ENDBRANCH   1   8
TORSDOF 6
ENDMDL
