MODEL 1
REMARK VINA RESULT:      -4.2      0.000      0.000
REMARK  0 active torsions:
REMARK  status: ('A' for Active; 'I' for Inactive)
ROOT
HETATM    1  C   UNK N   1      31.371  17.344   7.152  0.00  0.00     0.122 A 
HETATM    2  C   UNK N   1      32.039  17.240   5.784  0.00  0.00     0.122 A 
HETATM    3  C   UNK N   1      31.191  17.050   4.531  0.00  0.00     0.122 A 
HETATM    4  C   UNK N   1      29.849  17.258   7.266  0.00  0.00     0.122 A 
HETATM    5  C   UNK N   1      29.669  16.964   4.645  0.00  0.00     0.122 A 
HETATM    6  C   UNK N   1      29.001  17.069   6.012  0.00  0.00     0.122 A 
HETATM    7 Cl   UNK N   1      31.984  16.929   2.935  0.00  0.00    -0.122 Cl
HETATM    8 Cl   UNK N   1      27.222  16.968   6.145  0.00  0.00    -0.122 Cl
HETATM    9 Cl   UNK N   1      32.374  17.565   8.613  0.00  0.00    -0.122 Cl
HETATM   10 Cl   UNK N   1      33.817  17.340   5.651  0.00  0.00    -0.122 Cl
HETATM   11 Cl   UNK N   1      29.056  17.379   8.861  0.00  0.00    -0.122 Cl
HETATM   12 Cl   UNK N   1      28.666  16.743   3.184  0.00  0.00    -0.122 Cl
ENDROOT
TORSDOF 0
ENDMDL
MODEL 2
REMARK VINA RESULT:      -4.2      0.170      3.655
REMARK  0 active torsions:
REMARK  status: ('A' for Active; 'I' for Inactive)
ROOT
HETATM    1  C   UNK N   1      30.003  17.275   7.361  0.00  0.00     0.122 A 
HETATM    2  C   UNK N   1      29.106  17.137   6.134  0.00  0.00     0.122 A 
HETATM    3  C   UNK N   1      29.724  17.038   4.743  0.00  0.00     0.122 A 
HETATM    4  C   UNK N   1      31.521  17.314   7.196  0.00  0.00     0.122 A 
HETATM    5  C   UNK N   1      31.243  17.077   4.578  0.00  0.00     0.122 A 
HETATM    6  C   UNK N   1      32.139  17.215   5.805  0.00  0.00     0.122 A 
HETATM    7 Cl   UNK N   1      28.666  16.877   3.314  0.00  0.00    -0.122 Cl
HETATM    8 Cl   UNK N   1      33.914  17.261   5.612  0.00  0.00    -0.122 Cl
HETATM    9 Cl   UNK N   1      29.268  17.390   8.985  0.00  0.00    -0.122 Cl
HETATM   10 Cl   UNK N   1      27.331  17.092   6.327  0.00  0.00    -0.122 Cl
HETATM   11 Cl   UNK N   1      32.580  17.476   8.625  0.00  0.00    -0.122 Cl
HETATM   12 Cl   UNK N   1      31.977  16.962   2.954  0.00  0.00    -0.122 Cl
ENDROOT
TORSDOF 0
ENDMDL
MODEL 3
REMARK VINA RESULT:      -4.2      0.032      5.158
REMARK  0 active torsions:
REMARK  status: ('A' for Active; 'I' for Inactive)
ROOT
HETATM    1  C   UNK N   1      29.687  16.985   4.659  0.00  0.00     0.122 A 
HETATM    2  C   UNK N   1      29.021  17.084   6.029  0.00  0.00     0.122 A 
HETATM    3  C   UNK N   1      29.874  17.258   7.282  0.00  0.00     0.122 A 
HETATM    4  C   UNK N   1      31.208  17.061   4.543  0.00  0.00     0.122 A 
HETATM    5  C   UNK N   1      31.395  17.334   7.166  0.00  0.00     0.122 A 
HETATM    6  C   UNK N   1      32.061  17.235   5.796  0.00  0.00     0.122 A 
HETATM    7 Cl   UNK N   1      29.085  17.373   8.880  0.00  0.00    -0.122 Cl
HETATM    8 Cl   UNK N   1      33.839  17.324   5.660  0.00  0.00    -0.122 Cl
HETATM    9 Cl   UNK N   1      28.679  16.781   3.199  0.00  0.00    -0.122 Cl
HETATM   10 Cl   UNK N   1      27.243  16.995   6.165  0.00  0.00    -0.122 Cl
HETATM   11 Cl   UNK N   1      31.997  16.946   2.945  0.00  0.00    -0.122 Cl
HETATM   12 Cl   UNK N   1      32.403  17.538   8.626  0.00  0.00    -0.122 Cl
ENDROOT
TORSDOF 0
ENDMDL
MODEL 4
REMARK VINA RESULT:      -4.2      0.030      3.650
REMARK  0 active torsions:
REMARK  status: ('A' for Active; 'I' for Inactive)
ROOT
HETATM    1  C   UNK N   1      31.346  17.347   7.148  0.00  0.00     0.122 A 
HETATM    2  C   UNK N   1      29.827  17.255   7.248  0.00  0.00     0.122 A 
HETATM    3  C   UNK N   1      28.987  17.060   5.989  0.00  0.00     0.122 A 
HETATM    4  C   UNK N   1      32.028  17.244   5.784  0.00  0.00     0.122 A 
HETATM    5  C   UNK N   1      29.669  16.958   4.626  0.00  0.00     0.122 A 
HETATM    6  C   UNK N   1      31.188  17.050   4.525  0.00  0.00     0.122 A 
HETATM    7 Cl   UNK N   1      27.209  16.954   6.119  0.00  0.00    -0.122 Cl
HETATM    8 Cl   UNK N   1      31.985  16.930   2.931  0.00  0.00    -0.122 Cl
HETATM    9 Cl   UNK N   1      32.319  17.574   8.628  0.00  0.00    -0.122 Cl
HETATM   10 Cl   UNK N   1      29.030  17.375   8.842  0.00  0.00    -0.122 Cl
HETATM   11 Cl   UNK N   1      33.806  17.351   5.654  0.00  0.00    -0.122 Cl
HETATM   12 Cl   UNK N   1      28.696  16.730   3.146  0.00  0.00    -0.122 Cl
ENDROOT
TORSDOF 0
ENDMDL
MODEL 5
REMARK VINA RESULT:      -4.2     13.153     14.606
REMARK  0 active torsions:
REMARK  status: ('A' for Active; 'I' for Inactive)
ROOT
HETATM    1  C   UNK N   1      27.096  27.803  -4.422  0.00  0.00     0.122 A 
HETATM    2  C   UNK N   1      28.506  27.493  -3.928  0.00  0.00     0.122 A 
HETATM    3  C   UNK N   1      29.074  26.084  -4.072  0.00  0.00     0.122 A 
HETATM    4  C   UNK N   1      26.252  26.702  -5.061  0.00  0.00     0.122 A 
HETATM    5  C   UNK N   1      28.230  24.983  -4.712  0.00  0.00     0.122 A 
HETATM    6  C   UNK N   1      26.820  25.293  -5.205  0.00  0.00     0.122 A 
HETATM    7 Cl   UNK N   1      30.726  25.732  -3.491  0.00  0.00    -0.122 Cl
HETATM    8 Cl   UNK N   1      25.832  24.006  -5.952  0.00  0.00    -0.122 Cl
HETATM    9 Cl   UNK N   1      26.442  29.456  -4.248  0.00  0.00    -0.122 Cl
HETATM   10 Cl   UNK N   1      29.493  28.780  -3.181  0.00  0.00    -0.122 Cl
HETATM   11 Cl   UNK N   1      24.600  27.054  -5.642  0.00  0.00    -0.122 Cl
HETATM   12 Cl   UNK N   1      28.884  23.330  -4.885  0.00  0.00    -0.122 Cl
ENDROOT
TORSDOF 0
ENDMDL
MODEL 6
REMARK VINA RESULT:      -4.1      0.061      3.650
REMARK  0 active torsions:
REMARK  status: ('A' for Active; 'I' for Inactive)
ROOT
HETATM    1  C   UNK N   1      29.036  17.093   6.055  0.00  0.00     0.122 A 
HETATM    2  C   UNK N   1      29.689  16.991   4.680  0.00  0.00     0.122 A 
HETATM    3  C   UNK N   1      31.208  17.060   4.548  0.00  0.00     0.122 A 
HETATM    4  C   UNK N   1      29.903  17.264   7.302  0.00  0.00     0.122 A 
HETATM    5  C   UNK N   1      32.075  17.231   5.795  0.00  0.00     0.122 A 
HETATM    6  C   UNK N   1      31.422  17.333   7.170  0.00  0.00     0.122 A 
HETATM    7 Cl   UNK N   1      31.962  16.939   2.934  0.00  0.00    -0.122 Cl
HETATM    8 Cl   UNK N   1      32.435  17.533   8.626  0.00  0.00    -0.122 Cl
HETATM    9 Cl   UNK N   1      27.258  17.011   6.198  0.00  0.00    -0.122 Cl
HETATM   10 Cl   UNK N   1      28.676  16.790   3.223  0.00  0.00    -0.122 Cl
HETATM   11 Cl   UNK N   1      29.149  17.385   8.916  0.00  0.00    -0.122 Cl
HETATM   12 Cl   UNK N   1      33.853  17.313   5.652  0.00  0.00    -0.122 Cl
ENDROOT
TORSDOF 0
ENDMDL
MODEL 7
REMARK VINA RESULT:      -4.1      0.037      2.594
REMARK  0 active torsions:
REMARK  status: ('A' for Active; 'I' for Inactive)
ROOT
HETATM    1  C   UNK N   1      32.059  17.232   5.792  0.00  0.00     0.122 A 
HETATM    2  C   UNK N   1      31.199  17.055   4.544  0.00  0.00     0.122 A 
HETATM    3  C   UNK N   1      29.680  16.980   4.666  0.00  0.00     0.122 A 
HETATM    4  C   UNK N   1      31.398  17.334   7.166  0.00  0.00     0.122 A 
HETATM    5  C   UNK N   1      29.019  17.081   6.040  0.00  0.00     0.122 A 
HETATM    6  C   UNK N   1      29.878  17.258   7.288  0.00  0.00     0.122 A 
HETATM    7 Cl   UNK N   1      28.684  16.773   3.198  0.00  0.00    -0.122 Cl
HETATM    8 Cl   UNK N   1      29.106  17.377   8.893  0.00  0.00    -0.122 Cl
HETATM    9 Cl   UNK N   1      33.835  17.319   5.637  0.00  0.00    -0.122 Cl
HETATM   10 Cl   UNK N   1      31.972  16.936   2.938  0.00  0.00    -0.122 Cl
HETATM   11 Cl   UNK N   1      32.394  17.541   8.633  0.00  0.00    -0.122 Cl
HETATM   12 Cl   UNK N   1      27.242  16.994   6.194  0.00  0.00    -0.122 Cl
ENDROOT
TORSDOF 0
ENDMDL
MODEL 8
REMARK VINA RESULT:      -4.1      0.018      4.465
REMARK  0 active torsions:
REMARK  status: ('A' for Active; 'I' for Inactive)
ROOT
HETATM    1  C   UNK N   1      29.010  17.072   6.020  0.00  0.00     0.122 A 
HETATM    2  C   UNK N   1      29.863  17.256   7.272  0.00  0.00     0.122 A 
HETATM    3  C   UNK N   1      31.383  17.338   7.157  0.00  0.00     0.122 A 
HETATM    4  C   UNK N   1      29.678  16.969   4.650  0.00  0.00     0.122 A 
HETATM    5  C   UNK N   1      32.051  17.235   5.787  0.00  0.00     0.122 A 
HETATM    6  C   UNK N   1      31.198  17.051   4.535  0.00  0.00     0.122 A 
HETATM    7 Cl   UNK N   1      32.371  17.553   8.629  0.00  0.00    -0.122 Cl
HETATM    8 Cl   UNK N   1      31.979  16.930   2.933  0.00  0.00    -0.122 Cl
HETATM    9 Cl   UNK N   1      27.233  16.978   6.167  0.00  0.00    -0.122 Cl
HETATM   10 Cl   UNK N   1      29.082  17.377   8.874  0.00  0.00    -0.122 Cl
HETATM   11 Cl   UNK N   1      28.690  16.754   3.179  0.00  0.00    -0.122 Cl
HETATM   12 Cl   UNK N   1      33.828  17.329   5.640  0.00  0.00    -0.122 Cl
ENDROOT
TORSDOF 0
ENDMDL
MODEL 9
REMARK VINA RESULT:      -4.1      0.205      2.498
REMARK  0 active torsions:
REMARK  status: ('A' for Active; 'I' for Inactive)
ROOT
HETATM    1  C   UNK N   1      30.029  17.258   7.387  0.00  0.00     0.122 A 
HETATM    2  C   UNK N   1      31.546  17.291   7.218  0.00  0.00     0.122 A 
HETATM    3  C   UNK N   1      32.162  17.205   5.824  0.00  0.00     0.122 A 
HETATM    4  C   UNK N   1      29.127  17.138   6.159  0.00  0.00     0.122 A 
HETATM    5  C   UNK N   1      31.260  17.085   4.597  0.00  0.00     0.122 A 
HETATM    6  C   UNK N   1      29.743  17.052   4.766  0.00  0.00     0.122 A 
HETATM    7 Cl   UNK N   1      33.937  17.244   5.638  0.00  0.00    -0.122 Cl
HETATM    8 Cl   UNK N   1      28.689  16.912   3.331  0.00  0.00    -0.122 Cl
HETATM    9 Cl   UNK N   1      29.319  17.360   9.022  0.00  0.00    -0.122 Cl
HETATM   10 Cl   UNK N   1      32.600  17.431   8.652  0.00  0.00    -0.122 Cl
HETATM   11 Cl   UNK N   1      27.352  17.099   6.345  0.00  0.00    -0.122 Cl
HETATM   12 Cl   UNK N   1      31.970  16.984   2.962  0.00  0.00    -0.122 Cl
ENDROOT
TORSDOF 0
ENDMDL
