MODEL 1
REMARK VINA RESULT:      -2.9      0.000      0.000
REMARK  0 active torsions:
REMARK  status: ('A' for Active; 'I' for Inactive)
REMARK       I    between atoms: N_1  and  C_5 
REMARK       I    between atoms: N_2  and  C_5 
ROOT
HETATM    1  N   UNK N   1      24.896  12.343  11.180  0.00  0.00    -0.235 N 
HETATM    2  N   UNK N   1      22.707  11.290  10.901  0.00  0.00    -0.235 N 
HETATM    3  N   UNK N   1      23.408  12.128  12.963  0.00  0.00    -0.235 N 
ATOM      4  HN  UNK N   1      24.098  12.587  13.556  1.00  0.00     0.174 HD
HETATM    5  C   UNK N   1      23.662  11.927  11.724  0.00  0.00     0.663 C 
HETATM    6  H   UNK N   1      25.561  12.787  11.753  0.00  0.00     0.174 HD
HETATM    7  H   UNK N   1      25.091  12.188  10.227  0.00  0.00     0.174 HD
HETATM    8  H   UNK N   1      22.903  11.137   9.949  0.00  0.00     0.174 HD
HETATM    9  H   UNK N   1      21.847  11.001  11.280  0.00  0.00     0.174 HD
HETATM   10  H   UNK N   1      22.547  11.837  13.342  0.00  0.00     0.174 HD
ENDROOT
TORSDOF 0
ENDMDL
MODEL 2
REMARK VINA RESULT:      -2.8      0.083      2.050
REMARK  0 active torsions:
REMARK  status: ('A' for Active; 'I' for Inactive)
REMARK       I    between atoms: N_1  and  C_5 
REMARK       I    between atoms: N_2  and  C_5 
ROOT
HETATM    1  N   UNK N   1      23.401  12.144  13.056  0.00  0.00    -0.235 N 
HETATM    2  N   UNK N   1      24.890  12.369  11.131  0.00  0.00    -0.235 N 
HETATM    3  N   UNK N   1      22.803  11.341  10.950  0.00  0.00    -0.235 N 
ATOM      4  HN  UNK N   1      21.921  11.026  11.352  1.00  0.00     0.174 HD
HETATM    5  C   UNK N   1      23.668  11.931  11.687  0.00  0.00     0.663 C 
HETATM    6  H   UNK N   1      22.550  11.839  13.444  0.00  0.00     0.174 HD
HETATM    7  H   UNK N   1      24.066  12.597  13.623  0.00  0.00     0.174 HD
HETATM    8  H   UNK N   1      25.554  12.822  11.698  0.00  0.00     0.174 HD
HETATM    9  H   UNK N   1      25.076  12.221  10.177  0.00  0.00     0.174 HD
HETATM   10  H   UNK N   1      22.990  11.193   9.994  0.00  0.00     0.174 HD
ENDROOT
TORSDOF 0
ENDMDL
MODEL 3
REMARK VINA RESULT:      -2.8     13.472     13.873
REMARK  0 active torsions:
REMARK  status: ('A' for Active; 'I' for Inactive)
REMARK       I    between atoms: N_1  and  C_5 
REMARK       I    between atoms: N_2  and  C_5 
ROOT
HETATM    1  N   UNK N   1      20.368  19.122   1.547  0.00  0.00    -0.235 N 
HETATM    2  N   UNK N   1      21.028  21.256   2.539  0.00  0.00    -0.235 N 
HETATM    3  N   UNK N   1      20.491  21.073   0.276  0.00  0.00    -0.235 N 
ATOM      4  HN  UNK N   1      20.200  20.529  -0.535  1.00  0.00     0.174 HD
HETATM    5  C   UNK N   1      20.624  20.503   1.414  0.00  0.00     0.663 C 
HETATM    6  H   UNK N   1      20.087  18.596   0.763  0.00  0.00     0.174 HD
HETATM    7  H   UNK N   1      20.471  18.683   2.423  0.00  0.00     0.174 HD
HETATM    8  H   UNK N   1      21.130  20.817   3.414  0.00  0.00     0.174 HD
HETATM    9  H   UNK N   1      21.207  22.219   2.447  0.00  0.00     0.174 HD
HETATM   10  H   UNK N   1      20.670  22.037   0.184  0.00  0.00     0.174 HD
ENDROOT
TORSDOF 0
ENDMDL
MODEL 4
REMARK VINA RESULT:      -2.8     23.414     24.301
REMARK  0 active torsions:
REMARK  status: ('A' for Active; 'I' for Inactive)
REMARK       I    between atoms: N_1  and  C_5 
REMARK       I    between atoms: N_2  and  C_5 
ROOT
HETATM    1  N   UNK N   1      43.259  21.313   3.847  0.00  0.00    -0.235 N 
HETATM    2  N   UNK N   1      45.484  22.271   4.176  0.00  0.00    -0.235 N 
HETATM    3  N   UNK N   1      43.583  23.615   4.028  0.00  0.00    -0.235 N 
ATOM      4  HN  UNK N   1      42.577  23.737   3.913  1.00  0.00     0.174 HD
HETATM    5  C   UNK N   1      44.091  22.441   4.018  0.00  0.00     0.663 C 
HETATM    6  H   UNK N   1      42.288  21.430   3.737  0.00  0.00     0.174 HD
HETATM    7  H   UNK N   1      43.650  20.409   3.839  0.00  0.00     0.174 HD
HETATM    8  H   UNK N   1      45.873  21.367   4.168  0.00  0.00     0.174 HD
HETATM    9  H   UNK N   1      46.063  23.057   4.295  0.00  0.00     0.174 HD
HETATM   10  H   UNK N   1      44.163  24.402   4.147  0.00  0.00     0.174 HD
ENDROOT
TORSDOF 0
ENDMDL
MODEL 5
REMARK VINA RESULT:      -2.6     27.106     27.986
REMARK  0 active torsions:
REMARK  status: ('A' for Active; 'I' for Inactive)
REMARK       I    between atoms: N_1  and  C_5 
REMARK       I    between atoms: N_2  and  C_5 
ROOT
HETATM    1  N   UNK N   1      45.762  24.123   2.721  0.00  0.00    -0.235 N 
HETATM    2  N   UNK N   1      45.494  26.513   2.281  0.00  0.00    -0.235 N 
HETATM    3  N   UNK N   1      47.458  25.380   1.730  0.00  0.00    -0.235 N 
ATOM      4  HN  UNK N   1      48.023  24.532   1.692  1.00  0.00     0.174 HD
HETATM    5  C   UNK N   1      46.279  25.340   2.227  0.00  0.00     0.663 C 
HETATM    6  H   UNK N   1      46.308  23.305   2.684  0.00  0.00     0.174 HD
HETATM    7  H   UNK N   1      44.854  24.093   3.103  0.00  0.00     0.174 HD
HETATM    8  H   UNK N   1      44.588  26.481   2.663  0.00  0.00     0.174 HD
HETATM    9  H   UNK N   1      45.855  27.361   1.937  0.00  0.00     0.174 HD
HETATM   10  H   UNK N   1      47.818  26.229   1.386  0.00  0.00     0.174 HD
ENDROOT
TORSDOF 0
ENDMDL
MODEL 6
REMARK VINA RESULT:      -2.6     27.264     28.078
REMARK  0 active torsions:
REMARK  status: ('A' for Active; 'I' for Inactive)
REMARK       I    between atoms: N_1  and  C_5 
REMARK       I    between atoms: N_2  and  C_5 
ROOT
HETATM    1  N   UNK N   1      47.577  25.642   1.606  0.00  0.00    -0.235 N 
HETATM    2  N   UNK N   1      45.902  24.256   2.723  0.00  0.00    -0.235 N 
HETATM    3  N   UNK N   1      45.509  26.506   2.248  0.00  0.00    -0.235 N 
ATOM      4  HN  UNK N   1      45.799  27.406   1.865  1.00  0.00     0.174 HD
HETATM    5  C   UNK N   1      46.302  25.503   2.194  0.00  0.00     0.663 C 
HETATM    6  H   UNK N   1      47.857  26.510   1.237  0.00  0.00     0.174 HD
HETATM    7  H   UNK N   1      48.187  24.869   1.565  0.00  0.00     0.174 HD
HETATM    8  H   UNK N   1      46.512  23.485   2.682  0.00  0.00     0.174 HD
HETATM    9  H   UNK N   1      45.012  24.160   3.133  0.00  0.00     0.174 HD
HETATM   10  H   UNK N   1      44.619  26.409   2.658  0.00  0.00     0.174 HD
ENDROOT
TORSDOF 0
ENDMDL
MODEL 7
REMARK VINA RESULT:      -2.6     24.644     25.097
REMARK  0 active torsions:
REMARK  status: ('A' for Active; 'I' for Inactive)
REMARK       I    between atoms: N_1  and  C_5 
REMARK       I    between atoms: N_2  and  C_5 
ROOT
HETATM    1  N   UNK N   1      44.722  22.314   1.991  0.00  0.00    -0.235 N 
HETATM    2  N   UNK N   1      43.650  23.603   3.769  0.00  0.00    -0.235 N 
HETATM    3  N   UNK N   1      45.568  22.334   4.164  0.00  0.00    -0.235 N 
ATOM      4  HN  UNK N   1      46.309  21.708   3.850  1.00  0.00     0.174 HD
HETATM    5  C   UNK N   1      44.677  22.736   3.336  0.00  0.00     0.663 C 
HETATM    6  H   UNK N   1      45.437  21.710   1.688  0.00  0.00     0.174 HD
HETATM    7  H   UNK N   1      44.036  22.623   1.354  0.00  0.00     0.174 HD
HETATM    8  H   UNK N   1      42.966  23.912   3.133  0.00  0.00     0.174 HD
HETATM    9  H   UNK N   1      43.619  23.898   4.707  0.00  0.00     0.174 HD
HETATM   10  H   UNK N   1      45.536  22.629   5.102  0.00  0.00     0.174 HD
ENDROOT
TORSDOF 0
ENDMDL
MODEL 8
REMARK VINA RESULT:      -2.6     23.652     24.278
REMARK  0 active torsions:
REMARK  status: ('A' for Active; 'I' for Inactive)
REMARK       I    between atoms: N_1  and  C_5 
REMARK       I    between atoms: N_2  and  C_5 
ROOT
HETATM    1  N   UNK N   1      45.727  22.199   4.119  0.00  0.00    -0.235 N 
HETATM    2  N   UNK N   1      43.648  23.117   5.019  0.00  0.00    -0.235 N 
HETATM    3  N   UNK N   1      43.671  21.166   3.741  0.00  0.00    -0.235 N 
ATOM      4  HN  UNK N   1      44.161  20.451   3.204  1.00  0.00     0.174 HD
HETATM    5  C   UNK N   1      44.326  22.127   4.275  0.00  0.00     0.663 C 
HETATM    6  H   UNK N   1      46.200  21.509   3.600  0.00  0.00     0.174 HD
HETATM    7  H   UNK N   1      46.231  22.939   4.530  0.00  0.00     0.174 HD
HETATM    8  H   UNK N   1      44.153  23.856   5.429  0.00  0.00     0.174 HD
HETATM    9  H   UNK N   1      42.672  23.068   5.128  0.00  0.00     0.174 HD
HETATM   10  H   UNK N   1      42.693  21.116   3.850  0.00  0.00     0.174 HD
ENDROOT
TORSDOF 0
ENDMDL
MODEL 9
REMARK VINA RESULT:      -2.6     24.696     25.326
REMARK  0 active torsions:
REMARK  status: ('A' for Active; 'I' for Inactive)
REMARK       I    between atoms: N_1  and  C_5 
REMARK       I    between atoms: N_2  and  C_5 
ROOT
HETATM    1  N   UNK N   1      45.085  23.308   1.949  0.00  0.00    -0.235 N 
HETATM    2  N   UNK N   1      45.524  22.295   4.130  0.00  0.00    -0.235 N 
HETATM    3  N   UNK N   1      43.639  23.617   3.752  0.00  0.00    -0.235 N 
ATOM      4  HN  UNK N   1      43.053  24.191   3.147  1.00  0.00     0.174 HD
HETATM    5  C   UNK N   1      44.712  23.092   3.293  0.00  0.00     0.663 C 
HETATM    6  H   UNK N   1      44.519  23.863   1.365  0.00  0.00     0.174 HD
HETATM    7  H   UNK N   1      45.911  22.904   1.596  0.00  0.00     0.174 HD
HETATM    8  H   UNK N   1      46.349  21.892   3.776  0.00  0.00     0.174 HD
HETATM    9  H   UNK N   1      45.264  22.144   5.066  0.00  0.00     0.174 HD
HETATM   10  H   UNK N   1      43.379  23.465   4.690  0.00  0.00     0.174 HD
ENDROOT
TORSDOF 0
ENDMDL
