MODEL 1
REMARK VINA RESULT:      -6.5      0.000      0.000
REMARK  8 active torsions:
REMARK  status: ('A' for Active; 'I' for Inactive)
REMARK    1  A    between atoms: C_2  and  C_1 
REMARK    2  A    between atoms: C_9  and  C_1 
REMARK    3  A    between atoms: C_16  and  C_2 
REMARK    4  A    between atoms: N_22  and  C_9 
REMARK    5  A    between atoms: C_17  and  C_11 
REMARK    6  A    between atoms: C_17  and  C_14 
REMARK    7  A    between atoms: O_24  and  C_15 
REMARK    8  A    between atoms: O_25  and  C_16 
ROOT
HETATM    1  C   UNK N   1      29.247  17.886   6.553  0.00  0.00     0.051 C 
HETATM    2  N   UNK N   1      29.527  17.867   7.824  0.00  0.00    -0.388 N 
ATOM      3  HN  UNK N   1      28.990  18.517   8.397  1.00  0.00     0.159 HD
ENDROOT
BRANCH   1   4
HETATM    4  C   UNK N   1      29.969  16.944   5.595  0.00  0.00    -0.009 A 
HETATM    5  C   UNK N   1      31.128  17.323   4.907  0.00  0.00     0.015 A 
HETATM    6  C   UNK N   1      31.785  16.449   4.035  0.00  0.00     0.024 A 
HETATM    7  C   UNK N   1      31.295  15.159   3.843  0.00  0.00     0.034 A 
HETATM    8  C   UNK N   1      30.153  14.745   4.526  0.00  0.00     0.024 A 
HETATM    9 Cl   UNK N   1      32.110  14.060   2.751  0.00  0.00    -0.084 Cl
HETATM   10  C   UNK N   1      29.504  15.628   5.391  0.00  0.00     0.015 A 
ENDBRANCH   1   4
BRANCH   1  11
HETATM   11  C   UNK N   1      28.199  18.936   6.181  0.00  0.00     0.027 A 
HETATM   12  C   UNK N   1      28.101  19.214   4.798  0.00  0.00     0.058 A 
HETATM   13  C   UNK N   1      27.214  20.152   4.282  0.00  0.00     0.117 A 
HETATM   14  C   UNK N   1      26.376  20.851   5.138  0.00  0.00     0.045 A 
HETATM   15  F   UNK N   1      27.176  20.383   2.948  0.00  0.00    -0.206 F 
HETATM   16  C   UNK N   1      26.445  20.620   6.509  0.00  0.00     0.040 A 
HETATM   17  C   UNK N   1      27.342  19.687   7.048  0.00  0.00     0.078 A 
BRANCH  17  18
HETATM   18  O   UNK N   1      27.370  19.571   8.377  0.00  0.00    -0.360 OA
HETATM   19  H   UNK N   1      26.640  19.847   8.895  0.00  0.00     0.217 HD
ENDBRANCH  17  18
ENDBRANCH   1  11
BRANCH   2  20
HETATM   20  C   UNK N   1      30.481  17.063   8.545  0.00  0.00     0.120 C 
BRANCH  20  21
HETATM   21  C   UNK N   1      31.795  17.831   8.660  0.00  0.00     0.027 C 
BRANCH  21  22
HETATM   22  C   UNK N   1      32.951  17.016   8.090  0.00  0.00     0.085 C 
BRANCH  22  23
HETATM   23  C   UNK N   1      34.045  17.896   7.601  0.00  0.00     0.108 C 
HETATM   24  N   UNK N   1      34.711  18.610   8.430  0.00  0.00    -0.384 N 
HETATM   25  H   UNK N   1      35.104  19.494   8.247  0.00  0.00     0.157 HD
ATOM     26  HN  UNK N   1      34.846  18.229   9.365  1.00  0.00     0.157 HD
BRANCH  23  27
HETATM   27  O   UNK N   1      34.367  17.904   6.294  0.00  0.00    -0.350 OA
HETATM   28  H   UNK N   1      34.106  18.516   5.635  0.00  0.00     0.219 HD
ENDBRANCH  23  27
ENDBRANCH  22  23
ENDBRANCH  21  22
ENDBRANCH  20  21
ENDBRANCH   2  20
TORSDOF 8
ENDMDL
MODEL 2
REMARK VINA RESULT:      -6.5      4.193      7.296
REMARK  8 active torsions:
REMARK  status: ('A' for Active; 'I' for Inactive)
REMARK    1  A    between atoms: C_2  and  C_1 
REMARK    2  A    between atoms: C_9  and  C_1 
REMARK    3  A    between atoms: C_16  and  C_2 
REMARK    4  A    between atoms: N_22  and  C_9 
REMARK    5  A    between atoms: C_17  and  C_11 
REMARK    6  A    between atoms: C_17  and  C_14 
REMARK    7  A    between atoms: O_24  and  C_15 
REMARK    8  A    between atoms: O_25  and  C_16 
ROOT
HETATM    1  C   UNK N   1      33.107  16.050   8.747  0.00  0.00     0.051 C 
HETATM    2  N   UNK N   1      31.990  16.349   9.345  0.00  0.00    -0.388 N 
ATOM      3  HN  UNK N   1      32.021  16.311  10.364  1.00  0.00     0.159 HD
ENDROOT
BRANCH   1   4
HETATM    4  C   UNK N   1      33.194  16.091   7.224  0.00  0.00    -0.009 A 
HETATM    5  C   UNK N   1      33.457  17.274   6.523  0.00  0.00     0.015 A 
HETATM    6  C   UNK N   1      33.541  17.299   5.128  0.00  0.00     0.024 A 
HETATM    7  C   UNK N   1      33.375  16.123   4.400  0.00  0.00     0.034 A 
HETATM    8  C   UNK N   1      33.130  14.925   5.068  0.00  0.00     0.024 A 
HETATM    9 Cl   UNK N   1      33.476  16.147   2.652  0.00  0.00    -0.084 Cl
HETATM   10  C   UNK N   1      33.044  14.914   6.462  0.00  0.00     0.015 A 
ENDBRANCH   1   4
BRANCH   1  11
HETATM   11  C   UNK N   1      34.221  15.646   9.712  0.00  0.00     0.027 A 
HETATM   12  C   UNK N   1      34.163  14.306  10.160  0.00  0.00     0.058 A 
HETATM   13  C   UNK N   1      35.085  13.773  11.054  0.00  0.00     0.117 A 
HETATM   14  C   UNK N   1      36.116  14.565  11.534  0.00  0.00     0.045 A 
HETATM   15  F   UNK N   1      34.968  12.484  11.455  0.00  0.00    -0.206 F 
HETATM   16  C   UNK N   1      36.208  15.894  11.130  0.00  0.00     0.040 A 
HETATM   17  C   UNK N   1      35.280  16.452  10.240  0.00  0.00     0.078 A 
BRANCH  17  18
HETATM   18  O   UNK N   1      35.421  17.748   9.951  0.00  0.00    -0.360 OA
HETATM   19  H   UNK N   1      36.196  18.210  10.201  0.00  0.00     0.217 HD
ENDBRANCH  17  18
ENDBRANCH   1  11
BRANCH   2  20
HETATM   20  C   UNK N   1      30.717  16.726   8.786  0.00  0.00     0.120 C 
BRANCH  20  21
HETATM   21  C   UNK N   1      30.569  18.243   8.858  0.00  0.00     0.027 C 
BRANCH  21  22
HETATM   22  C   UNK N   1      29.411  18.633   9.770  0.00  0.00     0.085 C 
BRANCH  22  23
HETATM   23  C   UNK N   1      28.100  18.345   9.133  0.00  0.00     0.108 C 
HETATM   24  N   UNK N   1      27.628  19.142   8.249  0.00  0.00    -0.384 N 
HETATM   25  H   UNK N   1      26.675  19.330   8.089  0.00  0.00     0.157 HD
ATOM     26  HN  UNK N   1      28.301  19.626   7.656  1.00  0.00     0.157 HD
BRANCH  23  27
HETATM   27  O   UNK N   1      27.433  17.219   9.450  0.00  0.00    -0.350 OA
HETATM   28  H   UNK N   1      26.569  17.135   9.802  0.00  0.00     0.219 HD
ENDBRANCH  23  27
ENDBRANCH  22  23
ENDBRANCH  21  22
ENDBRANCH  20  21
ENDBRANCH   2  20
TORSDOF 8
ENDMDL
MODEL 3
REMARK VINA RESULT:      -6.4      6.801      9.762
REMARK  8 active torsions:
REMARK  status: ('A' for Active; 'I' for Inactive)
REMARK    1  A    between atoms: C_2  and  C_1 
REMARK    2  A    between atoms: C_9  and  C_1 
REMARK    3  A    between atoms: C_16  and  C_2 
REMARK    4  A    between atoms: N_22  and  C_9 
REMARK    5  A    between atoms: C_17  and  C_11 
REMARK    6  A    between atoms: C_17  and  C_14 
REMARK    7  A    between atoms: O_24  and  C_15 
REMARK    8  A    between atoms: O_25  and  C_16 
ROOT
HETATM    1  C   UNK N   1      23.037  18.966   4.026  0.00  0.00     0.051 C 
HETATM    2  N   UNK N   1      22.261  19.786   3.378  0.00  0.00    -0.388 N 
ATOM      3  HN  UNK N   1      22.739  20.544   2.893  1.00  0.00     0.159 HD
ENDROOT
BRANCH   1   4
HETATM    4  C   UNK N   1      22.442  17.779   4.776  0.00  0.00    -0.009 A 
HETATM    5  C   UNK N   1      22.471  16.478   4.257  0.00  0.00     0.015 A 
HETATM    6  C   UNK N   1      21.927  15.395   4.955  0.00  0.00     0.024 A 
HETATM    7  C   UNK N   1      21.350  15.594   6.207  0.00  0.00     0.034 A 
HETATM    8  C   UNK N   1      21.322  16.873   6.760  0.00  0.00     0.024 A 
HETATM    9 Cl   UNK N   1      20.666  14.243   7.086  0.00  0.00    -0.084 Cl
HETATM   10  C   UNK N   1      21.864  17.947   6.051  0.00  0.00     0.015 A 
ENDBRANCH   1   4
BRANCH   1  11
HETATM   11  C   UNK N   1      24.514  19.357   3.964  0.00  0.00     0.027 A 
HETATM   12  C   UNK N   1      25.330  18.754   4.950  0.00  0.00     0.058 A 
HETATM   13  C   UNK N   1      26.693  19.008   5.053  0.00  0.00     0.117 A 
HETATM   14  C   UNK N   1      27.301  19.878   4.161  0.00  0.00     0.045 A 
HETATM   15  F   UNK N   1      27.419  18.408   6.027  0.00  0.00    -0.206 F 
HETATM   16  C   UNK N   1      26.536  20.504   3.181  0.00  0.00     0.040 A 
HETATM   17  C   UNK N   1      25.158  20.271   3.070  0.00  0.00     0.078 A 
BRANCH  17  18
HETATM   18  O   UNK N   1      24.501  20.956   2.132  0.00  0.00    -0.360 OA
HETATM   19  H   UNK N   1      24.487  20.655   1.245  0.00  0.00     0.217 HD
ENDBRANCH  17  18
ENDBRANCH   1  11
BRANCH   2  20
HETATM   20  C   UNK N   1      20.826  19.783   3.242  0.00  0.00     0.120 C 
BRANCH  20  21
HETATM   21  C   UNK N   1      20.452  19.150   1.905  0.00  0.00     0.027 C 
BRANCH  21  22
HETATM   22  C   UNK N   1      19.825  17.776   2.113  0.00  0.00     0.085 C 
BRANCH  22  23
HETATM   23  C   UNK N   1      19.835  16.981   0.857  0.00  0.00     0.108 C 
HETATM   24  N   UNK N   1      19.342  15.798   0.842  0.00  0.00    -0.384 N 
HETATM   25  H   UNK N   1      19.654  15.048   0.287  0.00  0.00     0.157 HD
ATOM     26  HN  UNK N   1      18.555  15.617   1.464  1.00  0.00     0.157 HD
BRANCH  23  27
HETATM   27  O   UNK N   1      20.316  17.524  -0.277  0.00  0.00    -0.350 OA
HETATM   28  H   UNK N   1      20.670  18.381  -0.406  0.00  0.00     0.219 HD
ENDBRANCH  23  27
ENDBRANCH  22  23
ENDBRANCH  21  22
ENDBRANCH  20  21
ENDBRANCH   2  20
TORSDOF 8
ENDMDL
MODEL 4
REMARK VINA RESULT:      -6.4      9.805     12.610
REMARK  8 active torsions:
REMARK  status: ('A' for Active; 'I' for Inactive)
REMARK    1  A    between atoms: C_2  and  C_1 
REMARK    2  A    between atoms: C_9  and  C_1 
REMARK    3  A    between atoms: C_16  and  C_2 
REMARK    4  A    between atoms: N_22  and  C_9 
REMARK    5  A    between atoms: C_17  and  C_11 
REMARK    6  A    between atoms: C_17  and  C_14 
REMARK    7  A    between atoms: O_24  and  C_15 
REMARK    8  A    between atoms: O_25  and  C_16 
ROOT
HETATM    1  C   UNK N   1      35.995  12.680  14.667  0.00  0.00     0.051 C 
HETATM    2  N   UNK N   1      35.507  13.233  13.594  0.00  0.00    -0.388 N 
ATOM      3  HN  UNK N   1      35.321  14.233  13.667  1.00  0.00     0.159 HD
ENDROOT
BRANCH   1   4
HETATM    4  C   UNK N   1      36.336  11.194  14.676  0.00  0.00    -0.009 A 
HETATM    5  C   UNK N   1      37.634  10.724  14.438  0.00  0.00     0.015 A 
HETATM    6  C   UNK N   1      37.936   9.359  14.454  0.00  0.00     0.024 A 
HETATM    7  C   UNK N   1      36.936   8.428  14.725  0.00  0.00     0.034 A 
HETATM    8  C   UNK N   1      35.638   8.863  14.984  0.00  0.00     0.024 A 
HETATM    9 Cl   UNK N   1      37.308   6.717  14.744  0.00  0.00    -0.084 Cl
HETATM   10  C   UNK N   1      35.347  10.229  14.960  0.00  0.00     0.015 A 
ENDBRANCH   1   4
BRANCH   1  11
HETATM   11  C   UNK N   1      36.130  13.652  15.839  0.00  0.00     0.027 A 
HETATM   12  C   UNK N   1      35.413  13.285  17.002  0.00  0.00     0.058 A 
HETATM   13  C   UNK N   1      35.408  14.059  18.156  0.00  0.00     0.117 A 
HETATM   14  C   UNK N   1      36.133  15.240  18.196  0.00  0.00     0.045 A 
HETATM   15  F   UNK N   1      34.692  13.659  19.235  0.00  0.00    -0.206 F 
HETATM   16  C   UNK N   1      36.845  15.649  17.072  0.00  0.00     0.040 A 
HETATM   17  C   UNK N   1      36.851  14.888  15.895  0.00  0.00     0.078 A 
BRANCH  17  18
HETATM   18  O   UNK N   1      37.520  15.387  14.854  0.00  0.00    -0.360 OA
HETATM   19  H   UNK N   1      37.230  15.225  13.979  0.00  0.00     0.217 HD
ENDBRANCH  17  18
ENDBRANCH   1  11
BRANCH   2  20
HETATM   20  C   UNK N   1      35.193  12.645  12.316  0.00  0.00     0.120 C 
BRANCH  20  21
HETATM   21  C   UNK N   1      35.556  13.631  11.210  0.00  0.00     0.027 C 
BRANCH  21  22
HETATM   22  C   UNK N   1      34.816  14.951  11.395  0.00  0.00     0.085 C 
BRANCH  22  23
HETATM   23  C   UNK N   1      35.631  16.101  10.923  0.00  0.00     0.108 C 
HETATM   24  N   UNK N   1      35.060  17.194  10.578  0.00  0.00    -0.384 N 
HETATM   25  H   UNK N   1      35.371  17.815   9.880  0.00  0.00     0.157 HD
ATOM     26  HN  UNK N   1      34.203  17.443  11.070  1.00  0.00     0.157 HD
BRANCH  23  27
HETATM   27  O   UNK N   1      36.974  16.008  10.905  0.00  0.00    -0.350 OA
HETATM   28  H   UNK N   1      37.504  15.288  10.625  0.00  0.00     0.219 HD
ENDBRANCH  23  27
ENDBRANCH  22  23
ENDBRANCH  21  22
ENDBRANCH  20  21
ENDBRANCH   2  20
TORSDOF 8
ENDMDL
MODEL 5
REMARK VINA RESULT:      -6.4     12.042     14.450
REMARK  8 active torsions:
REMARK  status: ('A' for Active; 'I' for Inactive)
REMARK    1  A    between atoms: C_2  and  C_1 
REMARK    2  A    between atoms: C_9  and  C_1 
REMARK    3  A    between atoms: C_16  and  C_2 
REMARK    4  A    between atoms: N_22  and  C_9 
REMARK    5  A    between atoms: C_17  and  C_11 
REMARK    6  A    between atoms: C_17  and  C_14 
REMARK    7  A    between atoms: O_24  and  C_15 
REMARK    8  A    between atoms: O_25  and  C_16 
ROOT
HETATM    1  C   UNK N   1      27.058  24.097  -5.756  0.00  0.00     0.051 C 
HETATM    2  N   UNK N   1      26.502  25.257  -5.557  0.00  0.00    -0.388 N 
ATOM      3  HN  UNK N   1      26.788  25.735  -4.703  1.00  0.00     0.159 HD
ENDROOT
BRANCH   1   4
HETATM    4  C   UNK N   1      26.727  23.293  -7.008  0.00  0.00    -0.009 A 
HETATM    5  C   UNK N   1      27.467  23.415  -8.192  0.00  0.00     0.015 A 
HETATM    6  C   UNK N   1      27.157  22.669  -9.333  0.00  0.00     0.024 A 
HETATM    7  C   UNK N   1      26.097  21.765  -9.307  0.00  0.00     0.034 A 
HETATM    8  C   UNK N   1      25.352  21.607  -8.140  0.00  0.00     0.024 A 
HETATM    9 Cl   UNK N   1      25.702  20.830 -10.733  0.00  0.00    -0.084 Cl
HETATM   10  C   UNK N   1      25.668  22.362  -7.008  0.00  0.00     0.015 A 
ENDBRANCH   1   4
BRANCH   1  11
HETATM   11  C   UNK N   1      27.992  23.673  -4.622  0.00  0.00     0.027 A 
HETATM   12  C   UNK N   1      29.171  23.011  -5.038  0.00  0.00     0.058 A 
HETATM   13  C   UNK N   1      30.123  22.541  -4.142  0.00  0.00     0.117 A 
HETATM   14  C   UNK N   1      29.937  22.722  -2.780  0.00  0.00     0.045 A 
HETATM   15  F   UNK N   1      31.227  21.903  -4.603  0.00  0.00    -0.206 F 
HETATM   16  C   UNK N   1      28.787  23.358  -2.322  0.00  0.00     0.040 A 
HETATM   17  C   UNK N   1      27.809  23.827  -3.210  0.00  0.00     0.078 A 
BRANCH  17  18
HETATM   18  O   UNK N   1      26.717  24.378  -2.674  0.00  0.00    -0.360 OA
HETATM   19  H   UNK N   1      26.600  25.307  -2.682  0.00  0.00     0.217 HD
ENDBRANCH  17  18
ENDBRANCH   1  11
BRANCH   2  20
HETATM   20  C   UNK N   1      25.541  25.969  -6.361  0.00  0.00     0.120 C 
BRANCH  20  21
HETATM   21  C   UNK N   1      24.951  27.111  -5.540  0.00  0.00     0.027 C 
BRANCH  21  22
HETATM   22  C   UNK N   1      26.039  28.091  -5.114  0.00  0.00     0.085 C 
BRANCH  22  23
HETATM   23  C   UNK N   1      25.965  28.381  -3.658  0.00  0.00     0.108 C 
HETATM   24  N   UNK N   1      25.909  27.419  -2.814  0.00  0.00    -0.384 N 
HETATM   25  H   UNK N   1      25.438  27.434  -1.950  0.00  0.00     0.157 HD
ATOM     26  HN  UNK N   1      26.396  26.558  -3.061  1.00  0.00     0.157 HD
BRANCH  23  27
HETATM   27  O   UNK N   1      26.009  29.655  -3.225  0.00  0.00    -0.350 OA
HETATM   28  H   UNK N   1      26.615  30.329  -3.461  0.00  0.00     0.219 HD
ENDBRANCH  23  27
ENDBRANCH  22  23
ENDBRANCH  21  22
ENDBRANCH  20  21
ENDBRANCH   2  20
TORSDOF 8
ENDMDL
MODEL 6
REMARK VINA RESULT:      -6.4      6.651      9.637
REMARK  8 active torsions:
REMARK  status: ('A' for Active; 'I' for Inactive)
REMARK    1  A    between atoms: C_2  and  C_1 
REMARK    2  A    between atoms: C_9  and  C_1 
REMARK    3  A    between atoms: C_16  and  C_2 
REMARK    4  A    between atoms: N_22  and  C_9 
REMARK    5  A    between atoms: C_17  and  C_11 
REMARK    6  A    between atoms: C_17  and  C_14 
REMARK    7  A    between atoms: O_24  and  C_15 
REMARK    8  A    between atoms: O_25  and  C_16 
ROOT
HETATM    1  C   UNK N   1      22.945  17.824   4.378  0.00  0.00     0.051 C 
HETATM    2  N   UNK N   1      22.308  17.857   3.244  0.00  0.00    -0.388 N 
ATOM      3  HN  UNK N   1      22.812  18.299   2.476  1.00  0.00     0.159 HD
ENDROOT
BRANCH   1   4
HETATM    4  C   UNK N   1      22.304  17.170   5.598  0.00  0.00    -0.009 A 
HETATM    5  C   UNK N   1      21.324  17.815   6.363  0.00  0.00     0.015 A 
HETATM    6  C   UNK N   1      20.739  17.203   7.476  0.00  0.00     0.024 A 
HETATM    7  C   UNK N   1      21.119  15.914   7.841  0.00  0.00     0.034 A 
HETATM    8  C   UNK N   1      22.079  15.238   7.091  0.00  0.00     0.024 A 
HETATM    9 Cl   UNK N   1      20.393  15.143   9.236  0.00  0.00    -0.084 Cl
HETATM   10  C   UNK N   1      22.659  15.861   5.984  0.00  0.00     0.015 A 
ENDBRANCH   1   4
BRANCH   1  11
HETATM   11  C   UNK N   1      24.307  18.516   4.326  0.00  0.00     0.027 A 
HETATM   12  C   UNK N   1      25.373  17.773   4.887  0.00  0.00     0.058 A 
HETATM   13  C   UNK N   1      26.676  18.255   4.941  0.00  0.00     0.117 A 
HETATM   14  C   UNK N   1      26.969  19.508   4.424  0.00  0.00     0.045 A 
HETATM   15  F   UNK N   1      27.651  17.501   5.502  0.00  0.00    -0.206 F 
HETATM   16  C   UNK N   1      25.951  20.280   3.872  0.00  0.00     0.040 A 
HETATM   17  C   UNK N   1      24.629  19.816   3.821  0.00  0.00     0.078 A 
BRANCH  17  18
HETATM   18  O   UNK N   1      23.714  20.648   3.320  0.00  0.00    -0.360 OA
HETATM   19  H   UNK N   1      23.167  21.154   3.888  0.00  0.00     0.217 HD
ENDBRANCH  17  18
ENDBRANCH   1  11
BRANCH   2  20
HETATM   20  C   UNK N   1      20.996  17.361   2.908  0.00  0.00     0.120 C 
BRANCH  20  21
HETATM   21  C   UNK N   1      20.331  18.330   1.935  0.00  0.00     0.027 C 
BRANCH  21  22
HETATM   22  C   UNK N   1      20.053  19.670   2.608  0.00  0.00     0.085 C 
BRANCH  22  23
HETATM   23  C   UNK N   1      20.653  20.794   1.844  0.00  0.00     0.108 C 
HETATM   24  N   UNK N   1      20.449  20.893   0.583  0.00  0.00    -0.384 N 
HETATM   25  H   UNK N   1      21.079  21.262  -0.078  0.00  0.00     0.157 HD
ATOM     26  HN  UNK N   1      19.553  20.559   0.232  1.00  0.00     0.157 HD
BRANCH  23  27
HETATM   27  O   UNK N   1      21.368  21.736   2.486  0.00  0.00    -0.350 OA
HETATM   28  H   UNK N   1      21.086  22.320   3.163  0.00  0.00     0.219 HD
ENDBRANCH  23  27
ENDBRANCH  22  23
ENDBRANCH  21  22
ENDBRANCH  20  21
ENDBRANCH   2  20
TORSDOF 8
ENDMDL
MODEL 7
REMARK VINA RESULT:      -6.3      3.007      4.031
REMARK  8 active torsions:
REMARK  status: ('A' for Active; 'I' for Inactive)
REMARK    1  A    between atoms: C_2  and  C_1 
REMARK    2  A    between atoms: C_9  and  C_1 
REMARK    3  A    between atoms: C_16  and  C_2 
REMARK    4  A    between atoms: N_22  and  C_9 
REMARK    5  A    between atoms: C_17  and  C_11 
REMARK    6  A    between atoms: C_17  and  C_14 
REMARK    7  A    between atoms: O_24  and  C_15 
REMARK    8  A    between atoms: O_25  and  C_16 
ROOT
HETATM    1  C   UNK N   1      32.063  17.144   8.038  0.00  0.00     0.051 C 
HETATM    2  N   UNK N   1      32.947  17.547   8.904  0.00  0.00    -0.388 N 
ATOM      3  HN  UNK N   1      32.565  17.907   9.779  1.00  0.00     0.159 HD
ENDROOT
BRANCH   1   4
HETATM    4  C   UNK N   1      32.511  16.566   6.699  0.00  0.00    -0.009 A 
HETATM    5  C   UNK N   1      32.673  15.189   6.498  0.00  0.00     0.015 A 
HETATM    6  C   UNK N   1      33.078  14.669   5.265  0.00  0.00     0.024 A 
HETATM    7  C   UNK N   1      33.318  15.526   4.193  0.00  0.00     0.034 A 
HETATM    8  C   UNK N   1      33.150  16.899   4.356  0.00  0.00     0.024 A 
HETATM    9 Cl   UNK N   1      33.829  14.881   2.648  0.00  0.00    -0.084 Cl
HETATM   10  C   UNK N   1      32.748  17.407   5.593  0.00  0.00     0.015 A 
ENDBRANCH   1   4
BRANCH   1  11
HETATM   11  C   UNK N   1      30.622  17.354   8.503  0.00  0.00     0.027 A 
HETATM   12  C   UNK N   1      29.876  18.275   7.730  0.00  0.00     0.058 A 
HETATM   13  C   UNK N   1      28.556  18.600   8.019  0.00  0.00     0.117 A 
HETATM   14  C   UNK N   1      27.920  18.005   9.098  0.00  0.00     0.045 A 
HETATM   15  F   UNK N   1      27.898  19.499   7.248  0.00  0.00    -0.206 F 
HETATM   16  C   UNK N   1      28.617  17.102   9.895  0.00  0.00     0.040 A 
HETATM   17  C   UNK N   1      29.954  16.772   9.627  0.00  0.00     0.078 A 
BRANCH  17  18
HETATM   18  O   UNK N   1      30.553  15.935  10.476  0.00  0.00    -0.360 OA
HETATM   19  H   UNK N   1      31.407  16.125  10.810  0.00  0.00     0.217 HD
ENDBRANCH  17  18
ENDBRANCH   1  11
BRANCH   2  20
HETATM   20  C   UNK N   1      34.386  17.560   8.816  0.00  0.00     0.120 C 
BRANCH  20  21
HETATM   21  C   UNK N   1      34.962  16.679   9.919  0.00  0.00     0.027 C 
BRANCH  21  22
HETATM   22  C   UNK N   1      34.987  15.216   9.488  0.00  0.00     0.085 C 
BRANCH  22  23
HETATM   23  C   UNK N   1      33.967  14.419  10.220  0.00  0.00     0.108 C 
HETATM   24  N   UNK N   1      33.971  13.141  10.136  0.00  0.00    -0.384 N 
HETATM   25  H   UNK N   1      33.180  12.556  10.170  0.00  0.00     0.157 HD
ATOM     26  HN  UNK N   1      34.877  12.688  10.023  1.00  0.00     0.157 HD
BRANCH  23  27
HETATM   27  O   UNK N   1      33.071  15.040  11.010  0.00  0.00    -0.350 OA
HETATM   28  H   UNK N   1      33.200  15.394  11.868  0.00  0.00     0.219 HD
ENDBRANCH  23  27
ENDBRANCH  22  23
ENDBRANCH  21  22
ENDBRANCH  20  21
ENDBRANCH   2  20
TORSDOF 8
ENDMDL
MODEL 8
REMARK VINA RESULT:      -6.3     14.964     17.106
REMARK  8 active torsions:
REMARK  status: ('A' for Active; 'I' for Inactive)
REMARK    1  A    between atoms: C_2  and  C_1 
REMARK    2  A    between atoms: C_9  and  C_1 
REMARK    3  A    between atoms: C_16  and  C_2 
REMARK    4  A    between atoms: N_22  and  C_9 
REMARK    5  A    between atoms: C_17  and  C_11 
REMARK    6  A    between atoms: C_17  and  C_14 
REMARK    7  A    between atoms: O_24  and  C_15 
REMARK    8  A    between atoms: O_25  and  C_16 
ROOT
HETATM    1  C   UNK N   1      34.976  10.090  20.021  0.00  0.00     0.051 C 
HETATM    2  N   UNK N   1      35.713  10.174  21.091  0.00  0.00    -0.388 N 
ATOM      3  HN  UNK N   1      36.242  11.040  21.186  1.00  0.00     0.159 HD
ENDROOT
BRANCH   1   4
HETATM    4  C   UNK N   1      34.121   8.851  19.775  0.00  0.00    -0.009 A 
HETATM    5  C   UNK N   1      34.658   7.663  19.262  0.00  0.00     0.015 A 
HETATM    6  C   UNK N   1      33.866   6.531  19.046  0.00  0.00     0.024 A 
HETATM    7  C   UNK N   1      32.508   6.563  19.356  0.00  0.00     0.034 A 
HETATM    8  C   UNK N   1      31.946   7.723  19.884  0.00  0.00     0.024 A 
HETATM    9 Cl   UNK N   1      31.510   5.150  19.085  0.00  0.00    -0.084 Cl
HETATM   10  C   UNK N   1      32.747   8.849  20.091  0.00  0.00     0.015 A 
ENDBRANCH   1   4
BRANCH   1  11
HETATM   11  C   UNK N   1      35.109  11.301  19.098  0.00  0.00     0.027 A 
HETATM   12  C   UNK N   1      35.435  10.994  17.756  0.00  0.00     0.058 A 
HETATM   13  C   UNK N   1      35.612  11.972  16.784  0.00  0.00     0.117 A 
HETATM   14  C   UNK N   1      35.461  13.309  17.118  0.00  0.00     0.045 A 
HETATM   15  F   UNK N   1      35.935  11.614  15.518  0.00  0.00    -0.206 F 
HETATM   16  C   UNK N   1      35.152  13.661  18.428  0.00  0.00     0.040 A 
HETATM   17  C   UNK N   1      34.983  12.689  19.425  0.00  0.00     0.078 A 
BRANCH  17  18
HETATM   18  O   UNK N   1      34.739  13.126  20.662  0.00  0.00    -0.360 OA
HETATM   19  H   UNK N   1      34.338  13.961  20.802  0.00  0.00     0.217 HD
ENDBRANCH  17  18
ENDBRANCH   1  11
BRANCH   2  20
HETATM   20  C   UNK N   1      35.894   9.228  22.162  0.00  0.00     0.120 C 
BRANCH  20  21
HETATM   21  C   UNK N   1      35.244   9.777  23.429  0.00  0.00     0.027 C 
BRANCH  21  22
HETATM   22  C   UNK N   1      33.786   9.339  23.524  0.00  0.00     0.085 C 
BRANCH  22  23
HETATM   23  C   UNK N   1      32.867  10.507  23.492  0.00  0.00     0.108 C 
HETATM   24  N   UNK N   1      31.970  10.642  24.396  0.00  0.00    -0.384 N 
HETATM   25  H   UNK N   1      31.083  11.052  24.275  0.00  0.00     0.157 HD
ATOM     26  HN  UNK N   1      32.195  10.292  25.327  1.00  0.00     0.157 HD
BRANCH  23  27
HETATM   27  O   UNK N   1      33.012  11.449  22.541  0.00  0.00    -0.350 OA
HETATM   28  H   UNK N   1      33.132  12.372  22.650  0.00  0.00     0.219 HD
ENDBRANCH  23  27
ENDBRANCH  22  23
ENDBRANCH  21  22
ENDBRANCH  20  21
ENDBRANCH   2  20
TORSDOF 8
ENDMDL
MODEL 9
REMARK VINA RESULT:      -6.2      3.614      6.670
REMARK  8 active torsions:
REMARK  status: ('A' for Active; 'I' for Inactive)
REMARK    1  A    between atoms: C_2  and  C_1 
REMARK    2  A    between atoms: C_9  and  C_1 
REMARK    3  A    between atoms: C_16  and  C_2 
REMARK    4  A    between atoms: N_22  and  C_9 
REMARK    5  A    between atoms: C_17  and  C_11 
REMARK    6  A    between atoms: C_17  and  C_14 
REMARK    7  A    between atoms: O_24  and  C_15 
REMARK    8  A    between atoms: O_25  and  C_16 
ROOT
HETATM    1  C   UNK N   1      32.348  16.884   8.220  0.00  0.00     0.051 C 
HETATM    2  N   UNK N   1      31.903  17.797   9.033  0.00  0.00    -0.388 N 
ATOM      3  HN  UNK N   1      32.367  17.833   9.941  1.00  0.00     0.159 HD
ENDROOT
BRANCH   1   4
HETATM    4  C   UNK N   1      31.750  16.744   6.824  0.00  0.00    -0.009 A 
HETATM    5  C   UNK N   1      30.563  16.038   6.587  0.00  0.00     0.015 A 
HETATM    6  C   UNK N   1      30.021  15.920   5.304  0.00  0.00     0.024 A 
HETATM    7  C   UNK N   1      30.655  16.527   4.222  0.00  0.00     0.034 A 
HETATM    8  C   UNK N   1      31.827  17.251   4.426  0.00  0.00     0.024 A 
HETATM    9 Cl   UNK N   1      29.982  16.381   2.612  0.00  0.00    -0.084 Cl
HETATM   10  C   UNK N   1      32.362  17.358   5.712  0.00  0.00     0.015 A 
ENDBRANCH   1   4
BRANCH   1  11
HETATM   11  C   UNK N   1      33.447  16.014   8.831  0.00  0.00     0.027 A 
HETATM   12  C   UNK N   1      33.155  14.630   8.873  0.00  0.00     0.058 A 
HETATM   13  C   UNK N   1      34.031  13.695   9.410  0.00  0.00     0.117 A 
HETATM   14  C   UNK N   1      35.251  14.109   9.924  0.00  0.00     0.045 A 
HETATM   15  F   UNK N   1      33.689  12.384   9.434  0.00  0.00    -0.206 F 
HETATM   16  C   UNK N   1      35.578  15.462   9.915  0.00  0.00     0.040 A 
HETATM   17  C   UNK N   1      34.700  16.421   9.389  0.00  0.00     0.078 A 
BRANCH  17  18
HETATM   18  O   UNK N   1      35.080  17.698   9.470  0.00  0.00    -0.360 OA
HETATM   19  H   UNK N   1      35.105  18.136  10.298  0.00  0.00     0.217 HD
ENDBRANCH  17  18
ENDBRANCH   1  11
BRANCH   2  20
HETATM   20  C   UNK N   1      30.853  18.767   8.846  0.00  0.00     0.120 C 
BRANCH  20  21
HETATM   21  C   UNK N   1      29.813  18.596   9.948  0.00  0.00     0.027 C 
BRANCH  21  22
HETATM   22  C   UNK N   1      28.923  17.389   9.672  0.00  0.00     0.085 C 
BRANCH  22  23
HETATM   23  C   UNK N   1      27.817  17.733   8.739  0.00  0.00     0.108 C 
HETATM   24  N   UNK N   1      27.277  16.821   8.021  0.00  0.00    -0.384 N 
HETATM   25  H   UNK N   1      26.901  16.941   7.119  0.00  0.00     0.157 HD
ATOM     26  HN  UNK N   1      27.232  15.884   8.421  1.00  0.00     0.157 HD
BRANCH  23  27
HETATM   27  O   UNK N   1      27.352  18.995   8.688  0.00  0.00    -0.350 OA
HETATM   28  H   UNK N   1      27.828  19.784   8.517  0.00  0.00     0.219 HD
ENDBRANCH  23  27
ENDBRANCH  22  23
ENDBRANCH  21  22
ENDBRANCH  20  21
ENDBRANCH   2  20
TORSDOF 8
ENDMDL
