MODEL 1
REMARK VINA RESULT:      -0.8      0.000      0.000
REMARK  8 active torsions:
REMARK  status: ('A' for Active; 'I' for Inactive)
REMARK    1  A    between atoms: C_15  and  O_1 
REMARK    2  A    between atoms: O_1  and  C_2 
REMARK    3  A    between atoms: C_2  and  C_3 
REMARK    4  A    between atoms: C_3  and  C_7 
REMARK    5  A    between atoms: C_3  and  C_9 
REMARK    6  A    between atoms: C_9  and  O_10 
REMARK    7  A    between atoms: N_21  and  C_19 
REMARK    8  A    between atoms: Br_25  and  Br_25 
ROOT
HETATM    1 Br   UNK N   1      40.963  21.863  20.945  0.00  0.00     0.000 Br
ENDROOT
TORSDOF 8
ENDMDL
MODEL 2
REMARK VINA RESULT:      -0.8     40.021     40.021
REMARK  8 active torsions:
REMARK  status: ('A' for Active; 'I' for Inactive)
REMARK    1  A    between atoms: C_15  and  O_1 
REMARK    2  A    between atoms: O_1  and  C_2 
REMARK    3  A    between atoms: C_2  and  C_3 
REMARK    4  A    between atoms: C_3  and  C_7 
REMARK    5  A    between atoms: C_3  and  C_9 
REMARK    6  A    between atoms: C_9  and  O_10 
REMARK    7  A    between atoms: N_21  and  C_19 
REMARK    8  A    between atoms: Br_25  and  Br_25 
ROOT
HETATM    1 Br   UNK N   1      18.864  27.442 -11.952  0.00  0.00     0.000 Br
ENDROOT
TORSDOF 8
ENDMDL
MODEL 3
REMARK VINA RESULT:      -0.8     31.481     31.481
REMARK  8 active torsions:
REMARK  status: ('A' for Active; 'I' for Inactive)
REMARK    1  A    between atoms: C_15  and  O_1 
REMARK    2  A    between atoms: O_1  and  C_2 
REMARK    3  A    between atoms: C_2  and  C_3 
REMARK    4  A    between atoms: C_3  and  C_7 
REMARK    5  A    between atoms: C_3  and  C_9 
REMARK    6  A    between atoms: C_9  and  O_10 
REMARK    7  A    between atoms: N_21  and  C_19 
REMARK    8  A    between atoms: Br_25  and  Br_25 
ROOT
HETATM    1 Br   UNK N   1      24.939  27.052  -5.651  0.00  0.00     0.000 Br
ENDROOT
TORSDOF 8
ENDMDL
MODEL 4
REMARK VINA RESULT:      -0.8     17.449     17.449
REMARK  8 active torsions:
REMARK  status: ('A' for Active; 'I' for Inactive)
REMARK    1  A    between atoms: C_15  and  O_1 
REMARK    2  A    between atoms: O_1  and  C_2 
REMARK    3  A    between atoms: C_2  and  C_3 
REMARK    4  A    between atoms: C_3  and  C_7 
REMARK    5  A    between atoms: C_3  and  C_9 
REMARK    6  A    between atoms: C_9  and  O_10 
REMARK    7  A    between atoms: N_21  and  C_19 
REMARK    8  A    between atoms: Br_25  and  Br_25 
ROOT
HETATM    1 Br   UNK N   1      30.715   7.763  20.144  0.00  0.00     0.000 Br
ENDROOT
TORSDOF 8
ENDMDL
MODEL 5
REMARK VINA RESULT:      -0.8     14.644     14.644
REMARK  8 active torsions:
REMARK  status: ('A' for Active; 'I' for Inactive)
REMARK    1  A    between atoms: C_15  and  O_1 
REMARK    2  A    between atoms: O_1  and  C_2 
REMARK    3  A    between atoms: C_2  and  C_3 
REMARK    4  A    between atoms: C_3  and  C_7 
REMARK    5  A    between atoms: C_3  and  C_9 
REMARK    6  A    between atoms: C_9  and  O_10 
REMARK    7  A    between atoms: N_21  and  C_19 
REMARK    8  A    between atoms: Br_25  and  Br_25 
ROOT
HETATM    1 Br   UNK N   1      33.792  10.781  14.603  0.00  0.00     0.000 Br
ENDROOT
TORSDOF 8
ENDMDL
MODEL 6
REMARK VINA RESULT:      -0.8     20.235     20.235
REMARK  8 active torsions:
REMARK  status: ('A' for Active; 'I' for Inactive)
REMARK    1  A    between atoms: C_15  and  O_1 
REMARK    2  A    between atoms: O_1  and  C_2 
REMARK    3  A    between atoms: C_2  and  C_3 
REMARK    4  A    between atoms: C_3  and  C_7 
REMARK    5  A    between atoms: C_3  and  C_9 
REMARK    6  A    between atoms: C_9  and  O_10 
REMARK    7  A    between atoms: N_21  and  C_19 
REMARK    8  A    between atoms: Br_25  and  Br_25 
ROOT
HETATM    1 Br   UNK N   1      27.062  21.453   6.247  0.00  0.00     0.000 Br
ENDROOT
TORSDOF 8
ENDMDL
MODEL 7
REMARK VINA RESULT:      -0.7     11.048     11.048
REMARK  8 active torsions:
REMARK  status: ('A' for Active; 'I' for Inactive)
REMARK    1  A    between atoms: C_15  and  O_1 
REMARK    2  A    between atoms: O_1  and  C_2 
REMARK    3  A    between atoms: C_2  and  C_3 
REMARK    4  A    between atoms: C_3  and  C_7 
REMARK    5  A    between atoms: C_3  and  C_9 
REMARK    6  A    between atoms: C_9  and  O_10 
REMARK    7  A    between atoms: N_21  and  C_19 
REMARK    8  A    between atoms: Br_25  and  Br_25 
ROOT
HETATM    1 Br   UNK N   1      35.074  13.231  17.357  0.00  0.00     0.000 Br
ENDROOT
TORSDOF 8
ENDMDL
MODEL 8
REMARK VINA RESULT:      -0.7      8.568      8.568
REMARK  8 active torsions:
REMARK  status: ('A' for Active; 'I' for Inactive)
REMARK    1  A    between atoms: C_15  and  O_1 
REMARK    2  A    between atoms: O_1  and  C_2 
REMARK    3  A    between atoms: C_2  and  C_3 
REMARK    4  A    between atoms: C_3  and  C_7 
REMARK    5  A    between atoms: C_3  and  C_9 
REMARK    6  A    between atoms: C_9  and  O_10 
REMARK    7  A    between atoms: N_21  and  C_19 
REMARK    8  A    between atoms: Br_25  and  Br_25 
ROOT
HETATM    1 Br   UNK N   1      37.390  15.758  16.111  0.00  0.00     0.000 Br
ENDROOT
TORSDOF 8
ENDMDL
MODEL 9
REMARK VINA RESULT:      -0.7     29.740     29.740
REMARK  8 active torsions:
REMARK  status: ('A' for Active; 'I' for Inactive)
REMARK    1  A    between atoms: C_15  and  O_1 
REMARK    2  A    between atoms: O_1  and  C_2 
REMARK    3  A    between atoms: C_2  and  C_3 
REMARK    4  A    between atoms: C_3  and  C_7 
REMARK    5  A    between atoms: C_3  and  C_9 
REMARK    6  A    between atoms: C_9  and  O_10 
REMARK    7  A    between atoms: N_21  and  C_19 
REMARK    8  A    between atoms: Br_25  and  Br_25 
ROOT
HETATM    1 Br   UNK N   1      25.756  28.029  -3.857  0.00  0.00     0.000 Br
ENDROOT
TORSDOF 8
ENDMDL
