REMARK  5 active torsions:
REMARK  status: ('A' for Active; 'I' for Inactive)
REMARK    1  A    between atoms: C_1  and  C_2 
REMARK    2  A    between atoms: C_2  and  C_5 
REMARK    3  A    between atoms: C_5  and  N_8 
REMARK    4  A    between atoms: N_8  and  C_11 
REMARK    5  A    between atoms: C_11  and  C_13 
ROOT
HETATM    1  C   UNK N   1       5.041  -4.352   0.206  0.00  0.00     0.223 C 
HETATM    2  C   UNK N   1       6.030  -5.489   0.431  0.00  0.00     0.043 C 
ENDROOT
BRANCH   1   3
HETATM    3  C   UNK N   1       4.122  -4.799  -0.928  0.00  0.00     0.074 C 
BRANCH   3   4
HETATM    4  C   UNK N   1       2.702  -4.808  -0.473  0.00  0.00    -0.056 A 
HETATM    5  C   UNK N   1       2.063  -6.027  -0.230  0.00  0.00     0.007 A 
HETATM    6  C   UNK N   1       0.735  -6.045   0.208  0.00  0.00     0.001 A 
HETATM    7  C   UNK N   1       0.044  -4.844   0.394  0.00  0.00     0.000 A 
HETATM    8  C   UNK N   1       0.679  -3.625   0.142  0.00  0.00     0.001 A 
HETATM    9  C   UNK N   1       2.008  -3.606  -0.290  0.00  0.00     0.007 A 
ENDBRANCH   3   4
ENDBRANCH   1   3
BRANCH   1  10
HETATM   10  N   UNK N   1       5.732  -3.101  -0.139  0.00  0.00     0.092 N 
HETATM   11  C   UNK N   1       4.752  -2.027  -0.230  0.00  0.00     0.310 C 
BRANCH  10  12
HETATM   12  C   UNK N   1       6.630  -2.704   0.940  0.00  0.00     0.311 C 
BRANCH  12  13
HETATM   13  C   UNK N   1       8.034  -2.683   0.438  0.00  0.00    -0.030 A 
HETATM   14  C   UNK N   1       8.736  -3.879   0.259  0.00  0.00     0.009 A 
HETATM   15  C   UNK N   1      10.045  -3.856  -0.232  0.00  0.00     0.001 A 
HETATM   16  C   UNK N   1      10.649  -2.636  -0.550  0.00  0.00     0.000 A 
HETATM   17  C   UNK N   1       9.948  -1.440  -0.371  0.00  0.00     0.001 A 
HETATM   18  C   UNK N   1       8.640  -1.463   0.126  0.00  0.00     0.009 A 
ENDBRANCH  12  13
ENDBRANCH  10  12
ENDBRANCH   1  10
TORSDOF 5
