MODEL 1
REMARK VINA RESULT:      -7.6      0.000      0.000
REMARK  5 active torsions:
REMARK  status: ('A' for Active; 'I' for Inactive)
REMARK    1  A    between atoms: C_12  and  O_21 
REMARK    2  A    between atoms: C_15  and  C_22 
REMARK    3  A    between atoms: C_15  and  O_23 
REMARK    4  A    between atoms: C_22  and  O_24 
REMARK    5  A    between atoms: O_24  and  C_26 
ROOT
HETATM    1  C   UNK N   1      35.324  13.107  16.431  0.00  0.00    -0.009 C 
HETATM    2  C   UNK N   1      35.083  12.882  17.727  0.00  0.00     0.052 C 
HETATM    3  C   UNK N   1      35.366  11.564  18.301  0.00  0.00     0.171 C 
HETATM    4  C   UNK N   1      36.146  10.600  17.516  0.00  0.00     0.058 C 
HETATM    5  C   UNK N   1      36.382  10.806  16.211  0.00  0.00    -0.064 C 
HETATM    6  C   UNK N   1      35.819  12.026  15.478  0.00  0.00     0.004 C 
HETATM    7  C   UNK N   1      36.945  12.547  14.527  0.00  0.00     0.035 C 
HETATM    8  C   UNK N   1      37.310   9.840  15.520  0.00  0.00     0.036 C 
HETATM    9  C   UNK N   1      37.586  10.076  14.028  0.00  0.00     0.010 C 
HETATM   10  C   UNK N   1      37.358  11.485  13.451  0.00  0.00    -0.002 C 
HETATM   11  C   UNK N   1      35.516  13.741  12.809  0.00  0.00     0.045 C 
HETATM   12  C   UNK N   1      36.660  13.877  13.796  0.00  0.00     0.124 C 
HETATM   13  C   UNK N   1      36.343  11.369  12.259  0.00  0.00     0.002 C 
HETATM   14  C   UNK N   1      35.851  12.721  11.716  0.00  0.00     0.003 C 
HETATM   15  C   UNK N   1      36.974  13.147  10.740  0.00  0.00     0.153 C 
HETATM   16  C   UNK N   1      36.994  10.719  11.021  0.00  0.00     0.009 C 
HETATM   17  C   UNK N   1      37.226  11.846   9.985  0.00  0.00     0.050 C 
HETATM   18  O   UNK N   1      35.009  11.295  19.436  0.00  0.00    -0.289 OA
HETATM   19  C   UNK N   1      34.563  11.591  14.739  0.00  0.00     0.025 C 
HETATM   20  C   UNK N   1      34.544  12.470  10.941  0.00  0.00     0.019 C 
ENDROOT
BRANCH  15  21
HETATM   21  C   UNK N   1      36.617  14.344   9.888  0.00  0.00     0.295 C 
HETATM   22  O   UNK N   1      36.330  14.192   8.710  0.00  0.00    -0.262 OA
BRANCH  21  23
HETATM   23  O   UNK N   1      36.738  15.588  10.415  0.00  0.00    -0.304 OA
BRANCH  23  24
HETATM   24  C   UNK N   1      35.671  16.327  10.857  0.00  0.00     0.293 C 
HETATM   25 Cl   UNK N   1      34.899  17.069   9.432  0.00  0.00    -0.101 Cl
ENDBRANCH  23  24
ENDBRANCH  21  23
ENDBRANCH  15  21
BRANCH  15  26
HETATM   26  O   UNK N   1      38.152  13.479  11.417  0.00  0.00    -0.379 OA
HETATM   27  H   UNK N   1      38.967  13.455  11.941  0.00  0.00     0.211 HD
ENDBRANCH  15  26
BRANCH  12  28
HETATM   28  O   UNK N   1      36.427  14.939  14.671  0.00  0.00    -0.395 OA
HETATM   29  H   UNK N   1      35.661  14.997  15.262  0.00  0.00     0.210 HD
ENDBRANCH  12  28
TORSDOF 5
ENDMDL
MODEL 2
REMARK VINA RESULT:      -7.1      1.838      2.584
REMARK  5 active torsions:
REMARK  status: ('A' for Active; 'I' for Inactive)
REMARK    1  A    between atoms: C_12  and  O_21 
REMARK    2  A    between atoms: C_15  and  C_22 
REMARK    3  A    between atoms: C_15  and  O_23 
REMARK    4  A    between atoms: C_22  and  O_24 
REMARK    5  A    between atoms: O_24  and  C_26 
ROOT
HETATM    1  C   UNK N   1      35.525  13.377  16.688  0.00  0.00    -0.009 C 
HETATM    2  C   UNK N   1      35.312  13.893  17.903  0.00  0.00     0.052 C 
HETATM    3  C   UNK N   1      35.154  13.000  19.054  0.00  0.00     0.171 C 
HETATM    4  C   UNK N   1      35.488  11.579  18.902  0.00  0.00     0.058 C 
HETATM    5  C   UNK N   1      35.687  11.045  17.686  0.00  0.00    -0.064 C 
HETATM    6  C   UNK N   1      35.539  11.879  16.412  0.00  0.00     0.004 C 
HETATM    7  C   UNK N   1      36.706  11.464  15.457  0.00  0.00     0.035 C 
HETATM    8  C   UNK N   1      36.165   9.617  17.633  0.00  0.00     0.036 C 
HETATM    9  C   UNK N   1      36.400   9.005  16.244  0.00  0.00     0.010 C 
HETATM   10  C   UNK N   1      36.641   9.952  15.054  0.00  0.00    -0.002 C 
HETATM   11  C   UNK N   1      35.669  12.106  13.235  0.00  0.00     0.045 C 
HETATM   12  C   UNK N   1      36.855  12.294  14.162  0.00  0.00     0.124 C 
HETATM   13  C   UNK N   1      35.567   9.639  13.952  0.00  0.00     0.002 C 
HETATM   14  C   UNK N   1      35.546  10.645  12.790  0.00  0.00     0.003 C 
HETATM   15  C   UNK N   1      36.674  10.143  11.857  0.00  0.00     0.153 C 
HETATM   16  C   UNK N   1      35.859   8.301  13.242  0.00  0.00     0.009 C 
HETATM   17  C   UNK N   1      36.398   8.643  11.831  0.00  0.00     0.050 C 
HETATM   18  O   UNK N   1      34.807  13.443  20.136  0.00  0.00    -0.289 OA
HETATM   19  C   UNK N   1      34.161  11.604  15.829  0.00  0.00     0.025 C 
HETATM   20  C   UNK N   1      34.182  10.520  12.085  0.00  0.00     0.019 C 
ENDROOT
BRANCH  15  21
HETATM   21  C   UNK N   1      36.701  10.831  10.511  0.00  0.00     0.295 C 
HETATM   22  O   UNK N   1      36.351  10.227   9.508  0.00  0.00    -0.262 OA
BRANCH  21  23
HETATM   23  O   UNK N   1      37.229  12.077  10.418  0.00  0.00    -0.304 OA
BRANCH  23  24
HETATM   24  C   UNK N   1      36.802  13.012   9.511  0.00  0.00     0.293 C 
HETATM   25 Cl   UNK N   1      35.115  13.425   9.912  0.00  0.00    -0.101 Cl
ENDBRANCH  23  24
ENDBRANCH  21  23
ENDBRANCH  15  21
BRANCH  15  26
HETATM   26  O   UNK N   1      37.938  10.332  12.425  0.00  0.00    -0.379 OA
HETATM   27  H   UNK N   1      38.778  10.705  12.732  0.00  0.00     0.211 HD
ENDBRANCH  15  26
BRANCH  12  28
HETATM   28  O   UNK N   1      37.073  13.650  14.408  0.00  0.00    -0.395 OA
HETATM   29  H   UNK N   1      37.927  14.093  14.283  0.00  0.00     0.210 HD
ENDBRANCH  12  28
TORSDOF 5
ENDMDL
MODEL 3
REMARK VINA RESULT:      -7.1      8.891     12.124
REMARK  5 active torsions:
REMARK  status: ('A' for Active; 'I' for Inactive)
REMARK    1  A    between atoms: C_12  and  O_21 
REMARK    2  A    between atoms: C_15  and  C_22 
REMARK    3  A    between atoms: C_15  and  O_23 
REMARK    4  A    between atoms: C_22  and  O_24 
REMARK    5  A    between atoms: O_24  and  C_26 
ROOT
HETATM    1  C   UNK N   1      31.267  17.394   7.595  0.00  0.00    -0.009 C 
HETATM    2  C   UNK N   1      32.343  17.783   8.287  0.00  0.00     0.052 C 
HETATM    3  C   UNK N   1      33.656  17.802   7.638  0.00  0.00     0.171 C 
HETATM    4  C   UNK N   1      33.731  17.648   6.181  0.00  0.00     0.058 C 
HETATM    5  C   UNK N   1      32.663  17.242   5.476  0.00  0.00    -0.064 C 
HETATM    6  C   UNK N   1      31.340  16.888   6.160  0.00  0.00     0.004 C 
HETATM    7  C   UNK N   1      30.196  17.471   5.268  0.00  0.00     0.035 C 
HETATM    8  C   UNK N   1      32.788  17.248   3.974  0.00  0.00     0.036 C 
HETATM    9  C   UNK N   1      31.566  16.791   3.165  0.00  0.00     0.010 C 
HETATM   10  C   UNK N   1      30.179  16.846   3.832  0.00  0.00    -0.002 C 
HETATM   11  C   UNK N   1      28.305  15.934   5.965  0.00  0.00     0.045 C 
HETATM   12  C   UNK N   1      28.766  17.374   5.845  0.00  0.00     0.124 C 
HETATM   13  C   UNK N   1      29.551  15.408   3.778  0.00  0.00     0.002 C 
HETATM   14  C   UNK N   1      28.255  15.256   4.592  0.00  0.00     0.003 C 
HETATM   15  C   UNK N   1      27.162  15.788   3.635  0.00  0.00     0.153 C 
HETATM   16  C   UNK N   1      29.102  15.040   2.349  0.00  0.00     0.009 C 
HETATM   17  C   UNK N   1      27.555  15.113   2.324  0.00  0.00     0.050 C 
HETATM   18  O   UNK N   1      34.665  18.003   8.293  0.00  0.00    -0.289 OA
HETATM   19  C   UNK N   1      31.277  15.375   6.304  0.00  0.00     0.025 C 
HETATM   20  C   UNK N   1      28.040  13.754   4.857  0.00  0.00     0.019 C 
ENDROOT
BRANCH  15  21
HETATM   21  C   UNK N   1      25.753  15.524   4.115  0.00  0.00     0.295 C 
HETATM   22  O   UNK N   1      25.010  14.804   3.464  0.00  0.00    -0.262 OA
BRANCH  21  23
HETATM   23  O   UNK N   1      25.291  16.190   5.203  0.00  0.00    -0.304 OA
BRANCH  23  24
HETATM   24  C   UNK N   1      24.350  15.677   6.057  0.00  0.00     0.293 C 
HETATM   25 Cl   UNK N   1      25.190  14.613   7.214  0.00  0.00    -0.101 Cl
ENDBRANCH  23  24
ENDBRANCH  21  23
ENDBRANCH  15  21
BRANCH  15  26
HETATM   26  O   UNK N   1      27.265  17.169   3.447  0.00  0.00    -0.379 OA
HETATM   27  H   UNK N   1      27.160  18.080   3.132  0.00  0.00     0.211 HD
ENDBRANCH  15  26
BRANCH  12  28
HETATM   28  O   UNK N   1      28.626  18.036   7.065  0.00  0.00    -0.395 OA
HETATM   29  H   UNK N   1      28.038  18.794   7.207  0.00  0.00     0.210 HD
ENDBRANCH  12  28
TORSDOF 5
ENDMDL
MODEL 4
REMARK VINA RESULT:      -7.0     23.892     25.965
REMARK  5 active torsions:
REMARK  status: ('A' for Active; 'I' for Inactive)
REMARK    1  A    between atoms: C_12  and  O_21 
REMARK    2  A    between atoms: C_15  and  C_22 
REMARK    3  A    between atoms: C_15  and  O_23 
REMARK    4  A    between atoms: C_22  and  O_24 
REMARK    5  A    between atoms: O_24  and  C_26 
ROOT
HETATM    1  C   UNK N   1      25.280  26.450  -6.035  0.00  0.00    -0.009 C 
HETATM    2  C   UNK N   1      25.055  27.386  -5.106  0.00  0.00     0.052 C 
HETATM    3  C   UNK N   1      25.851  27.396  -3.876  0.00  0.00     0.171 C 
HETATM    4  C   UNK N   1      27.047  26.549  -3.798  0.00  0.00     0.058 C 
HETATM    5  C   UNK N   1      27.277  25.595  -4.714  0.00  0.00    -0.064 C 
HETATM    6  C   UNK N   1      26.289  25.324  -5.852  0.00  0.00     0.004 C 
HETATM    7  C   UNK N   1      27.137  25.074  -7.142  0.00  0.00     0.035 C 
HETATM    8  C   UNK N   1      28.596  24.871  -4.637  0.00  0.00     0.036 C 
HETATM    9  C   UNK N   1      28.864  23.784  -5.688  0.00  0.00     0.010 C 
HETATM   10  C   UNK N   1      28.075  23.827  -7.009  0.00  0.00    -0.002 C 
HETATM   11  C   UNK N   1      25.477  23.692  -8.467  0.00  0.00     0.045 C 
HETATM   12  C   UNK N   1      26.346  24.935  -8.461  0.00  0.00     0.124 C 
HETATM   13  C   UNK N   1      27.328  22.456  -7.180  0.00  0.00     0.002 C 
HETATM   14  C   UNK N   1      26.329  22.424  -8.348  0.00  0.00     0.003 C 
HETATM   15  C   UNK N   1      27.218  22.112  -9.575  0.00  0.00     0.153 C 
HETATM   16  C   UNK N   1      28.307  21.319  -7.536  0.00  0.00     0.009 C 
HETATM   17  C   UNK N   1      28.094  20.987  -9.034  0.00  0.00     0.050 C 
HETATM   18  O   UNK N   1      25.558  28.141  -2.957  0.00  0.00    -0.289 OA
HETATM   19  C   UNK N   1      25.434  24.130  -5.456  0.00  0.00     0.025 C 
HETATM   20  C   UNK N   1      25.348  21.264  -8.096  0.00  0.00     0.019 C 
ENDROOT
BRANCH  15  21
HETATM   21  C   UNK N   1      26.434  21.791 -10.828  0.00  0.00     0.295 C 
HETATM   22  O   UNK N   1      26.616  20.731 -11.408  0.00  0.00    -0.262 OA
BRANCH  21  23
HETATM   23  O   UNK N   1      25.624  22.740 -11.360  0.00  0.00    -0.304 OA
BRANCH  23  24
HETATM   24  C   UNK N   1      25.903  23.400 -12.529  0.00  0.00     0.293 C 
HETATM   25 Cl   UNK N   1      26.178  25.115 -12.130  0.00  0.00    -0.101 Cl
ENDBRANCH  23  24
ENDBRANCH  21  23
ENDBRANCH  15  21
BRANCH  15  26
HETATM   26  O   UNK N   1      28.055  23.185  -9.895  0.00  0.00    -0.379 OA
HETATM   27  H   UNK N   1      28.740  23.754 -10.279  0.00  0.00     0.211 HD
ENDBRANCH  15  26
BRANCH  12  28
HETATM   28  O   UNK N   1      25.585  26.066  -8.760  0.00  0.00    -0.395 OA
HETATM   29  H   UNK N   1      24.715  26.252  -8.374  0.00  0.00     0.210 HD
ENDBRANCH  12  28
TORSDOF 5
ENDMDL
MODEL 5
REMARK VINA RESULT:      -6.9      3.946      6.677
REMARK  5 active torsions:
REMARK  status: ('A' for Active; 'I' for Inactive)
REMARK    1  A    between atoms: C_12  and  O_21 
REMARK    2  A    between atoms: C_15  and  C_22 
REMARK    3  A    between atoms: C_15  and  O_23 
REMARK    4  A    between atoms: C_22  and  O_24 
REMARK    5  A    between atoms: O_24  and  C_26 
ROOT
HETATM    1  C   UNK N   1      35.080  12.030  10.126  0.00  0.00    -0.009 C 
HETATM    2  C   UNK N   1      35.748  11.162  10.894  0.00  0.00     0.052 C 
HETATM    3  C   UNK N   1      36.736  11.655  11.857  0.00  0.00     0.171 C 
HETATM    4  C   UNK N   1      36.789  13.092  12.148  0.00  0.00     0.058 C 
HETATM    5  C   UNK N   1      36.137  13.976  11.375  0.00  0.00    -0.064 C 
HETATM    6  C   UNK N   1      35.346  13.529  10.143  0.00  0.00     0.004 C 
HETATM    7  C   UNK N   1      34.024  14.365  10.123  0.00  0.00     0.035 C 
HETATM    8  C   UNK N   1      36.130  15.412  11.829  0.00  0.00     0.036 C 
HETATM    9  C   UNK N   1      35.380  16.424  10.950  0.00  0.00     0.010 C 
HETATM   10  C   UNK N   1      34.290  15.903   9.996  0.00  0.00    -0.002 C 
HETATM   11  C   UNK N   1      33.496  14.245   7.648  0.00  0.00     0.045 C 
HETATM   12  C   UNK N   1      32.985  13.972   9.050  0.00  0.00     0.124 C 
HETATM   13  C   UNK N   1      34.654  16.361   8.539  0.00  0.00     0.002 C 
HETATM   14  C   UNK N   1      33.771  15.738   7.444  0.00  0.00     0.003 C 
HETATM   15  C   UNK N   1      32.517  16.644   7.433  0.00  0.00     0.153 C 
HETATM   16  C   UNK N   1      34.422  17.874   8.346  0.00  0.00     0.009 C 
HETATM   17  C   UNK N   1      33.147  18.032   7.481  0.00  0.00     0.050 C 
HETATM   18  O   UNK N   1      37.461  10.875  12.451  0.00  0.00    -0.289 OA
HETATM   19  C   UNK N   1      36.217  13.758   8.918  0.00  0.00     0.025 C 
HETATM   20  C   UNK N   1      34.525  15.862   6.106  0.00  0.00     0.019 C 
ENDROOT
BRANCH  15  21
HETATM   21  C   UNK N   1      31.588  16.382   6.268  0.00  0.00     0.295 C 
HETATM   22  O   UNK N   1      31.000  15.314   6.184  0.00  0.00    -0.262 OA
BRANCH  21  23
HETATM   23  O   UNK N   1      31.515  17.293   5.267  0.00  0.00    -0.304 OA
BRANCH  23  24
HETATM   24  C   UNK N   1      31.236  16.963   3.966  0.00  0.00     0.293 C 
HETATM   25 Cl   UNK N   1      32.785  16.862   3.089  0.00  0.00    -0.101 Cl
ENDBRANCH  23  24
ENDBRANCH  21  23
ENDBRANCH  15  21
BRANCH  15  26
HETATM   26  O   UNK N   1      31.753  16.485   8.593  0.00  0.00    -0.379 OA
HETATM   27  H   UNK N   1      31.099  16.201   9.250  0.00  0.00     0.211 HD
ENDBRANCH  15  26
BRANCH  12  28
HETATM   28  O   UNK N   1      32.557  12.649   9.166  0.00  0.00    -0.395 OA
HETATM   29  H   UNK N   1      32.199  12.264   9.981  0.00  0.00     0.210 HD
ENDBRANCH  12  28
TORSDOF 5
ENDMDL
MODEL 6
REMARK VINA RESULT:      -6.9      1.974      3.216
REMARK  5 active torsions:
REMARK  status: ('A' for Active; 'I' for Inactive)
REMARK    1  A    between atoms: C_12  and  O_21 
REMARK    2  A    between atoms: C_15  and  C_22 
REMARK    3  A    between atoms: C_15  and  O_23 
REMARK    4  A    between atoms: C_22  and  O_24 
REMARK    5  A    between atoms: O_24  and  C_26 
ROOT
HETATM    1  C   UNK N   1      35.413   9.048  15.481  0.00  0.00    -0.009 C 
HETATM    2  C   UNK N   1      35.388   8.181  16.499  0.00  0.00     0.052 C 
HETATM    3  C   UNK N   1      35.602   8.661  17.867  0.00  0.00     0.171 C 
HETATM    4  C   UNK N   1      35.579  10.105  18.125  0.00  0.00     0.058 C 
HETATM    5  C   UNK N   1      35.621  10.986  17.112  0.00  0.00    -0.064 C 
HETATM    6  C   UNK N   1      35.731  10.526  15.656  0.00  0.00     0.004 C 
HETATM    7  C   UNK N   1      34.780  11.440  14.817  0.00  0.00     0.035 C 
HETATM    8  C   UNK N   1      35.450  12.442  17.461  0.00  0.00     0.036 C 
HETATM    9  C   UNK N   1      35.491  13.451  16.304  0.00  0.00     0.010 C 
HETATM   10  C   UNK N   1      35.191  12.950  14.879  0.00  0.00    -0.002 C 
HETATM   11  C   UNK N   1      35.893  11.225  12.551  0.00  0.00     0.045 C 
HETATM   12  C   UNK N   1      34.603  11.057  13.331  0.00  0.00     0.124 C 
HETATM   13  C   UNK N   1      36.415  13.308  13.964  0.00  0.00     0.002 C 
HETATM   14  C   UNK N   1      36.355  12.685  12.559  0.00  0.00     0.003 C 
HETATM   15  C   UNK N   1      35.456  13.665  11.768  0.00  0.00     0.153 C 
HETATM   16  C   UNK N   1      36.476  14.821  13.666  0.00  0.00     0.009 C 
HETATM   17  C   UNK N   1      36.030  15.012  12.195  0.00  0.00     0.050 C 
HETATM   18  O   UNK N   1      35.736   7.869  18.785  0.00  0.00    -0.289 OA
HETATM   19  C   UNK N   1      37.190  10.637  15.239  0.00  0.00     0.025 C 
HETATM   20  C   UNK N   1      37.782  12.693  11.981  0.00  0.00     0.019 C 
ENDROOT
BRANCH  15  21
HETATM   21  C   UNK N   1      35.433  13.401  10.279  0.00  0.00     0.295 C 
HETATM   22  O   UNK N   1      35.002  12.340   9.853  0.00  0.00    -0.262 OA
BRANCH  21  23
HETATM   23  O   UNK N   1      36.004  14.302   9.442  0.00  0.00    -0.304 OA
BRANCH  23  24
HETATM   24  C   UNK N   1      35.308  14.977   8.472  0.00  0.00     0.293 C 
HETATM   25 Cl   UNK N   1      34.333  16.232   9.280  0.00  0.00    -0.101 Cl
ENDBRANCH  23  24
ENDBRANCH  21  23
ENDBRANCH  15  21
BRANCH  15  26
HETATM   26  O   UNK N   1      34.128  13.615  12.201  0.00  0.00    -0.379 OA
HETATM   27  H   UNK N   1      33.160  13.573  12.246  0.00  0.00     0.211 HD
ENDBRANCH  15  26
BRANCH  12  28
HETATM   28  O   UNK N   1      34.090   9.771  13.158  0.00  0.00    -0.395 OA
HETATM   29  H   UNK N   1      34.549   9.064  12.678  0.00  0.00     0.210 HD
ENDBRANCH  12  28
TORSDOF 5
ENDMDL
MODEL 7
REMARK VINA RESULT:      -6.8     14.188     16.180
REMARK  5 active torsions:
REMARK  status: ('A' for Active; 'I' for Inactive)
REMARK    1  A    between atoms: C_12  and  O_21 
REMARK    2  A    between atoms: C_15  and  C_22 
REMARK    3  A    between atoms: C_15  and  O_23 
REMARK    4  A    between atoms: C_22  and  O_24 
REMARK    5  A    between atoms: O_24  and  C_26 
ROOT
HETATM    1  C   UNK N   1      21.542  12.717   9.700  0.00  0.00    -0.009 C 
HETATM    2  C   UNK N   1      21.876  12.312  10.930  0.00  0.00     0.052 C 
HETATM    3  C   UNK N   1      23.288  12.141  11.280  0.00  0.00     0.171 C 
HETATM    4  C   UNK N   1      24.314  12.663  10.369  0.00  0.00     0.058 C 
HETATM    5  C   UNK N   1      23.994  13.057   9.126  0.00  0.00    -0.064 C 
HETATM    6  C   UNK N   1      22.563  12.945   8.595  0.00  0.00     0.004 C 
HETATM    7  C   UNK N   1      22.275  14.250   7.783  0.00  0.00     0.035 C 
HETATM    8  C   UNK N   1      25.081  13.710   8.312  0.00  0.00     0.036 C 
HETATM    9  C   UNK N   1      24.717  14.167   6.892  0.00  0.00     0.010 C 
HETATM   10  C   UNK N   1      23.234  14.417   6.556  0.00  0.00    -0.002 C 
HETATM   11  C   UNK N   1      20.452  13.390   6.248  0.00  0.00     0.045 C 
HETATM   12  C   UNK N   1      20.826  14.435   7.281  0.00  0.00     0.124 C 
HETATM   13  C   UNK N   1      22.850  13.516   5.329  0.00  0.00     0.002 C 
HETATM   14  C   UNK N   1      21.347  13.496   5.008  0.00  0.00     0.003 C 
HETATM   15  C   UNK N   1      21.143  14.772   4.157  0.00  0.00     0.153 C 
HETATM   16  C   UNK N   1      23.473  14.046   4.021  0.00  0.00     0.009 C 
HETATM   17  C   UNK N   1      22.327  14.688   3.200  0.00  0.00     0.050 C 
HETATM   18  O   UNK N   1      23.604  11.627  12.340  0.00  0.00    -0.289 OA
HETATM   19  C   UNK N   1      22.474  11.683   7.750  0.00  0.00     0.025 C 
HETATM   20  C   UNK N   1      21.064  12.243   4.160  0.00  0.00     0.019 C 
ENDROOT
BRANCH  15  21
HETATM   21  C   UNK N   1      19.778  14.859   3.510  0.00  0.00     0.295 C 
HETATM   22  O   UNK N   1      18.773  14.890   4.205  0.00  0.00    -0.262 OA
BRANCH  21  23
HETATM   23  O   UNK N   1      19.683  14.779   2.159  0.00  0.00    -0.304 OA
BRANCH  23  24
HETATM   24  C   UNK N   1      18.984  13.795   1.510  0.00  0.00     0.293 C 
HETATM   25 Cl   UNK N   1      20.144  12.867   0.524  0.00  0.00    -0.101 Cl
ENDBRANCH  23  24
ENDBRANCH  21  23
ENDBRANCH  15  21
BRANCH  15  26
HETATM   26  O   UNK N   1      21.295  15.934   4.919  0.00  0.00    -0.379 OA
HETATM   27  H   UNK N   1      21.516  16.574   5.612  0.00  0.00     0.211 HD
ENDBRANCH  15  26
BRANCH  12  28
HETATM   28  O   UNK N   1      19.891  14.457   8.316  0.00  0.00    -0.395 OA
HETATM   29  H   UNK N   1      19.794  13.752   8.975  0.00  0.00     0.210 HD
ENDBRANCH  12  28
TORSDOF 5
ENDMDL
MODEL 8
REMARK VINA RESULT:      -6.8      3.811      8.157
REMARK  5 active torsions:
REMARK  status: ('A' for Active; 'I' for Inactive)
REMARK    1  A    between atoms: C_12  and  O_21 
REMARK    2  A    between atoms: C_15  and  C_22 
REMARK    3  A    between atoms: C_15  and  O_23 
REMARK    4  A    between atoms: C_22  and  O_24 
REMARK    5  A    between atoms: O_24  and  C_26 
ROOT
HETATM    1  C   UNK N   1      32.188  16.324   7.624  0.00  0.00    -0.009 C 
HETATM    2  C   UNK N   1      31.483  16.915   6.653  0.00  0.00     0.052 C 
HETATM    3  C   UNK N   1      32.085  17.104   5.330  0.00  0.00     0.171 C 
HETATM    4  C   UNK N   1      33.343  16.416   5.018  0.00  0.00     0.058 C 
HETATM    5  C   UNK N   1      34.069  15.834   5.986  0.00  0.00    -0.064 C 
HETATM    6  C   UNK N   1      33.638  15.893   7.454  0.00  0.00     0.004 C 
HETATM    7  C   UNK N   1      33.912  14.481   8.067  0.00  0.00     0.035 C 
HETATM    8  C   UNK N   1      35.269  15.030   5.556  0.00  0.00     0.036 C 
HETATM    9  C   UNK N   1      36.097  14.358   6.661  0.00  0.00     0.010 C 
HETATM   10  C   UNK N   1      35.429  14.094   8.024  0.00  0.00    -0.002 C 
HETATM   11  C   UNK N   1      34.141  15.127  10.507  0.00  0.00     0.045 C 
HETATM   12  C   UNK N   1      33.405  14.254   9.508  0.00  0.00     0.124 C 
HETATM   13  C   UNK N   1      36.290  14.793   9.135  0.00  0.00     0.002 C 
HETATM   14  C   UNK N   1      35.637  14.798  10.527  0.00  0.00     0.003 C 
HETATM   15  C   UNK N   1      35.998  13.407  11.100  0.00  0.00     0.153 C 
HETATM   16  C   UNK N   1      37.615  14.042   9.381  0.00  0.00     0.009 C 
HETATM   17  C   UNK N   1      37.475  13.304  10.735  0.00  0.00     0.050 C 
HETATM   18  O   UNK N   1      31.519  17.775   4.484  0.00  0.00    -0.289 OA
HETATM   19  C   UNK N   1      34.429  17.004   8.129  0.00  0.00     0.025 C 
HETATM   20  C   UNK N   1      36.313  15.904  11.359  0.00  0.00     0.019 C 
ENDROOT
BRANCH  15  21
HETATM   21  C   UNK N   1      35.669  13.250  12.568  0.00  0.00     0.295 C 
HETATM   22  O   UNK N   1      34.518  13.383  12.954  0.00  0.00    -0.262 OA
BRANCH  21  23
HETATM   23  O   UNK N   1      36.682  13.082  13.455  0.00  0.00    -0.304 OA
BRANCH  23  24
HETATM   24  C   UNK N   1      36.533  13.246  14.808  0.00  0.00     0.293 C 
HETATM   25 Cl   UNK N   1      37.060  14.900  15.215  0.00  0.00    -0.101 Cl
ENDBRANCH  23  24
ENDBRANCH  21  23
ENDBRANCH  15  21
BRANCH  15  26
HETATM   26  O   UNK N   1      35.324  12.380  10.431  0.00  0.00    -0.379 OA
HETATM   27  H   UNK N   1      34.784  11.607  10.208  0.00  0.00     0.211 HD
ENDBRANCH  15  26
BRANCH  12  28
HETATM   28  O   UNK N   1      32.026  14.424   9.632  0.00  0.00    -0.395 OA
HETATM   29  H   UNK N   1      31.393  13.693   9.702  0.00  0.00     0.210 HD
ENDBRANCH  12  28
TORSDOF 5
ENDMDL
MODEL 9
REMARK VINA RESULT:      -6.7      2.566      4.024
REMARK  5 active torsions:
REMARK  status: ('A' for Active; 'I' for Inactive)
REMARK    1  A    between atoms: C_12  and  O_21 
REMARK    2  A    between atoms: C_15  and  C_22 
REMARK    3  A    between atoms: C_15  and  O_23 
REMARK    4  A    between atoms: C_22  and  O_24 
REMARK    5  A    between atoms: O_24  and  C_26 
ROOT
HETATM    1  C   UNK N   1      36.105  10.002  12.679  0.00  0.00    -0.009 C 
HETATM    2  C   UNK N   1      36.578   9.012  13.443  0.00  0.00     0.052 C 
HETATM    3  C   UNK N   1      37.386   9.328  14.624  0.00  0.00     0.171 C 
HETATM    4  C   UNK N   1      37.444  10.717  15.094  0.00  0.00     0.058 C 
HETATM    5  C   UNK N   1      36.988  11.722  14.329  0.00  0.00    -0.064 C 
HETATM    6  C   UNK N   1      36.426  11.469  12.928  0.00  0.00     0.004 C 
HETATM    7  C   UNK N   1      35.168  12.385  12.769  0.00  0.00     0.035 C 
HETATM    8  C   UNK N   1      36.956  13.096  14.947  0.00  0.00     0.036 C 
HETATM    9  C   UNK N   1      36.429  14.246  14.077  0.00  0.00     0.010 C 
HETATM   10  C   UNK N   1      35.518  13.908  12.882  0.00  0.00    -0.002 C 
HETATM   11  C   UNK N   1      35.114  12.580  10.243  0.00  0.00     0.045 C 
HETATM   12  C   UNK N   1      34.336  12.184  11.484  0.00  0.00     0.124 C 
HETATM   13  C   UNK N   1      36.170  14.502  11.584  0.00  0.00     0.002 C 
HETATM   14  C   UNK N   1      35.486  14.065  10.278  0.00  0.00     0.003 C 
HETATM   15  C   UNK N   1      34.296  15.045  10.149  0.00  0.00     0.153 C 
HETATM   16  C   UNK N   1      36.043  16.039  11.539  0.00  0.00     0.009 C 
HETATM   17  C   UNK N   1      34.963  16.376  10.482  0.00  0.00     0.050 C 
HETATM   18  O   UNK N   1      37.952   8.441  15.240  0.00  0.00    -0.289 OA
HETATM   19  C   UNK N   1      37.523  11.778  11.920  0.00  0.00     0.025 C 
HETATM   20  C   UNK N   1      36.483  14.290   9.127  0.00  0.00     0.019 C 
ENDROOT
BRANCH  15  21
HETATM   21  C   UNK N   1      33.594  14.977   8.811  0.00  0.00     0.295 C 
HETATM   22  O   UNK N   1      32.824  14.060   8.571  0.00  0.00    -0.262 OA
BRANCH  21  23
HETATM   23  O   UNK N   1      33.924  15.873   7.848  0.00  0.00    -0.304 OA
BRANCH  23  24
HETATM   24  C   UNK N   1      33.002  16.650   7.194  0.00  0.00     0.293 C 
HETATM   25 Cl   UNK N   1      32.399  17.865   8.351  0.00  0.00    -0.101 Cl
ENDBRANCH  23  24
ENDBRANCH  21  23
ENDBRANCH  15  21
BRANCH  15  26
HETATM   26  O   UNK N   1      33.320  14.807  11.122  0.00  0.00    -0.379 OA
HETATM   27  H   UNK N   1      32.511  14.551  11.591  0.00  0.00     0.211 HD
ENDBRANCH  15  26
BRANCH  12  28
HETATM   28  O   UNK N   1      33.838  10.886  11.356  0.00  0.00    -0.395 OA
HETATM   29  H   UNK N   1      34.362  10.133  11.042  0.00  0.00     0.210 HD
ENDBRANCH  12  28
TORSDOF 5
ENDMDL
