MODEL 1
REMARK VINA RESULT:      -6.1      0.000      0.000
REMARK  4 active torsions:
REMARK  status: ('A' for Active; 'I' for Inactive)
REMARK       I    between atoms: C_9  and  N_13 
REMARK    1  A    between atoms: C_10  and  C_14 
REMARK    2  A    between atoms: C_14  and  C_15 
REMARK    3  A    between atoms: C_14  and  O_16 
REMARK    4  A    between atoms: C_15  and  O_18 
ROOT
HETATM    1  C   UNK N   1      35.339  15.857  10.904  0.00  0.00     0.149 A 
HETATM    2  C   UNK N   1      34.350  14.929  10.566  0.00  0.00     0.142 A 
HETATM    3  N   UNK N   1      36.275  15.534  11.917  0.00  0.00    -0.372 N 
HETATM    4  N   UNK N   1      35.424  17.036  10.237  0.00  0.00    -0.175 N 
ATOM      5  HN  UNK N   1      36.136  17.716  10.501  1.00  0.00     0.186 HD
HETATM    6  N   UNK N   1      34.250  13.716  11.302  0.00  0.00    -0.374 N 
HETATM    7  C   UNK N   1      33.495  15.219   9.502  0.00  0.00     0.289 A 
HETATM    8  C   UNK N   1      36.393  14.161  12.369  0.00  0.00     0.149 C 
HETATM    9  C   UNK N   1      34.566  17.321   9.219  0.00  0.00     0.680 A 
HETATM   10  C   UNK N   1      34.995  13.553  12.540  0.00  0.00     0.131 C 
HETATM   11  N   UNK N   1      33.621  16.417   8.845  0.00  0.00    -0.154 N 
HETATM   12  O   UNK N   1      32.642  14.422   9.155  0.00  0.00    -0.265 OA
HETATM   13  N   UNK N   1      34.668  18.551   8.539  0.00  0.00    -0.234 N 
HETATM   14  H   UNK N   1      36.842  16.236  12.310  0.00  0.00     0.161 HD
HETATM   15  H   UNK N   1      33.676  12.987  10.973  0.00  0.00     0.160 HD
HETATM   16  H   UNK N   1      33.019  16.624   8.095  0.00  0.00     0.187 HD
HETATM   17  H   UNK N   1      35.334  19.218   8.826  0.00  0.00     0.174 HD
HETATM   18  H   UNK N   1      34.075  18.743   7.778  0.00  0.00     0.174 HD
ENDROOT
BRANCH  10  19
HETATM   19  C   UNK N   1      35.023  12.070  12.955  0.00  0.00     0.170 C 
BRANCH  19  20
HETATM   20  C   UNK N   1      34.723  11.851  14.445  0.00  0.00     0.145 C 
HETATM   21  C   UNK N   1      33.635  10.808  14.624  0.00  0.00     0.042 C 
BRANCH  20  22
HETATM   22  O   UNK N   1      34.335  13.036  15.069  0.00  0.00    -0.393 OA
HETATM   23  H   UNK N   1      33.763  13.815  14.984  0.00  0.00     0.210 HD
ENDBRANCH  20  22
ENDBRANCH  19  20
BRANCH  19  24
HETATM   24  O   UNK N   1      36.261  11.498  12.650  0.00  0.00    -0.391 OA
HETATM   25  H   UNK N   1      36.759  10.726  12.336  0.00  0.00     0.210 HD
ENDBRANCH  19  24
ENDBRANCH  10  19
TORSDOF 4
ENDMDL
MODEL 2
REMARK VINA RESULT:      -6.1      3.208      6.043
REMARK  4 active torsions:
REMARK  status: ('A' for Active; 'I' for Inactive)
REMARK       I    between atoms: C_9  and  N_13 
REMARK    1  A    between atoms: C_10  and  C_14 
REMARK    2  A    between atoms: C_14  and  C_15 
REMARK    3  A    between atoms: C_14  and  O_16 
REMARK    4  A    between atoms: C_15  and  O_18 
ROOT
HETATM    1  C   UNK N   1      34.345  14.275  10.140  0.00  0.00     0.149 A 
HETATM    2  C   UNK N   1      34.415  15.665  10.015  0.00  0.00     0.142 A 
HETATM    3  N   UNK N   1      33.293  13.575   9.501  0.00  0.00    -0.372 N 
HETATM    4  N   UNK N   1      35.302  13.604  10.831  0.00  0.00    -0.175 N 
ATOM      5  HN  UNK N   1      35.234  12.591  10.933  1.00  0.00     0.186 HD
HETATM    6  N   UNK N   1      33.383  16.357   9.323  0.00  0.00    -0.374 N 
HETATM    7  C   UNK N   1      35.508  16.333  10.568  0.00  0.00     0.289 A 
HETATM    8  C   UNK N   1      32.495  14.247   8.493  0.00  0.00     0.149 C 
HETATM    9  C   UNK N   1      36.350  14.269  11.391  0.00  0.00     0.680 A 
HETATM   10  C   UNK N   1      32.154  15.665   8.970  0.00  0.00     0.131 C 
HETATM   11  N   UNK N   1      36.460  15.617  11.249  0.00  0.00    -0.154 N 
HETATM   12  O   UNK N   1      35.623  17.540  10.453  0.00  0.00    -0.265 OA
HETATM   13  N   UNK N   1      37.332  13.555  12.105  0.00  0.00    -0.234 N 
HETATM   14  H   UNK N   1      33.106  12.637   9.738  0.00  0.00     0.161 HD
HETATM   15  H   UNK N   1      33.502  17.305   9.083  0.00  0.00     0.160 HD
HETATM   16  H   UNK N   1      37.233  16.085  11.640  0.00  0.00     0.187 HD
HETATM   17  H   UNK N   1      37.239  12.583  12.232  0.00  0.00     0.174 HD
HETATM   18  H   UNK N   1      38.110  14.028  12.477  0.00  0.00     0.174 HD
ENDROOT
BRANCH  10  19
HETATM   19  C   UNK N   1      31.362  16.481   7.931  0.00  0.00     0.170 C 
BRANCH  19  20
HETATM   20  C   UNK N   1      30.186  17.259   8.540  0.00  0.00     0.145 C 
HETATM   21  C   UNK N   1      29.346  17.899   7.450  0.00  0.00     0.042 C 
BRANCH  20  22
HETATM   22  O   UNK N   1      30.625  18.243   9.424  0.00  0.00    -0.393 OA
HETATM   23  H   UNK N   1      30.328  18.911  10.062  0.00  0.00     0.210 HD
ENDBRANCH  20  22
ENDBRANCH  19  20
BRANCH  19  24
HETATM   24  O   UNK N   1      30.882  15.650   6.915  0.00  0.00    -0.391 OA
HETATM   25  H   UNK N   1      30.139  15.376   6.355  0.00  0.00     0.210 HD
ENDBRANCH  19  24
ENDBRANCH  10  19
TORSDOF 4
ENDMDL
MODEL 3
REMARK VINA RESULT:      -6.0     12.891     15.733
REMARK  4 active torsions:
REMARK  status: ('A' for Active; 'I' for Inactive)
REMARK       I    between atoms: C_9  and  N_13 
REMARK    1  A    between atoms: C_10  and  C_14 
REMARK    2  A    between atoms: C_14  and  C_15 
REMARK    3  A    between atoms: C_14  and  O_16 
REMARK    4  A    between atoms: C_15  and  O_18 
ROOT
HETATM    1  C   UNK N   1      24.007  18.939   4.641  0.00  0.00     0.149 A 
HETATM    2  C   UNK N   1      23.974  19.755   3.507  0.00  0.00     0.142 A 
HETATM    3  N   UNK N   1      22.810  18.333   5.093  0.00  0.00    -0.372 N 
HETATM    4  N   UNK N   1      25.184  18.697   5.273  0.00  0.00    -0.175 N 
ATOM      5  HN  UNK N   1      25.198  18.115   6.110  1.00  0.00     0.186 HD
HETATM    6  N   UNK N   1      22.728  20.031   2.881  0.00  0.00    -0.374 N 
HETATM    7  C   UNK N   1      25.175  20.268   3.016  0.00  0.00     0.289 A 
HETATM    8  C   UNK N   1      21.648  18.311   4.225  0.00  0.00     0.149 C 
HETATM    9  C   UNK N   1      26.347  19.226   4.802  0.00  0.00     0.680 A 
HETATM   10  C   UNK N   1      21.485  19.679   3.549  0.00  0.00     0.131 C 
HETATM   11  N   UNK N   1      26.345  19.991   3.677  0.00  0.00    -0.154 N 
HETATM   12  O   UNK N   1      25.193  20.957   2.012  0.00  0.00    -0.265 OA
HETATM   13  N   UNK N   1      27.558  18.965   5.472  0.00  0.00    -0.234 N 
HETATM   14  H   UNK N   1      22.767  17.928   5.990  0.00  0.00     0.161 HD
HETATM   15  H   UNK N   1      22.706  20.460   1.995  0.00  0.00     0.160 HD
HETATM   16  H   UNK N   1      27.194  20.351   3.332  0.00  0.00     0.187 HD
HETATM   17  H   UNK N   1      27.557  18.434   6.301  0.00  0.00     0.174 HD
HETATM   18  H   UNK N   1      28.404  19.313   5.111  0.00  0.00     0.174 HD
ENDROOT
BRANCH  10  19
HETATM   19  C   UNK N   1      20.310  19.729   2.554  0.00  0.00     0.170 C 
BRANCH  19  20
HETATM   20  C   UNK N   1      19.519  18.415   2.483  0.00  0.00     0.145 C 
HETATM   21  C   UNK N   1      20.001  17.562   1.324  0.00  0.00     0.042 C 
BRANCH  20  22
HETATM   22  O   UNK N   1      18.151  18.647   2.348  0.00  0.00    -0.393 OA
HETATM   23  H   UNK N   1      17.282  18.451   2.733  0.00  0.00     0.210 HD
ENDBRANCH  20  22
ENDBRANCH  19  20
BRANCH  19  24
HETATM   24  O   UNK N   1      20.765  20.059   1.274  0.00  0.00    -0.391 OA
HETATM   25  H   UNK N   1      20.749  19.878   0.321  0.00  0.00     0.210 HD
ENDBRANCH  19  24
ENDBRANCH  10  19
TORSDOF 4
ENDMDL
MODEL 4
REMARK VINA RESULT:      -6.0      2.916      6.242
REMARK  4 active torsions:
REMARK  status: ('A' for Active; 'I' for Inactive)
REMARK       I    between atoms: C_9  and  N_13 
REMARK    1  A    between atoms: C_10  and  C_14 
REMARK    2  A    between atoms: C_14  and  C_15 
REMARK    3  A    between atoms: C_14  and  O_16 
REMARK    4  A    between atoms: C_15  and  O_18 
ROOT
HETATM    1  C   UNK N   1      34.850  14.627  11.135  0.00  0.00     0.149 A 
HETATM    2  C   UNK N   1      35.776  14.688  10.091  0.00  0.00     0.142 A 
HETATM    3  N   UNK N   1      33.502  14.983  10.887  0.00  0.00    -0.372 N 
HETATM    4  N   UNK N   1      35.234  14.189  12.362  0.00  0.00    -0.175 N 
ATOM      5  HN  UNK N   1      34.556  14.165  13.124  1.00  0.00     0.186 HD
HETATM    6  N   UNK N   1      35.368  15.187   8.824  0.00  0.00    -0.374 N 
HETATM    7  C   UNK N   1      37.078  14.244  10.324  0.00  0.00     0.289 A 
HETATM    8  C   UNK N   1      33.036  15.106   9.519  0.00  0.00     0.149 C 
HETATM    9  C   UNK N   1      36.514  13.785  12.586  0.00  0.00     0.680 A 
HETATM   10  C   UNK N   1      34.084  15.855   8.684  0.00  0.00     0.131 C 
HETATM   11  N   UNK N   1      37.424  13.798  11.575  0.00  0.00    -0.154 N 
HETATM   12  O   UNK N   1      37.906  14.250   9.431  0.00  0.00    -0.265 OA
HETATM   13  N   UNK N   1      36.893  13.335  13.866  0.00  0.00    -0.234 N 
HETATM   14  H   UNK N   1      32.885  15.143  11.638  0.00  0.00     0.161 HD
HETATM   15  H   UNK N   1      35.955  15.081   8.040  0.00  0.00     0.160 HD
HETATM   16  H   UNK N   1      38.341  13.483  11.742  0.00  0.00     0.187 HD
HETATM   17  H   UNK N   1      36.244  13.351  14.605  0.00  0.00     0.174 HD
HETATM   18  H   UNK N   1      37.807  13.006  14.020  0.00  0.00     0.174 HD
ENDROOT
BRANCH  10  19
HETATM   19  C   UNK N   1      33.703  15.975   7.196  0.00  0.00     0.170 C 
BRANCH  19  20
HETATM   20  C   UNK N   1      33.504  17.427   6.737  0.00  0.00     0.145 C 
HETATM   21  C   UNK N   1      33.299  17.489   5.235  0.00  0.00     0.042 C 
BRANCH  20  22
HETATM   22  O   UNK N   1      34.588  18.229   7.090  0.00  0.00    -0.393 OA
HETATM   23  H   UNK N   1      34.875  18.940   7.685  0.00  0.00     0.210 HD
ENDBRANCH  20  22
ENDBRANCH  19  20
BRANCH  19  24
HETATM   24  O   UNK N   1      32.540  15.247   6.926  0.00  0.00    -0.391 OA
HETATM   25  H   UNK N   1      31.993  14.779   6.277  0.00  0.00     0.210 HD
ENDBRANCH  19  24
ENDBRANCH  10  19
TORSDOF 4
ENDMDL
MODEL 5
REMARK VINA RESULT:      -6.0     12.576     15.166
REMARK  4 active torsions:
REMARK  status: ('A' for Active; 'I' for Inactive)
REMARK       I    between atoms: C_9  and  N_13 
REMARK    1  A    between atoms: C_10  and  C_14 
REMARK    2  A    between atoms: C_14  and  C_15 
REMARK    3  A    between atoms: C_14  and  O_16 
REMARK    4  A    between atoms: C_15  and  O_18 
ROOT
HETATM    1  C   UNK N   1      21.753  18.095   3.645  0.00  0.00     0.149 A 
HETATM    2  C   UNK N   1      22.345  19.339   3.414  0.00  0.00     0.142 A 
HETATM    3  N   UNK N   1      22.481  17.101   4.344  0.00  0.00    -0.372 N 
HETATM    4  N   UNK N   1      20.478  17.861   3.241  0.00  0.00    -0.175 N 
ATOM      5  HN  UNK N   1      20.059  16.944   3.398  1.00  0.00     0.186 HD
HETATM    6  N   UNK N   1      23.695  19.555   3.807  0.00  0.00    -0.374 N 
HETATM    7  C   UNK N   1      21.584  20.341   2.811  0.00  0.00     0.289 A 
HETATM    8  C   UNK N   1      23.683  17.471   5.067  0.00  0.00     0.149 C 
HETATM    9  C   UNK N   1      19.754  18.837   2.628  0.00  0.00     0.680 A 
HETATM   10  C   UNK N   1      24.522  18.430   4.212  0.00  0.00     0.131 C 
HETATM   11  N   UNK N   1      20.295  20.069   2.428  0.00  0.00    -0.154 N 
HETATM   12  O   UNK N   1      22.053  21.450   2.622  0.00  0.00    -0.265 OA
HETATM   13  N   UNK N   1      18.433  18.574   2.215  0.00  0.00    -0.234 N 
HETATM   14  H   UNK N   1      22.172  16.166   4.340  0.00  0.00     0.161 HD
HETATM   15  H   UNK N   1      24.068  20.466   3.805  0.00  0.00     0.160 HD
HETATM   16  H   UNK N   1      19.756  20.773   2.002  0.00  0.00     0.187 HD
HETATM   17  H   UNK N   1      18.049  17.676   2.335  0.00  0.00     0.174 HD
HETATM   18  H   UNK N   1      17.894  19.290   1.807  0.00  0.00     0.174 HD
ENDROOT
BRANCH  10  19
HETATM   19  C   UNK N   1      25.791  18.931   4.929  0.00  0.00     0.170 C 
BRANCH  19  20
HETATM   20  C   UNK N   1      26.888  19.400   3.962  0.00  0.00     0.145 C 
HETATM   21  C   UNK N   1      28.123  19.839   4.727  0.00  0.00     0.042 C 
BRANCH  20  22
HETATM   22  O   UNK N   1      26.447  20.447   3.154  0.00  0.00    -0.393 OA
HETATM   23  H   UNK N   1      26.614  21.371   2.911  0.00  0.00     0.210 HD
ENDBRANCH  20  22
ENDBRANCH  19  20
BRANCH  19  24
HETATM   24  O   UNK N   1      26.310  17.936   5.761  0.00  0.00    -0.391 OA
HETATM   25  H   UNK N   1      26.407  16.990   5.955  0.00  0.00     0.210 HD
ENDBRANCH  19  24
ENDBRANCH  10  19
TORSDOF 4
ENDMDL
MODEL 6
REMARK VINA RESULT:      -5.9      3.165      6.465
REMARK  4 active torsions:
REMARK  status: ('A' for Active; 'I' for Inactive)
REMARK       I    between atoms: C_9  and  N_13 
REMARK    1  A    between atoms: C_10  and  C_14 
REMARK    2  A    between atoms: C_14  and  C_15 
REMARK    3  A    between atoms: C_14  and  O_16 
REMARK    4  A    between atoms: C_15  and  O_18 
ROOT
HETATM    1  C   UNK N   1      33.910  14.533  10.214  0.00  0.00     0.149 A 
HETATM    2  C   UNK N   1      34.283  15.812   9.794  0.00  0.00     0.142 A 
HETATM    3  N   UNK N   1      33.017  13.775   9.416  0.00  0.00    -0.372 N 
HETATM    4  N   UNK N   1      34.434  14.008  11.351  0.00  0.00    -0.175 N 
ATOM      5  HN  UNK N   1      34.143  13.080  11.660  1.00  0.00     0.186 HD
HETATM    6  N   UNK N   1      33.695  16.363   8.623  0.00  0.00    -0.374 N 
HETATM    7  C   UNK N   1      35.238  16.508  10.538  0.00  0.00     0.289 A 
HETATM    8  C   UNK N   1      32.746  14.194   8.054  0.00  0.00     0.149 C 
HETATM    9  C   UNK N   1      35.343  14.708  12.084  0.00  0.00     0.680 A 
HETATM   10  C   UNK N   1      32.545  15.714   8.013  0.00  0.00     0.131 C 
HETATM   11  N   UNK N   1      35.752  15.939  11.675  0.00  0.00    -0.154 N 
HETATM   12  O   UNK N   1      35.614  17.612  10.187  0.00  0.00    -0.265 OA
HETATM   13  N   UNK N   1      35.874  14.147  13.263  0.00  0.00    -0.234 N 
HETATM   14  H   UNK N   1      32.585  12.970   9.784  0.00  0.00     0.161 HD
HETATM   15  H   UNK N   1      34.067  17.183   8.224  0.00  0.00     0.160 HD
HETATM   16  H   UNK N   1      36.424  16.427  12.201  0.00  0.00     0.187 HD
HETATM   17  H   UNK N   1      35.559  13.268  13.575  0.00  0.00     0.174 HD
HETATM   18  H   UNK N   1      36.560  14.634  13.773  0.00  0.00     0.174 HD
ENDROOT
BRANCH  10  19
HETATM   19  C   UNK N   1      32.317  16.259   6.591  0.00  0.00     0.170 C 
BRANCH  19  20
HETATM   20  C   UNK N   1      33.478  17.124   6.078  0.00  0.00     0.145 C 
HETATM   21  C   UNK N   1      33.148  17.713   4.719  0.00  0.00     0.042 C 
BRANCH  20  22
HETATM   22  O   UNK N   1      34.662  16.392   5.990  0.00  0.00    -0.393 OA
HETATM   23  H   UNK N   1      35.272  15.962   5.370  0.00  0.00     0.210 HD
ENDBRANCH  20  22
ENDBRANCH  19  20
BRANCH  19  24
HETATM   24  O   UNK N   1      31.135  17.002   6.533  0.00  0.00    -0.391 OA
HETATM   25  H   UNK N   1      30.684  17.849   6.681  0.00  0.00     0.210 HD
ENDBRANCH  19  24
ENDBRANCH  10  19
TORSDOF 4
ENDMDL
MODEL 7
REMARK VINA RESULT:      -5.9      1.626      2.146
REMARK  4 active torsions:
REMARK  status: ('A' for Active; 'I' for Inactive)
REMARK       I    between atoms: C_9  and  N_13 
REMARK    1  A    between atoms: C_10  and  C_14 
REMARK    2  A    between atoms: C_14  and  C_15 
REMARK    3  A    between atoms: C_14  and  O_16 
REMARK    4  A    between atoms: C_15  and  O_18 
ROOT
HETATM    1  C   UNK N   1      33.902  16.236   9.786  0.00  0.00     0.149 A 
HETATM    2  C   UNK N   1      33.622  14.867   9.816  0.00  0.00     0.142 A 
HETATM    3  N   UNK N   1      34.891  16.759  10.654  0.00  0.00    -0.372 N 
HETATM    4  N   UNK N   1      33.261  17.044   8.904  0.00  0.00    -0.175 N 
ATOM      5  HN  UNK N   1      33.458  18.045   8.900  1.00  0.00     0.186 HD
HETATM    6  N   UNK N   1      34.271  14.042  10.774  0.00  0.00    -0.374 N 
HETATM    7  C   UNK N   1      32.715  14.349   8.890  0.00  0.00     0.289 A 
HETATM    8  C   UNK N   1      35.802  15.853  11.329  0.00  0.00     0.149 C 
HETATM    9  C   UNK N   1      32.357  16.533   8.024  0.00  0.00     0.680 A 
HETATM   10  C   UNK N   1      35.022  14.645  11.864  0.00  0.00     0.131 C 
HETATM   11  N   UNK N   1      32.097  15.197   8.007  0.00  0.00    -0.154 N 
HETATM   12  O   UNK N   1      32.469  13.157   8.862  0.00  0.00    -0.265 OA
HETATM   13  N   UNK N   1      31.701  17.388   7.116  0.00  0.00    -0.234 N 
HETATM   14  H   UNK N   1      34.962  17.731  10.797  0.00  0.00     0.161 HD
HETATM   15  H   UNK N   1      34.214  13.062  10.699  0.00  0.00     0.160 HD
HETATM   16  H   UNK N   1      31.457  14.835   7.353  0.00  0.00     0.187 HD
HETATM   17  H   UNK N   1      31.868  18.357   7.145  0.00  0.00     0.174 HD
HETATM   18  H   UNK N   1      31.077  17.015   6.453  0.00  0.00     0.174 HD
ENDROOT
BRANCH  10  19
HETATM   19  C   UNK N   1      35.921  13.593  12.540  0.00  0.00     0.170 C 
BRANCH  19  20
HETATM   20  C   UNK N   1      35.811  13.595  14.072  0.00  0.00     0.145 C 
HETATM   21  C   UNK N   1      36.900  12.737  14.689  0.00  0.00     0.042 C 
BRANCH  20  22
HETATM   22  O   UNK N   1      34.564  13.138  14.497  0.00  0.00    -0.393 OA
HETATM   23  H   UNK N   1      33.901  12.442  14.369  0.00  0.00     0.210 HD
ENDBRANCH  20  22
ENDBRANCH  19  20
BRANCH  19  24
HETATM   24  O   UNK N   1      37.257  13.782  12.178  0.00  0.00    -0.391 OA
HETATM   25  H   UNK N   1      38.196  13.685  12.406  0.00  0.00     0.210 HD
ENDBRANCH  19  24
ENDBRANCH  10  19
TORSDOF 4
ENDMDL
MODEL 8
REMARK VINA RESULT:      -5.8      3.097      4.643
REMARK  4 active torsions:
REMARK  status: ('A' for Active; 'I' for Inactive)
REMARK       I    between atoms: C_9  and  N_13 
REMARK    1  A    between atoms: C_10  and  C_14 
REMARK    2  A    between atoms: C_14  and  C_15 
REMARK    3  A    between atoms: C_14  and  O_16 
REMARK    4  A    between atoms: C_15  and  O_18 
ROOT
HETATM    1  C   UNK N   1      33.204  16.597   6.857  0.00  0.00     0.149 A 
HETATM    2  C   UNK N   1      32.377  16.761   7.971  0.00  0.00     0.142 A 
HETATM    3  N   UNK N   1      34.530  16.135   7.040  0.00  0.00    -0.372 N 
HETATM    4  N   UNK N   1      32.724  16.838   5.609  0.00  0.00    -0.175 N 
ATOM      5  HN  UNK N   1      33.339  16.733   4.803  1.00  0.00     0.186 HD
HETATM    6  N   UNK N   1      32.907  16.544   9.272  0.00  0.00    -0.374 N 
HETATM    7  C   UNK N   1      31.045  17.124   7.768  0.00  0.00     0.289 A 
HETATM    8  C   UNK N   1      34.914  15.554   8.313  0.00  0.00     0.149 C 
HETATM    9  C   UNK N   1      31.430  17.219   5.425  0.00  0.00     0.680 A 
HETATM   10  C   UNK N   1      34.342  16.400   9.458  0.00  0.00     0.131 C 
HETATM   11  N   UNK N   1      30.595  17.347   6.492  0.00  0.00    -0.154 N 
HETATM   12  O   UNK N   1      30.284  17.245   8.711  0.00  0.00    -0.265 OA
HETATM   13  N   UNK N   1      30.950  17.466   4.124  0.00  0.00    -0.234 N 
HETATM   14  H   UNK N   1      35.186  16.205   6.309  0.00  0.00     0.161 HD
HETATM   15  H   UNK N   1      32.303  16.491  10.048  0.00  0.00     0.160 HD
HETATM   16  H   UNK N   1      29.656  17.603   6.346  0.00  0.00     0.187 HD
HETATM   17  H   UNK N   1      31.560  17.400   3.354  0.00  0.00     0.174 HD
HETATM   18  H   UNK N   1      30.006  17.703   3.985  0.00  0.00     0.174 HD
ENDROOT
BRANCH  10  19
HETATM   19  C   UNK N   1      34.645  15.819  10.852  0.00  0.00     0.170 C 
BRANCH  19  20
HETATM   20  C   UNK N   1      36.015  15.132  10.939  0.00  0.00     0.145 C 
HETATM   21  C   UNK N   1      36.118  14.299  12.203  0.00  0.00     0.042 C 
BRANCH  20  22
HETATM   22  O   UNK N   1      37.057  16.058  10.909  0.00  0.00    -0.393 OA
HETATM   23  H   UNK N   1      37.938  16.233  10.543  0.00  0.00     0.210 HD
ENDBRANCH  20  22
ENDBRANCH  19  20
BRANCH  19  24
HETATM   24  O   UNK N   1      33.653  14.911  11.232  0.00  0.00    -0.391 OA
HETATM   25  H   UNK N   1      33.365  14.209  11.837  0.00  0.00     0.210 HD
ENDBRANCH  19  24
ENDBRANCH  10  19
TORSDOF 4
ENDMDL
MODEL 9
REMARK VINA RESULT:      -5.8      2.904      3.938
REMARK  4 active torsions:
REMARK  status: ('A' for Active; 'I' for Inactive)
REMARK       I    between atoms: C_9  and  N_13 
REMARK    1  A    between atoms: C_10  and  C_14 
REMARK    2  A    between atoms: C_14  and  C_15 
REMARK    3  A    between atoms: C_14  and  O_16 
REMARK    4  A    between atoms: C_15  and  O_18 
ROOT
HETATM    1  C   UNK N   1      32.699  15.905   9.233  0.00  0.00     0.149 A 
HETATM    2  C   UNK N   1      33.742  16.342   8.413  0.00  0.00     0.142 A 
HETATM    3  N   UNK N   1      33.001  15.149  10.392  0.00  0.00    -0.372 N 
HETATM    4  N   UNK N   1      31.416  16.242   8.943  0.00  0.00    -0.175 N 
ATOM      5  HN  UNK N   1      30.659  15.903   9.537  1.00  0.00     0.186 HD
HETATM    6  N   UNK N   1      35.076  15.948   8.708  0.00  0.00    -0.374 N 
HETATM    7  C   UNK N   1      33.440  17.168   7.329  0.00  0.00     0.289 A 
HETATM    8  C   UNK N   1      34.367  15.097  10.876  0.00  0.00     0.149 C 
HETATM    9  C   UNK N   1      31.130  17.024   7.867  0.00  0.00     0.680 A 
HETATM   10  C   UNK N   1      35.325  14.908   9.693  0.00  0.00     0.131 C 
HETATM   11  N   UNK N   1      32.132  17.494   7.076  0.00  0.00    -0.154 N 
HETATM   12  O   UNK N   1      34.324  17.597   6.609  0.00  0.00    -0.265 OA
HETATM   13  N   UNK N   1      29.792  17.361   7.581  0.00  0.00    -0.234 N 
HETATM   14  H   UNK N   1      32.287  14.663  10.867  0.00  0.00     0.161 HD
HETATM   15  H   UNK N   1      35.830  16.379   8.245  0.00  0.00     0.160 HD
HETATM   16  H   UNK N   1      31.916  18.076   6.312  0.00  0.00     0.187 HD
HETATM   17  H   UNK N   1      29.064  16.999   8.136  0.00  0.00     0.174 HD
HETATM   18  H   UNK N   1      29.586  17.958   6.827  0.00  0.00     0.174 HD
ENDROOT
BRANCH  10  19
HETATM   19  C   UNK N   1      36.809  14.908  10.106  0.00  0.00     0.170 C 
BRANCH  19  20
HETATM   20  C   UNK N   1      37.247  13.607  10.794  0.00  0.00     0.145 C 
HETATM   21  C   UNK N   1      36.394  12.442  10.329  0.00  0.00     0.042 C 
BRANCH  20  22
HETATM   22  O   UNK N   1      37.173  13.710  12.182  0.00  0.00    -0.393 OA
HETATM   23  H   UNK N   1      37.606  14.090  12.963  0.00  0.00     0.210 HD
ENDBRANCH  20  22
ENDBRANCH  19  20
BRANCH  19  24
HETATM   24  O   UNK N   1      37.083  15.987  10.952  0.00  0.00    -0.391 OA
HETATM   25  H   UNK N   1      36.817  16.854  11.296  0.00  0.00     0.210 HD
ENDBRANCH  19  24
ENDBRANCH  10  19
TORSDOF 4
ENDMDL
