REMARK  7 active torsions:
REMARK  status: ('A' for Active; 'I' for Inactive)
REMARK    1  A    between atoms: C_3  and  O_9 
REMARK    2  A    between atoms: C_4  and  N_11 
REMARK    3  A    between atoms: C_5  and  O_13 
REMARK    4  A    between atoms: C_10  and  O_17 
REMARK    5  A    between atoms: C_14  and  C_21 
REMARK    6  A    between atoms: C_16  and  O_33 
REMARK       I    between atoms: C_21  and  N_26 
REMARK    7  A    between atoms: C_29  and  O_32 
ROOT
HETATM    1  C   UNK N   1      14.608 -10.033  -0.257  0.00  0.00     0.104 C 
HETATM    2  C   UNK N   1      14.516 -11.483   0.281  0.00  0.00     0.180 C 
HETATM    3  C   UNK N   1      13.218  -9.338  -0.177  0.00  0.00     0.140 C 
HETATM    4  C   UNK N   1      15.754  -9.367   0.547  0.00  0.00     0.289 C 
HETATM    5  C   UNK N   1      13.274 -12.180  -0.272  0.00  0.00     0.097 C 
HETATM    6  C   UNK N   1      15.842 -12.191   0.022  0.00  0.00     0.208 C 
HETATM    7  O   UNK N   1      14.355 -11.427   1.673  0.00  0.00    -0.374 OA
HETATM    8  C   UNK N   1      12.009 -10.139   0.383  0.00  0.00     0.093 C 
HETATM    9  C   UNK N   1      17.091 -10.074   0.302  0.00  0.00     0.096 C 
HETATM   10  C   UNK N   1      12.065 -11.549  -0.195  0.00  0.00     0.035 C 
HETATM   11  C   UNK N   1      17.132 -11.418   0.064  0.00  0.00     0.112 C 
HETATM   12  O   UNK N   1      15.860 -13.392  -0.209  0.00  0.00    -0.288 OA
HETATM   13  C   UNK N   1      10.685  -9.374   0.054  0.00  0.00     0.092 C 
HETATM   14  C   UNK N   1      10.794 -12.238  -0.578  0.00  0.00     0.195 C 
HETATM   15  C   UNK N   1       9.435 -10.227   0.068  0.00  0.00    -0.007 A 
HETATM   16  C   UNK N   1      10.547  -8.208   1.037  0.00  0.00     0.052 C 
HETATM   17  C   UNK N   1       9.481 -11.588  -0.310  0.00  0.00     0.057 A 
HETATM   18  O   UNK N   1      10.826 -13.377  -1.020  0.00  0.00    -0.287 OA
HETATM   19  C   UNK N   1       8.185  -9.608   0.256  0.00  0.00     0.011 A 
HETATM   20  C   UNK N   1       8.266 -12.311  -0.431  0.00  0.00     0.080 A 
HETATM   21  C   UNK N   1       7.002 -10.330   0.141  0.00  0.00     0.003 A 
HETATM   22  C   UNK N   1       7.044 -11.678  -0.199  0.00  0.00     0.037 A 
HETATM   23  H   UNK N   1      14.333 -11.311   2.636  0.00  0.00     0.211 HD
ENDROOT
BRANCH   5  24
HETATM   24  O   UNK N   1      13.368 -13.419  -0.803  0.00  0.00    -0.361 OA
HETATM   25  H   UNK N   1      12.657 -13.905  -1.171  0.00  0.00     0.217 HD
ENDBRANCH   5  24
BRANCH   3  26
HETATM   26  O   UNK N   1      13.236  -7.980   0.147  0.00  0.00    -0.394 OA
HETATM   27  H   UNK N   1      14.059  -7.519   0.372  0.00  0.00     0.210 HD
ENDBRANCH   3  26
BRANCH   4  28
HETATM   28  N   UNK N   1      15.803  -7.897   0.464  0.00  0.00     0.091 N 
HETATM   29  C   UNK N   1      16.377  -7.420  -0.787  0.00  0.00     0.310 C 
HETATM   30  C   UNK N   1      16.555  -7.356   1.586  0.00  0.00     0.310 C 
ENDBRANCH   4  28
BRANCH  11  31
HETATM   31  C   UNK N   1      18.436 -12.130  -0.200  0.00  0.00     0.255 C 
HETATM   32  N   UNK N   1      19.610 -11.468  -0.200  0.00  0.00    -0.366 N 
HETATM   33  H   UNK N   1      20.457 -11.969  -0.201  0.00  0.00     0.159 HD
HETATM   34  H   UNK N   1      19.620 -10.484  -0.200  0.00  0.00     0.159 HD
HETATM   35  O   UNK N   1      18.442 -13.330  -0.429  0.00  0.00    -0.268 OA
ENDBRANCH  11  31
BRANCH   9  36
HETATM   36  O   UNK N   1      18.226  -9.344   0.310  0.00  0.00    -0.362 OA
HETATM   37  H   UNK N   1      19.059  -9.774   0.315  0.00  0.00     0.217 HD
ENDBRANCH   9  36
BRANCH  13  38
HETATM   38  O   UNK N   1      10.762  -8.839  -1.237  0.00  0.00    -0.385 OA
HETATM   39  H   UNK N   1      11.110  -8.699  -2.132  0.00  0.00     0.211 HD
ENDBRANCH  13  38
BRANCH  20  40
HETATM   40  O   UNK N   1       8.260 -13.612  -0.768  0.00  0.00    -0.360 OA
HETATM   41  H   UNK N   1       7.473 -14.063  -1.003  0.00  0.00     0.217 HD
ENDBRANCH  20  40
TORSDOF 7
