REMARK  7 active torsions:
REMARK  status: ('A' for Active; 'I' for Inactive)
REMARK    1  A    between atoms: C_2  and  C_1 
REMARK    2  A    between atoms: N_7  and  C_1 
REMARK    3  A    between atoms: C_3  and  C_2 
REMARK    4  A    between atoms: C_4  and  C_3 
REMARK    5  A    between atoms: C_5  and  C_4 
REMARK    6  A    between atoms: C_4  and  N_8 
REMARK    7  A    between atoms: O_9  and  C_5 
ROOT
HETATM    1  C   UNK N   1       0.930  -0.463   0.000  0.00  0.00     0.173 C 
ENDROOT
BRANCH   1   2
HETATM    2  C   UNK N   1      -0.598  -0.472  -0.000  0.00  0.00     0.037 C 
BRANCH   2   3
HETATM    3  C   UNK N   1      -1.267   0.897   0.000  0.00  0.00     0.021 C 
BRANCH   3   4
HETATM    4  C   UNK N   1      -2.801   0.830  -0.000  0.00  0.00     0.111 C 
BRANCH   4   5
HETATM    5  N   UNK N   1      -3.315  -0.533   0.000  0.00  0.00    -0.430 N 
HETATM    6  H   UNK N   1      -4.322  -0.699   0.000  0.00  0.00     0.149 HD
HETATM    7  H   UNK N   1      -2.669  -1.322   0.000  0.00  0.00     0.149 HD
ENDBRANCH   4   5
ENDBRANCH   3   4
ENDBRANCH   2   3
ENDBRANCH   1   2
BRANCH   1   8
HETATM    8  C   UNK N   1       1.854   0.727  -0.000  0.00  0.00     0.163 C 
HETATM    9  O   UNK N   1       1.412   1.863  -0.000  0.00  0.00    -0.648 OA
BRANCH   8  10
HETATM   10  O   UNK N   1       3.187   0.533  -0.000  0.00  0.00    -0.775 OA
HETATM   11  H   UNK N   1       3.535  -0.337   0.000  0.00  0.00     0.167 HD
ENDBRANCH   8  10
ENDBRANCH   1   8
BRANCH   1  12
HETATM   12  N   UNK N   1       1.557  -1.771  -0.000  0.00  0.00    -0.418 N 
HETATM   13  H   UNK N   1       0.981  -2.613  -0.000  0.00  0.00     0.150 HD
HETATM   14  H   UNK N   1       2.574  -1.849  -0.000  0.00  0.00     0.150 HD
ENDBRANCH   1  12
TORSDOF 7
