REMARK  9 active torsions:
REMARK  status: ('A' for Active; 'I' for Inactive)
REMARK    1  A    between atoms: C_23  and  C_13 
REMARK    2  A    between atoms: O_37  and  C_19 
REMARK    3  A    between atoms: O_38  and  C_20 
REMARK    4  A    between atoms: C_31  and  C_22 
REMARK    5  A    between atoms: O_33  and  C_25 
REMARK    6  A    between atoms: C_26  and  O_34 
REMARK    7  A    between atoms: C_27  and  O_35 
REMARK    8  A    between atoms: C_28  and  O_44 
REMARK    9  A    between atoms: C_32  and  O_44 
ROOT
HETATM    1  C   UNK N   1      10.451  -2.735   0.037  0.00  0.00     0.048 A 
HETATM    2  C   UNK N   1      10.390   0.034  -0.525  0.00  0.00     0.050 A 
HETATM    3  C   UNK N   1       5.878   0.065   1.771  0.00  0.00     0.187 C 
HETATM    4  C   UNK N   1      13.680  -1.378  -0.647  0.00  0.00     0.352 A 
HETATM    5  C   UNK N   1       9.210  -2.061   0.066  0.00  0.00    -0.037 A 
HETATM    6  C   UNK N   1       9.181  -0.635  -0.226  0.00  0.00    -0.019 A 
HETATM    7  C   UNK N   1       7.155  -0.493   1.139  0.00  0.00     0.058 C 
HETATM    8  C   UNK N   1      11.590  -2.017  -0.279  0.00  0.00     0.105 A 
HETATM    9  C   UNK N   1      11.571  -0.709  -0.540  0.00  0.00     0.105 A 
HETATM   10  C   UNK N   1       7.988  -2.805   0.652  0.00  0.00     0.066 C 
HETATM   11  C   UNK N   1       6.740  -1.892   0.671  0.00  0.00     0.107 C 
HETATM   12  C   UNK N   1       7.890   0.166  -0.067  0.00  0.00     0.165 C 
HETATM   13  C   UNK N   1       5.622  -2.144   1.623  0.00  0.00     0.264 C 
HETATM   14  O   UNK N   1       4.986  -3.181   1.692  0.00  0.00    -0.265 OA
HETATM   15  O   UNK N   1       5.207  -1.035   2.232  0.00  0.00    -0.321 OA
HETATM   16  O   UNK N   1      12.848  -2.457  -0.338  0.00  0.00    -0.323 OA
HETATM   17  O   UNK N   1      12.810  -0.286  -0.769  0.00  0.00    -0.323 OA
ENDROOT
BRANCH  12  18
HETATM   18  O   UNK N   1       8.129   1.578   0.049  0.00  0.00    -0.348 OA
BRANCH  18  19
HETATM   19  C   UNK N   1       6.902   2.308   0.141  0.00  0.00     0.292 C 
HETATM   20  C   UNK N   1       7.023   3.816  -0.177  0.00  0.00     0.204 C 
HETATM   21  C   UNK N   1       5.591   4.436  -0.350  0.00  0.00     0.183 C 
HETATM   22  C   UNK N   1       4.529   3.580   0.388  0.00  0.00     0.187 C 
HETATM   23  C   UNK N   1       4.598   2.136  -0.207  0.00  0.00     0.180 C 
HETATM   24  O   UNK N   1       3.239   4.162   0.244  0.00  0.00    -0.346 OA
HETATM   25  C   UNK N   1       3.603   2.101  -1.350  0.00  0.00     0.206 C 
HETATM   26  O   UNK N   1       5.885   1.766  -0.689  0.00  0.00    -0.348 OA
HETATM   27  O   UNK N   1       2.278   2.319  -0.897  0.00  0.00    -0.354 OA
HETATM   28  C   UNK N   1       2.212   3.176   0.244  0.00  0.00     0.301 C 
BRANCH  20  29
HETATM   29  O   UNK N   1       7.695   4.441   0.877  0.00  0.00    -0.388 OA
HETATM   30  H   UNK N   1       8.304   4.254   1.608  0.00  0.00     0.210 HD
ENDBRANCH  20  29
BRANCH  21  31
HETATM   31  O   UNK N   1       5.266   4.470  -1.710  0.00  0.00    -0.390 OA
HETATM   32  H   UNK N   1       5.174   4.677  -2.654  0.00  0.00     0.210 HD
ENDBRANCH  21  31
BRANCH  28  33
HETATM   33  C   UNK N   1       0.897   3.881   0.238  0.00  0.00     0.037 A 
HETATM   34  C   UNK N   1      -0.097   3.789  -0.735  0.00  0.00     0.020 A 
HETATM   35  C   UNK N   1      -1.227   4.605  -0.448  0.00  0.00     0.008 A 
HETATM   36  C   UNK N   1      -1.118   5.331   0.748  0.00  0.00     0.050 A 
HETATM   37  S   UNK N   1       0.359   4.934   1.391  0.00  0.00    -0.102 SA
ENDBRANCH  28  33
ENDBRANCH  18  19
ENDBRANCH  12  18
BRANCH  10  38
HETATM   38  C   UNK N   1       7.709  -4.211   0.109  0.00  0.00    -0.043 A 
HETATM   39  C   UNK N   1       8.751  -5.137  -0.019  0.00  0.00     0.047 A 
HETATM   40  C   UNK N   1       8.497  -6.480  -0.351  0.00  0.00     0.104 A 
HETATM   41  C   UNK N   1       7.172  -6.914  -0.505  0.00  0.00     0.132 A 
HETATM   42  C   UNK N   1       6.114  -6.009  -0.365  0.00  0.00     0.104 A 
HETATM   43  C   UNK N   1       6.395  -4.665  -0.078  0.00  0.00     0.047 A 
BRANCH  40  44
HETATM   44  O   UNK N   1       9.508  -7.368  -0.503  0.00  0.00    -0.353 OA
HETATM   45  C   UNK N   1      10.837  -7.020  -0.407  0.00  0.00     0.210 C 
ENDBRANCH  40  44
BRANCH  41  46
HETATM   46  O   UNK N   1       6.917  -8.207  -0.775  0.00  0.00    -0.356 OA
HETATM   47  H   UNK N   1       6.048  -8.503  -0.963  0.00  0.00     0.218 HD
ENDBRANCH  41  46
BRANCH  42  48
HETATM   48  O   UNK N   1       4.837  -6.454  -0.476  0.00  0.00    -0.353 OA
HETATM   49  C   UNK N   1       3.736  -5.662  -0.234  0.00  0.00     0.210 C 
ENDBRANCH  42  48
ENDBRANCH  10  38
TORSDOF 9
