MODEL 1
REMARK VINA RESULT:      -7.3      0.000      0.000
REMARK  6 active torsions:
REMARK  status: ('A' for Active; 'I' for Inactive)
REMARK    1  A    between atoms: C_2  and  O_10 
REMARK    2  A    between atoms: O_10  and  C_11 
REMARK    3  A    between atoms: C_11  and  C_12 
REMARK    4  A    between atoms: C_12  and  O_14 
REMARK    5  A    between atoms: C_12  and  C_15 
REMARK    6  A    between atoms: C_12  and  C_16 
ROOT
HETATM    1  C   UNK N   1      35.262  12.203  15.391  0.00  0.00     0.201 C 
ENDROOT
BRANCH   1   2
HETATM    2  C   UNK N   1      35.975  13.454  14.865  0.00  0.00     0.303 C 
HETATM    3  O   UNK N   1      37.021  13.811  15.370  0.00  0.00    -0.261 OA
BRANCH   2   4
HETATM    4  O   UNK N   1      35.514  14.125  13.777  0.00  0.00    -0.311 OA
BRANCH   4   5
HETATM    5  C   UNK N   1      36.332  14.331  12.685  0.00  0.00     0.162 C 
HETATM    6  C   UNK N   1      35.686  15.361  11.728  0.00  0.00     0.269 C 
HETATM    7  N   UNK N   1      35.566  14.808  10.367  0.00  0.00    -0.068 N 
HETATM    8  C   UNK N   1      34.982  15.807   9.492  0.00  0.00     0.272 C 
HETATM    9  C   UNK N   1      34.694  13.620  10.391  0.00  0.00     0.237 C 
HETATM   10  C   UNK N   1      36.898  14.435   9.858  0.00  0.00     0.237 C 
HETATM   11  C   UNK N   1      35.281  12.528  11.312  0.00  0.00     0.035 C 
HETATM   12  C   UNK N   1      36.601  13.023  11.918  0.00  0.00     0.020 C 
HETATM   13  C   UNK N   1      37.547  13.361  10.759  0.00  0.00     0.035 C 
ENDBRANCH   4   5
ENDBRANCH   2   4
ENDBRANCH   1   2
BRANCH   1  14
HETATM   14  O   UNK N   1      33.933  12.276  14.956  0.00  0.00    -0.371 OA
HETATM   15  H   UNK N   1      32.977  12.185  14.818  0.00  0.00     0.212 HD
ENDBRANCH   1  14
BRANCH   1  16
HETATM   16  C   UNK N   1      35.313  12.167  16.915  0.00  0.00    -0.009 A 
HETATM   17  C   UNK N   1      35.068  13.347  17.647  0.00  0.00     0.011 A 
HETATM   18  C   UNK N   1      35.122  13.343  19.042  0.00  0.00     0.001 A 
HETATM   19  C   UNK N   1      35.424  12.161  19.723  0.00  0.00     0.000 A 
HETATM   20  C   UNK N   1      35.670  10.985  19.009  0.00  0.00     0.001 A 
HETATM   21  C   UNK N   1      35.616  10.985  17.610  0.00  0.00     0.011 A 
ENDBRANCH   1  16
BRANCH   1  22
HETATM   22  C   UNK N   1      35.854  10.913  14.806  0.00  0.00    -0.009 A 
HETATM   23  C   UNK N   1      37.245  10.776  14.663  0.00  0.00     0.011 A 
HETATM   24  C   UNK N   1      37.795   9.628  14.083  0.00  0.00     0.001 A 
HETATM   25  C   UNK N   1      36.960   8.614  13.611  0.00  0.00     0.000 A 
HETATM   26  C   UNK N   1      35.576   8.740  13.726  0.00  0.00     0.001 A 
HETATM   27  C   UNK N   1      35.027   9.879  14.320  0.00  0.00     0.011 A 
ENDBRANCH   1  22
TORSDOF 6
ENDMDL
MODEL 2
REMARK VINA RESULT:      -7.2      1.270      3.915
REMARK  6 active torsions:
REMARK  status: ('A' for Active; 'I' for Inactive)
REMARK    1  A    between atoms: C_2  and  O_10 
REMARK    2  A    between atoms: O_10  and  C_11 
REMARK    3  A    between atoms: C_11  and  C_12 
REMARK    4  A    between atoms: C_12  and  O_14 
REMARK    5  A    between atoms: C_12  and  C_15 
REMARK    6  A    between atoms: C_12  and  C_16 
ROOT
HETATM    1  C   UNK N   1      36.380  12.426  14.661  0.00  0.00     0.201 C 
ENDROOT
BRANCH   1   2
HETATM    2  C   UNK N   1      36.080  13.797  14.045  0.00  0.00     0.303 C 
HETATM    3  O   UNK N   1      36.689  14.778  14.427  0.00  0.00    -0.261 OA
BRANCH   2   4
HETATM    4  O   UNK N   1      35.214  13.932  13.006  0.00  0.00    -0.311 OA
BRANCH   4   5
HETATM    5  C   UNK N   1      35.603  14.579  11.851  0.00  0.00     0.162 C 
HETATM    6  C   UNK N   1      34.366  15.167  11.133  0.00  0.00     0.269 C 
HETATM    7  N   UNK N   1      34.295  14.692   9.739  0.00  0.00    -0.068 N 
HETATM    8  C   UNK N   1      33.140  15.282   9.088  0.00  0.00     0.272 C 
HETATM    9  C   UNK N   1      34.159  13.225   9.724  0.00  0.00     0.237 C 
HETATM   10  C   UNK N   1      35.515  15.085   9.012  0.00  0.00     0.237 C 
HETATM   11  C   UNK N   1      35.371  12.554  10.406  0.00  0.00     0.035 C 
HETATM   12  C   UNK N   1      36.348  13.634  10.891  0.00  0.00     0.020 C 
HETATM   13  C   UNK N   1      36.767  14.464   9.670  0.00  0.00     0.035 C 
ENDBRANCH   4   5
ENDBRANCH   2   4
ENDBRANCH   1   2
BRANCH   1  14
HETATM   14  O   UNK N   1      37.772  12.271  14.658  0.00  0.00    -0.371 OA
HETATM   15  H   UNK N   1      38.719  12.230  14.864  0.00  0.00     0.212 HD
ENDBRANCH   1  14
BRANCH   1  16
HETATM   16  C   UNK N   1      35.729  11.322  13.833  0.00  0.00    -0.009 A 
HETATM   17  C   UNK N   1      36.541  10.420  13.116  0.00  0.00     0.011 A 
HETATM   18  C   UNK N   1      35.970   9.410  12.340  0.00  0.00     0.001 A 
HETATM   19  C   UNK N   1      34.581   9.290  12.269  0.00  0.00     0.000 A 
HETATM   20  C   UNK N   1      33.764  10.178  12.974  0.00  0.00     0.001 A 
HETATM   21  C   UNK N   1      34.334  11.192  13.754  0.00  0.00     0.011 A 
ENDBRANCH   1  16
BRANCH   1  22
HETATM   22  C   UNK N   1      35.922  12.338  16.123  0.00  0.00    -0.009 A 
HETATM   23  C   UNK N   1      35.457  13.485  16.788  0.00  0.00     0.011 A 
HETATM   24  C   UNK N   1      35.087  13.429  18.136  0.00  0.00     0.001 A 
HETATM   25  C   UNK N   1      35.205  12.232  18.845  0.00  0.00     0.000 A 
HETATM   26  C   UNK N   1      35.683  11.088  18.208  0.00  0.00     0.001 A 
HETATM   27  C   UNK N   1      36.037  11.139  16.858  0.00  0.00     0.011 A 
ENDBRANCH   1  22
TORSDOF 6
ENDMDL
MODEL 3
REMARK VINA RESULT:      -6.9      0.924      4.061
REMARK  6 active torsions:
REMARK  status: ('A' for Active; 'I' for Inactive)
REMARK    1  A    between atoms: C_2  and  O_10 
REMARK    2  A    between atoms: O_10  and  C_11 
REMARK    3  A    between atoms: C_11  and  C_12 
REMARK    4  A    between atoms: C_12  and  O_14 
REMARK    5  A    between atoms: C_12  and  C_15 
REMARK    6  A    between atoms: C_12  and  C_16 
ROOT
HETATM    1  C   UNK N   1      36.205  12.330  15.116  0.00  0.00     0.201 C 
ENDROOT
BRANCH   1   2
HETATM    2  C   UNK N   1      35.026  12.765  14.240  0.00  0.00     0.303 C 
HETATM    3  O   UNK N   1      33.923  12.291  14.431  0.00  0.00    -0.261 OA
BRANCH   2   4
HETATM    4  O   UNK N   1      35.161  13.747  13.310  0.00  0.00    -0.311 OA
BRANCH   4   5
HETATM    5  C   UNK N   1      35.129  13.445  11.964  0.00  0.00     0.162 C 
HETATM    6  C   UNK N   1      36.571  13.341  11.412  0.00  0.00     0.269 C 
HETATM    7  N   UNK N   1      36.755  14.240  10.258  0.00  0.00    -0.068 N 
HETATM    8  C   UNK N   1      38.107  14.099   9.751  0.00  0.00     0.272 C 
HETATM    9  C   UNK N   1      36.542  15.636  10.681  0.00  0.00     0.237 C 
HETATM   10  C   UNK N   1      35.798  13.892   9.194  0.00  0.00     0.237 C 
HETATM   11  C   UNK N   1      35.111  15.832  11.228  0.00  0.00     0.035 C 
HETATM   12  C   UNK N   1      34.350  14.501  11.159  0.00  0.00     0.020 C 
HETATM   13  C   UNK N   1      34.344  14.043   9.694  0.00  0.00     0.035 C 
ENDBRANCH   4   5
ENDBRANCH   2   4
ENDBRANCH   1   2
BRANCH   1  14
HETATM   14  O   UNK N   1      37.190  13.319  14.998  0.00  0.00    -0.371 OA
HETATM   15  H   UNK N   1      37.999  13.836  14.858  0.00  0.00     0.212 HD
ENDBRANCH   1  14
BRANCH   1  16
HETATM   16  C   UNK N   1      36.752  10.988  14.639  0.00  0.00    -0.009 A 
HETATM   17  C   UNK N   1      38.141  10.750  14.676  0.00  0.00     0.011 A 
HETATM   18  C   UNK N   1      38.667   9.536  14.232  0.00  0.00     0.001 A 
HETATM   19  C   UNK N   1      37.813   8.546  13.741  0.00  0.00     0.000 A 
HETATM   20  C   UNK N   1      36.434   8.770  13.697  0.00  0.00     0.001 A 
HETATM   21  C   UNK N   1      35.904   9.986  14.143  0.00  0.00     0.011 A 
ENDBRANCH   1  16
BRANCH   1  22
HETATM   22  C   UNK N   1      35.824  12.253  16.601  0.00  0.00    -0.009 A 
HETATM   23  C   UNK N   1      35.457  13.417  17.297  0.00  0.00     0.011 A 
HETATM   24  C   UNK N   1      35.159  13.369  18.663  0.00  0.00     0.001 A 
HETATM   25  C   UNK N   1      35.250  12.161  19.358  0.00  0.00     0.000 A 
HETATM   26  C   UNK N   1      35.631  10.999  18.688  0.00  0.00     0.001 A 
HETATM   27  C   UNK N   1      35.914  11.043  17.321  0.00  0.00     0.011 A 
ENDBRANCH   1  22
TORSDOF 6
ENDMDL
MODEL 4
REMARK VINA RESULT:      -6.9      8.415     12.620
REMARK  6 active torsions:
REMARK  status: ('A' for Active; 'I' for Inactive)
REMARK    1  A    between atoms: C_2  and  O_10 
REMARK    2  A    between atoms: O_10  and  C_11 
REMARK    3  A    between atoms: C_11  and  C_12 
REMARK    4  A    between atoms: C_12  and  O_14 
REMARK    5  A    between atoms: C_12  and  C_15 
REMARK    6  A    between atoms: C_12  and  C_16 
ROOT
HETATM    1  C   UNK N   1      27.760  17.256   6.439  0.00  0.00     0.201 C 
ENDROOT
BRANCH   1   2
HETATM    2  C   UNK N   1      28.760  17.417   7.589  0.00  0.00     0.303 C 
HETATM    3  O   UNK N   1      28.409  17.197   8.732  0.00  0.00    -0.261 OA
BRANCH   2   4
HETATM    4  O   UNK N   1      30.067  17.708   7.354  0.00  0.00    -0.311 OA
BRANCH   4   5
HETATM    5  C   UNK N   1      31.067  16.948   7.926  0.00  0.00     0.162 C 
HETATM    6  C   UNK N   1      32.230  17.860   8.381  0.00  0.00     0.269 C 
HETATM    7  N   UNK N   1      33.505  17.416   7.790  0.00  0.00    -0.068 N 
HETATM    8  C   UNK N   1      34.577  18.276   8.258  0.00  0.00     0.272 C 
HETATM    9  C   UNK N   1      33.426  17.502   6.321  0.00  0.00     0.237 C 
HETATM   10  C   UNK N   1      33.788  16.027   8.192  0.00  0.00     0.237 C 
HETATM   11  C   UNK N   1      32.296  16.598   5.780  0.00  0.00     0.035 C 
HETATM   12  C   UNK N   1      31.605  15.885   6.950  0.00  0.00     0.020 C 
HETATM   13  C   UNK N   1      32.672  15.078   7.700  0.00  0.00     0.035 C 
ENDBRANCH   4   5
ENDBRANCH   2   4
ENDBRANCH   1   2
BRANCH   1  14
HETATM   14  O   UNK N   1      26.661  16.552   6.948  0.00  0.00    -0.371 OA
HETATM   15  H   UNK N   1      26.013  16.073   7.488  0.00  0.00     0.212 HD
ENDBRANCH   1  14
BRANCH   1  16
HETATM   16  C   UNK N   1      28.395  16.476   5.292  0.00  0.00    -0.009 A 
HETATM   17  C   UNK N   1      28.446  15.068   5.352  0.00  0.00     0.011 A 
HETATM   18  C   UNK N   1      29.034  14.333   4.322  0.00  0.00     0.001 A 
HETATM   19  C   UNK N   1      29.581  14.994   3.221  0.00  0.00     0.000 A 
HETATM   20  C   UNK N   1      29.539  16.389   3.149  0.00  0.00     0.001 A 
HETATM   21  C   UNK N   1      28.949  17.129   4.180  0.00  0.00     0.011 A 
ENDBRANCH   1  16
BRANCH   1  22
HETATM   22  C   UNK N   1      27.234  18.608   5.939  0.00  0.00    -0.009 A 
HETATM   23  C   UNK N   1      27.749  19.805   6.464  0.00  0.00     0.011 A 
HETATM   24  C   UNK N   1      27.241  21.042   6.055  0.00  0.00     0.001 A 
HETATM   25  C   UNK N   1      26.191  21.099   5.137  0.00  0.00     0.000 A 
HETATM   26  C   UNK N   1      25.652  19.922   4.620  0.00  0.00     0.001 A 
HETATM   27  C   UNK N   1      26.170  18.686   5.015  0.00  0.00     0.011 A 
ENDBRANCH   1  22
TORSDOF 6
ENDMDL
MODEL 5
REMARK VINA RESULT:      -6.7      8.044     12.746
REMARK  6 active torsions:
REMARK  status: ('A' for Active; 'I' for Inactive)
REMARK    1  A    between atoms: C_2  and  O_10 
REMARK    2  A    between atoms: O_10  and  C_11 
REMARK    3  A    between atoms: C_11  and  C_12 
REMARK    4  A    between atoms: C_12  and  O_14 
REMARK    5  A    between atoms: C_12  and  C_15 
REMARK    6  A    between atoms: C_12  and  C_16 
ROOT
HETATM    1  C   UNK N   1      29.049  17.683   4.830  0.00  0.00     0.201 C 
ENDROOT
BRANCH   1   2
HETATM    2  C   UNK N   1      29.513  16.924   6.078  0.00  0.00     0.303 C 
HETATM    3  O   UNK N   1      28.889  15.955   6.464  0.00  0.00    -0.261 OA
BRANCH   2   4
HETATM    4  O   UNK N   1      30.670  17.250   6.714  0.00  0.00    -0.311 OA
BRANCH   4   5
HETATM    5  C   UNK N   1      31.610  16.281   6.994  0.00  0.00     0.162 C 
HETATM    6  C   UNK N   1      32.338  16.617   8.317  0.00  0.00     0.269 C 
HETATM    7  N   UNK N   1      33.797  16.660   8.116  0.00  0.00    -0.068 N 
HETATM    8  C   UNK N   1      34.449  16.952   9.379  0.00  0.00     0.272 C 
HETATM    9  C   UNK N   1      34.131  17.720   7.147  0.00  0.00     0.237 C 
HETATM   10  C   UNK N   1      34.274  15.360   7.613  0.00  0.00     0.237 C 
HETATM   11  C   UNK N   1      33.458  17.447   5.783  0.00  0.00     0.035 C 
HETATM   12  C   UNK N   1      32.646  16.147   5.863  0.00  0.00     0.020 C 
HETATM   13  C   UNK N   1      33.610  15.021   6.259  0.00  0.00     0.035 C 
ENDBRANCH   4   5
ENDBRANCH   2   4
ENDBRANCH   1   2
BRANCH   1  14
HETATM   14  O   UNK N   1      30.201  18.100   4.152  0.00  0.00    -0.371 OA
HETATM   15  H   UNK N   1      30.965  18.577   3.790  0.00  0.00     0.212 HD
ENDBRANCH   1  14
BRANCH   1  16
HETATM   16  C   UNK N   1      28.210  18.892   5.228  0.00  0.00    -0.009 A 
HETATM   17  C   UNK N   1      27.712  19.754   4.229  0.00  0.00     0.011 A 
HETATM   18  C   UNK N   1      26.954  20.875   4.570  0.00  0.00     0.001 A 
HETATM   19  C   UNK N   1      26.685  21.152   5.912  0.00  0.00     0.000 A 
HETATM   20  C   UNK N   1      27.173  20.307   6.912  0.00  0.00     0.001 A 
HETATM   21  C   UNK N   1      27.933  19.181   6.574  0.00  0.00     0.011 A 
ENDBRANCH   1  16
BRANCH   1  22
HETATM   22  C   UNK N   1      28.264  16.783   3.866  0.00  0.00    -0.009 A 
HETATM   23  C   UNK N   1      28.946  15.975   2.940  0.00  0.00     0.011 A 
HETATM   24  C   UNK N   1      28.242  15.190   2.021  0.00  0.00     0.001 A 
HETATM   25  C   UNK N   1      26.846  15.224   1.995  0.00  0.00     0.000 A 
HETATM   26  C   UNK N   1      26.152  16.035   2.893  0.00  0.00     0.001 A 
HETATM   27  C   UNK N   1      26.854  16.806   3.822  0.00  0.00     0.011 A 
ENDBRANCH   1  22
TORSDOF 6
ENDMDL
MODEL 6
REMARK VINA RESULT:      -6.7     20.210     23.876
REMARK  6 active torsions:
REMARK  status: ('A' for Active; 'I' for Inactive)
REMARK    1  A    between atoms: C_2  and  O_10 
REMARK    2  A    between atoms: O_10  and  C_11 
REMARK    3  A    between atoms: C_11  and  C_12 
REMARK    4  A    between atoms: C_12  and  O_14 
REMARK    5  A    between atoms: C_12  and  C_15 
REMARK    6  A    between atoms: C_12  and  C_16 
ROOT
HETATM    1  C   UNK N   1      27.516  24.639  -4.012  0.00  0.00     0.201 C 
ENDROOT
BRANCH   1   2
HETATM    2  C   UNK N   1      28.990  24.520  -3.612  0.00  0.00     0.303 C 
HETATM    3  O   UNK N   1      29.694  25.512  -3.594  0.00  0.00    -0.261 OA
BRANCH   2   4
HETATM    4  O   UNK N   1      29.513  23.342  -3.180  0.00  0.00    -0.311 OA
BRANCH   4   5
HETATM    5  C   UNK N   1      30.870  23.106  -3.267  0.00  0.00     0.162 C 
HETATM    6  C   UNK N   1      31.364  23.389  -4.705  0.00  0.00     0.269 C 
HETATM    7  N   UNK N   1      32.064  22.216  -5.259  0.00  0.00    -0.068 N 
HETATM    8  C   UNK N   1      32.536  22.525  -6.596  0.00  0.00     0.272 C 
HETATM    9  C   UNK N   1      31.135  21.074  -5.328  0.00  0.00     0.237 C 
HETATM   10  C   UNK N   1      33.214  21.869  -4.406  0.00  0.00     0.237 C 
HETATM   11  C   UNK N   1      30.609  20.709  -3.922  0.00  0.00     0.035 C 
HETATM   12  C   UNK N   1      31.223  21.657  -2.883  0.00  0.00     0.020 C 
HETATM   13  C   UNK N   1      32.749  21.521  -2.974  0.00  0.00     0.035 C 
ENDBRANCH   4   5
ENDBRANCH   2   4
ENDBRANCH   1   2
BRANCH   1  14
HETATM   14  O   UNK N   1      26.760  24.157  -2.937  0.00  0.00    -0.371 OA
HETATM   15  H   UNK N   1      26.081  23.796  -2.344  0.00  0.00     0.212 HD
ENDBRANCH   1  14
BRANCH   1  16
HETATM   16  C   UNK N   1      27.239  23.807  -5.260  0.00  0.00    -0.009 A 
HETATM   17  C   UNK N   1      25.907  23.511  -5.618  0.00  0.00     0.011 A 
HETATM   18  C   UNK N   1      25.628  22.740  -6.748  0.00  0.00     0.001 A 
HETATM   19  C   UNK N   1      26.675  22.253  -7.533  0.00  0.00     0.000 A 
HETATM   20  C   UNK N   1      28.000  22.537  -7.189  0.00  0.00     0.001 A 
HETATM   21  C   UNK N   1      28.283  23.311  -6.057  0.00  0.00     0.011 A 
ENDBRANCH   1  16
BRANCH   1  22
HETATM   22  C   UNK N   1      27.094  26.097  -4.238  0.00  0.00    -0.009 A 
HETATM   23  C   UNK N   1      26.339  26.772  -3.265  0.00  0.00     0.011 A 
HETATM   24  C   UNK N   1      25.903  28.084  -3.481  0.00  0.00     0.001 A 
HETATM   25  C   UNK N   1      26.193  28.729  -4.685  0.00  0.00     0.000 A 
HETATM   26  C   UNK N   1      26.924  28.068  -5.671  0.00  0.00     0.001 A 
HETATM   27  C   UNK N   1      27.374  26.764  -5.449  0.00  0.00     0.011 A 
ENDBRANCH   1  22
TORSDOF 6
ENDMDL
MODEL 7
REMARK VINA RESULT:      -6.5      3.021      6.771
REMARK  6 active torsions:
REMARK  status: ('A' for Active; 'I' for Inactive)
REMARK    1  A    between atoms: C_2  and  O_10 
REMARK    2  A    between atoms: O_10  and  C_11 
REMARK    3  A    between atoms: C_11  and  C_12 
REMARK    4  A    between atoms: C_12  and  O_14 
REMARK    5  A    between atoms: C_12  and  C_15 
REMARK    6  A    between atoms: C_12  and  C_16 
ROOT
HETATM    1  C   UNK N   1      36.319  14.834  10.870  0.00  0.00     0.201 C 
ENDROOT
BRANCH   1   2
HETATM    2  C   UNK N   1      34.867  15.205  10.548  0.00  0.00     0.303 C 
HETATM    3  O   UNK N   1      33.964  14.766  11.233  0.00  0.00    -0.261 OA
BRANCH   2   4
HETATM    4  O   UNK N   1      34.566  16.097   9.566  0.00  0.00    -0.311 OA
BRANCH   4   5
HETATM    5  C   UNK N   1      33.335  16.064   8.946  0.00  0.00     0.162 C 
HETATM    6  C   UNK N   1      33.436  15.287   7.612  0.00  0.00     0.269 C 
HETATM    7  N   UNK N   1      32.945  16.106   6.490  0.00  0.00    -0.068 N 
HETATM    8  C   UNK N   1      33.029  15.339   5.261  0.00  0.00     0.272 C 
HETATM    9  C   UNK N   1      33.777  17.316   6.360  0.00  0.00     0.237 C 
HETATM   10  C   UNK N   1      31.543  16.492   6.726  0.00  0.00     0.237 C 
HETATM   11  C   UNK N   1      33.715  18.165   7.649  0.00  0.00     0.035 C 
HETATM   12  C   UNK N   1      32.797  17.480   8.670  0.00  0.00     0.020 C 
HETATM   13  C   UNK N   1      31.415  17.324   8.022  0.00  0.00     0.035 C 
ENDBRANCH   4   5
ENDBRANCH   2   4
ENDBRANCH   1   2
BRANCH   1  14
HETATM   14  O   UNK N   1      37.023  16.034  11.023  0.00  0.00    -0.371 OA
HETATM   15  H   UNK N   1      37.422  16.915  10.934  0.00  0.00     0.212 HD
ENDBRANCH   1  14
BRANCH   1  16
HETATM   16  C   UNK N   1      36.920  14.015   9.733  0.00  0.00    -0.009 A 
HETATM   17  C   UNK N   1      38.306  14.088   9.480  0.00  0.00     0.011 A 
HETATM   18  C   UNK N   1      38.878  13.359   8.436  0.00  0.00     0.001 A 
HETATM   19  C   UNK N   1      38.074  12.551   7.630  0.00  0.00     0.000 A 
HETATM   20  C   UNK N   1      36.699  12.471   7.868  0.00  0.00     0.001 A 
HETATM   21  C   UNK N   1      36.122  13.200   8.915  0.00  0.00     0.011 A 
ENDBRANCH   1  16
BRANCH   1  22
HETATM   22  C   UNK N   1      36.438  14.073  12.197  0.00  0.00    -0.009 A 
HETATM   23  C   UNK N   1      36.526  12.670  12.202  0.00  0.00     0.011 A 
HETATM   24  C   UNK N   1      36.582  11.961  13.407  0.00  0.00     0.001 A 
HETATM   25  C   UNK N   1      36.522  12.643  14.624  0.00  0.00     0.000 A 
HETATM   26  C   UNK N   1      36.414  14.033  14.640  0.00  0.00     0.001 A 
HETATM   27  C   UNK N   1      36.375  14.742  13.437  0.00  0.00     0.011 A 
ENDBRANCH   1  22
TORSDOF 6
ENDMDL
MODEL 8
REMARK VINA RESULT:      -6.5      1.094      4.037
REMARK  6 active torsions:
REMARK  status: ('A' for Active; 'I' for Inactive)
REMARK    1  A    between atoms: C_2  and  O_10 
REMARK    2  A    between atoms: O_10  and  C_11 
REMARK    3  A    between atoms: C_11  and  C_12 
REMARK    4  A    between atoms: C_12  and  O_14 
REMARK    5  A    between atoms: C_12  and  C_15 
REMARK    6  A    between atoms: C_12  and  C_16 
ROOT
HETATM    1  C   UNK N   1      36.458  12.106  14.762  0.00  0.00     0.201 C 
ENDROOT
BRANCH   1   2
HETATM    2  C   UNK N   1      35.412  12.573  13.744  0.00  0.00     0.303 C 
HETATM    3  O   UNK N   1      34.243  12.653  14.069  0.00  0.00    -0.261 OA
BRANCH   2   4
HETATM    4  O   UNK N   1      35.773  12.998  12.503  0.00  0.00    -0.311 OA
BRANCH   4   5
HETATM    5  C   UNK N   1      35.152  14.088  11.929  0.00  0.00     0.162 C 
HETATM    6  C   UNK N   1      34.390  13.651  10.656  0.00  0.00     0.269 C 
HETATM    7  N   UNK N   1      34.814  14.449   9.492  0.00  0.00    -0.068 N 
HETATM    8  C   UNK N   1      34.063  14.032   8.323  0.00  0.00     0.272 C 
HETATM    9  C   UNK N   1      36.251  14.234   9.243  0.00  0.00     0.237 C 
HETATM   10  C   UNK N   1      34.563  15.879   9.745  0.00  0.00     0.237 C 
HETATM   11  C   UNK N   1      37.090  14.668  10.464  0.00  0.00     0.035 C 
HETATM   12  C   UNK N   1      36.159  15.193  11.565  0.00  0.00     0.020 C 
HETATM   13  C   UNK N   1      35.358  16.363  10.978  0.00  0.00     0.035 C 
ENDBRANCH   4   5
ENDBRANCH   2   4
ENDBRANCH   1   2
BRANCH   1  14
HETATM   14  O   UNK N   1      37.621  12.849  14.524  0.00  0.00    -0.371 OA
HETATM   15  H   UNK N   1      38.310  13.528  14.445  0.00  0.00     0.212 HD
ENDBRANCH   1  14
BRANCH   1  16
HETATM   16  C   UNK N   1      36.742  10.619  14.583  0.00  0.00    -0.009 A 
HETATM   17  C   UNK N   1      35.694   9.750  14.214  0.00  0.00     0.011 A 
HETATM   18  C   UNK N   1      35.926   8.382  14.058  0.00  0.00     0.001 A 
HETATM   19  C   UNK N   1      37.205   7.865  14.271  0.00  0.00     0.000 A 
HETATM   20  C   UNK N   1      38.252   8.714  14.639  0.00  0.00     0.001 A 
HETATM   21  C   UNK N   1      38.023  10.086  14.796  0.00  0.00     0.011 A 
ENDBRANCH   1  16
BRANCH   1  22
HETATM   22  C   UNK N   1      36.027  12.399  16.206  0.00  0.00    -0.009 A 
HETATM   23  C   UNK N   1      35.768  11.341  17.093  0.00  0.00     0.011 A 
HETATM   24  C   UNK N   1      35.324  11.593  18.396  0.00  0.00     0.001 A 
HETATM   25  C   UNK N   1      35.106  12.905  18.820  0.00  0.00     0.000 A 
HETATM   26  C   UNK N   1      35.338  13.967  17.947  0.00  0.00     0.001 A 
HETATM   27  C   UNK N   1      35.797  13.717  16.652  0.00  0.00     0.011 A 
ENDBRANCH   1  22
TORSDOF 6
ENDMDL
MODEL 9
REMARK VINA RESULT:      -6.5      3.409      6.802
REMARK  6 active torsions:
REMARK  status: ('A' for Active; 'I' for Inactive)
REMARK    1  A    between atoms: C_2  and  O_10 
REMARK    2  A    between atoms: O_10  and  C_11 
REMARK    3  A    between atoms: C_11  and  C_12 
REMARK    4  A    between atoms: C_12  and  O_14 
REMARK    5  A    between atoms: C_12  and  C_15 
REMARK    6  A    between atoms: C_12  and  C_16 
ROOT
HETATM    1  C   UNK N   1      36.738  14.479  10.267  0.00  0.00     0.201 C 
ENDROOT
BRANCH   1   2
HETATM    2  C   UNK N   1      35.809  15.694  10.178  0.00  0.00     0.303 C 
HETATM    3  O   UNK N   1      36.193  16.780  10.568  0.00  0.00    -0.261 OA
BRANCH   2   4
HETATM    4  O   UNK N   1      34.590  15.611   9.580  0.00  0.00    -0.311 OA
BRANCH   4   5
HETATM    5  C   UNK N   1      34.245  16.488   8.572  0.00  0.00     0.162 C 
HETATM    6  C   UNK N   1      32.774  16.935   8.743  0.00  0.00     0.269 C 
HETATM    7  N   UNK N   1      32.002  16.674   7.515  0.00  0.00    -0.068 N 
HETATM    8  C   UNK N   1      30.636  17.128   7.700  0.00  0.00     0.272 C 
HETATM    9  C   UNK N   1      31.994  15.227   7.235  0.00  0.00     0.237 C 
HETATM   10  C   UNK N   1      32.604  17.396   6.380  0.00  0.00     0.237 C 
HETATM   11  C   UNK N   1      33.431  14.700   7.028  0.00  0.00     0.035 C 
HETATM   12  C   UNK N   1      34.427  15.858   7.179  0.00  0.00     0.020 C 
HETATM   13  C   UNK N   1      34.057  16.928   6.144  0.00  0.00     0.035 C 
ENDBRANCH   4   5
ENDBRANCH   2   4
ENDBRANCH   1   2
BRANCH   1  14
HETATM   14  O   UNK N   1      38.051  14.963  10.214  0.00  0.00    -0.371 OA
HETATM   15  H   UNK N   1      38.980  15.157  10.010  0.00  0.00     0.212 HD
ENDBRANCH   1  14
BRANCH   1  16
HETATM   16  C   UNK N   1      36.482  13.531   9.099  0.00  0.00    -0.009 A 
HETATM   17  C   UNK N   1      37.200  13.699   7.897  0.00  0.00     0.011 A 
HETATM   18  C   UNK N   1      36.973  12.853   6.810  0.00  0.00     0.001 A 
HETATM   19  C   UNK N   1      36.026  11.833   6.908  0.00  0.00     0.000 A 
HETATM   20  C   UNK N   1      35.306  11.656   8.093  0.00  0.00     0.001 A 
HETATM   21  C   UNK N   1      35.531  12.502   9.186  0.00  0.00     0.011 A 
ENDBRANCH   1  16
BRANCH   1  22
HETATM   22  C   UNK N   1      36.588  13.735  11.601  0.00  0.00    -0.009 A 
HETATM   23  C   UNK N   1      35.672  14.189  12.564  0.00  0.00     0.011 A 
HETATM   24  C   UNK N   1      35.564  13.552  13.805  0.00  0.00     0.001 A 
HETATM   25  C   UNK N   1      36.391  12.470  14.111  0.00  0.00     0.000 A 
HETATM   26  C   UNK N   1      37.321  12.017  13.175  0.00  0.00     0.001 A 
HETATM   27  C   UNK N   1      37.418  12.642  11.930  0.00  0.00     0.011 A 
ENDBRANCH   1  22
TORSDOF 6
ENDMDL
