MODEL 1
REMARK VINA RESULT:      -5.7      0.000      0.000
REMARK  3 active torsions:
REMARK  status: ('A' for Active; 'I' for Inactive)
REMARK    1  A    between atoms: C_1  and  N_2 
REMARK    2  A    between atoms: C_8  and  N_13 
REMARK       I    between atoms: C_9  and  N_14 
REMARK    3  A    between atoms: N_12  and  O_16 
ROOT
HETATM    1  C   UNK N   1      21.934  13.756   9.557  0.00  0.00     0.122 A 
HETATM    2  C   UNK N   1      20.875  13.181  10.267  0.00  0.00     0.099 A 
HETATM    3  N   UNK N   1      23.213  13.436   9.907  0.00  0.00    -0.175 N 
ATOM      4  HN  UNK N   1      23.990  13.852   9.395  1.00  0.00     0.186 HD
HETATM    5  C   UNK N   1      21.152  12.301  11.308  0.00  0.00     0.148 A 
HETATM    6  C   UNK N   1      23.471  12.573  10.928  0.00  0.00     0.705 A 
HETATM    7  N   UNK N   1      22.443  12.008  11.627  0.00  0.00    -0.036 N 
HETATM    8  N   UNK N   1      24.807  12.266  11.261  0.00  0.00    -0.232 N 
HETATM    9  H   UNK N   1      25.548  12.674  10.755  0.00  0.00     0.174 HD
HETATM   10  H   UNK N   1      25.001  11.644  12.000  0.00  0.00     0.174 HD
ENDROOT
BRANCH   1  11
HETATM   11  N   UNK N   1      21.679  14.668   8.486  0.00  0.00    -0.367 N 
HETATM   12  C   UNK N   1      22.546  14.625   7.310  0.00  0.00     0.124 C 
HETATM   13  C   UNK N   1      21.976  15.337   6.089  0.00  0.00     0.020 C 
HETATM   14  C   UNK N   1      21.445  16.695   6.482  0.00  0.00     0.003 C 
HETATM   15  C   UNK N   1      20.283  16.468   7.425  0.00  0.00     0.020 C 
HETATM   16  C   UNK N   1      20.738  15.762   8.705  0.00  0.00     0.124 C 
ENDBRANCH   1  11
BRANCH   5  17
HETATM   17  N   UNK N   1      20.087  11.719  12.028  0.00  0.00    -0.383 N 
HETATM   18  H   UNK N   1      19.914  10.754  11.954  0.00  0.00     0.157 HD
HETATM   19  H   UNK N   1      19.519  12.279  12.605  0.00  0.00     0.157 HD
ENDBRANCH   5  17
BRANCH   7  20
HETATM   20  O   UNK N   1      22.703  11.166  12.625  0.00  0.00    -0.268 OA
ATOM     21  HO  UNK N   1      22.572  11.445  13.524  1.00  0.00     0.246 HD
ENDBRANCH   7  20
TORSDOF 3
ENDMDL
MODEL 2
REMARK VINA RESULT:      -5.7      8.000      9.646
REMARK  3 active torsions:
REMARK  status: ('A' for Active; 'I' for Inactive)
REMARK    1  A    between atoms: C_1  and  N_2 
REMARK    2  A    between atoms: C_8  and  N_13 
REMARK       I    between atoms: C_9  and  N_14 
REMARK    3  A    between atoms: N_12  and  O_16 
ROOT
HETATM    1  C   UNK N   1      22.495  19.352   3.241  0.00  0.00     0.122 A 
HETATM    2  C   UNK N   1      21.738  18.325   3.813  0.00  0.00     0.099 A 
HETATM    3  N   UNK N   1      21.904  20.178   2.331  0.00  0.00    -0.175 N 
ATOM      4  HN  UNK N   1      22.451  20.929   1.909  1.00  0.00     0.186 HD
HETATM    5  C   UNK N   1      20.408  18.172   3.440  0.00  0.00     0.148 A 
HETATM    6  C   UNK N   1      20.600  20.019   1.974  0.00  0.00     0.705 A 
HETATM    7  N   UNK N   1      19.854  19.018   2.526  0.00  0.00    -0.036 N 
HETATM    8  N   UNK N   1      20.024  20.893   1.028  0.00  0.00    -0.232 N 
HETATM    9  H   UNK N   1      20.564  21.616   0.632  0.00  0.00     0.174 HD
HETATM   10  H   UNK N   1      19.082  20.781   0.764  0.00  0.00     0.174 HD
ENDROOT
BRANCH   1  11
HETATM   11  N   UNK N   1      23.868  19.530   3.603  0.00  0.00    -0.367 N 
HETATM   12  C   UNK N   1      24.372  18.847   4.792  0.00  0.00     0.124 C 
HETATM   13  C   UNK N   1      25.891  18.776   4.874  0.00  0.00     0.020 C 
HETATM   14  C   UNK N   1      26.490  20.130   4.575  0.00  0.00     0.003 C 
HETATM   15  C   UNK N   1      26.154  20.461   3.136  0.00  0.00     0.020 C 
HETATM   16  C   UNK N   1      24.642  20.569   2.931  0.00  0.00     0.124 C 
ENDBRANCH   1  11
BRANCH   5  17
HETATM   17  N   UNK N   1      19.639  17.137   4.013  0.00  0.00    -0.383 N 
HETATM   18  H   UNK N   1      20.067  16.286   4.261  0.00  0.00     0.157 HD
HETATM   19  H   UNK N   1      18.675  17.265   4.165  0.00  0.00     0.157 HD
ENDBRANCH   5  17
BRANCH   7  20
HETATM   20  O   UNK N   1      18.580  18.866   2.172  0.00  0.00    -0.268 OA
ATOM     21  HO  UNK N   1      18.025  18.262   2.650  1.00  0.00     0.246 HD
ENDBRANCH   7  20
TORSDOF 3
ENDMDL
MODEL 3
REMARK VINA RESULT:      -5.6      8.067      9.721
REMARK  3 active torsions:
REMARK  status: ('A' for Active; 'I' for Inactive)
REMARK    1  A    between atoms: C_1  and  N_2 
REMARK    2  A    between atoms: C_8  and  N_13 
REMARK       I    between atoms: C_9  and  N_14 
REMARK    3  A    between atoms: N_12  and  O_16 
ROOT
HETATM    1  C   UNK N   1      22.516  19.372   3.236  0.00  0.00     0.122 A 
HETATM    2  C   UNK N   1      21.931  20.242   2.310  0.00  0.00     0.099 A 
HETATM    3  N   UNK N   1      21.758  18.373   3.773  0.00  0.00    -0.175 N 
ATOM      4  HN  UNK N   1      22.178  17.737   4.450  1.00  0.00     0.186 HD
HETATM    5  C   UNK N   1      20.597  20.067   1.962  0.00  0.00     0.148 A 
HETATM    6  C   UNK N   1      20.452  18.213   3.424  0.00  0.00     0.705 A 
HETATM    7  N   UNK N   1      19.872  19.058   2.522  0.00  0.00    -0.036 N 
HETATM    8  N   UNK N   1      19.699  17.169   4.002  0.00  0.00    -0.232 N 
HETATM    9  H   UNK N   1      20.119  16.559   4.652  0.00  0.00     0.174 HD
HETATM   10  H   UNK N   1      18.753  17.048   3.756  0.00  0.00     0.174 HD
ENDROOT
BRANCH   1  11
HETATM   11  N   UNK N   1      23.886  19.531   3.616  0.00  0.00    -0.367 N 
HETATM   12  C   UNK N   1      24.373  18.815   4.793  0.00  0.00     0.124 C 
HETATM   13  C   UNK N   1      25.891  18.732   4.889  0.00  0.00     0.020 C 
HETATM   14  C   UNK N   1      26.502  20.089   4.629  0.00  0.00     0.003 C 
HETATM   15  C   UNK N   1      26.183  20.458   3.196  0.00  0.00     0.020 C 
HETATM   16  C   UNK N   1      24.674  20.581   2.978  0.00  0.00     0.124 C 
ENDBRANCH   1  11
BRANCH   5  17
HETATM   17  N   UNK N   1      20.001  20.942   1.029  0.00  0.00    -0.383 N 
HETATM   18  H   UNK N   1      20.559  21.569   0.517  0.00  0.00     0.157 HD
HETATM   19  H   UNK N   1      19.026  20.925   0.890  0.00  0.00     0.157 HD
ENDBRANCH   5  17
BRANCH   7  20
HETATM   20  O   UNK N   1      18.594  18.896   2.187  0.00  0.00    -0.268 OA
ATOM     21  HO  UNK N   1      17.945  18.744   2.862  1.00  0.00     0.246 HD
ENDBRANCH   7  20
TORSDOF 3
ENDMDL
MODEL 4
REMARK VINA RESULT:      -5.6      6.465      9.214
REMARK  3 active torsions:
REMARK  status: ('A' for Active; 'I' for Inactive)
REMARK    1  A    between atoms: C_1  and  N_2 
REMARK    2  A    between atoms: C_8  and  N_13 
REMARK       I    between atoms: C_9  and  N_14 
REMARK    3  A    between atoms: N_12  and  O_16 
ROOT
HETATM    1  C   UNK N   1      20.645  17.885   3.712  0.00  0.00     0.122 A 
HETATM    2  C   UNK N   1      20.325  17.245   2.509  0.00  0.00     0.099 A 
HETATM    3  N   UNK N   1      20.932  19.218   3.693  0.00  0.00    -0.175 N 
ATOM      4  HN  UNK N   1      21.168  19.690   4.566  1.00  0.00     0.186 HD
HETATM    5  C   UNK N   1      20.307  17.983   1.331  0.00  0.00     0.148 A 
HETATM    6  C   UNK N   1      20.912  19.929   2.533  0.00  0.00     0.705 A 
HETATM    7  N   UNK N   1      20.601  19.314   1.355  0.00  0.00    -0.036 N 
HETATM    8  N   UNK N   1      21.215  21.307   2.554  0.00  0.00    -0.232 N 
HETATM    9  H   UNK N   1      21.438  21.750   3.406  0.00  0.00     0.174 HD
HETATM   10  H   UNK N   1      21.204  21.827   1.718  0.00  0.00     0.174 HD
ENDROOT
BRANCH   1  11
HETATM   11  N   UNK N   1      20.676  17.149   4.938  0.00  0.00    -0.367 N 
HETATM   12  C   UNK N   1      21.124  17.830   6.151  0.00  0.00     0.124 C 
HETATM   13  C   UNK N   1      20.759  17.110   7.442  0.00  0.00     0.020 C 
HETATM   14  C   UNK N   1      21.101  15.643   7.332  0.00  0.00     0.003 C 
HETATM   15  C   UNK N   1      20.218  15.056   6.250  0.00  0.00     0.020 C 
HETATM   16  C   UNK N   1      20.504  15.700   4.892  0.00  0.00     0.124 C 
ENDBRANCH   1  11
BRANCH   5  17
HETATM   17  N   UNK N   1      19.986  17.344   0.115  0.00  0.00    -0.383 N 
HETATM   18  H   UNK N   1      19.355  17.766  -0.510  0.00  0.00     0.157 HD
HETATM   19  H   UNK N   1      20.394  16.476  -0.108  0.00  0.00     0.157 HD
ENDBRANCH   5  17
BRANCH   7  20
HETATM   20  O   UNK N   1      20.584  20.015   0.223  0.00  0.00    -0.268 OA
ATOM     21  HO  UNK N   1      21.359  20.045  -0.325  1.00  0.00     0.246 HD
ENDBRANCH   7  20
TORSDOF 3
ENDMDL
MODEL 5
REMARK VINA RESULT:      -5.6      9.037     10.358
REMARK  3 active torsions:
REMARK  status: ('A' for Active; 'I' for Inactive)
REMARK    1  A    between atoms: C_1  and  N_2 
REMARK    2  A    between atoms: C_8  and  N_13 
REMARK       I    between atoms: C_9  and  N_14 
REMARK    3  A    between atoms: N_12  and  O_16 
ROOT
HETATM    1  C   UNK N   1      30.458  17.320   6.795  0.00  0.00     0.122 A 
HETATM    2  C   UNK N   1      30.612  17.072   8.163  0.00  0.00     0.099 A 
HETATM    3  N   UNK N   1      29.285  17.856   6.351  0.00  0.00    -0.175 N 
ATOM      4  HN  UNK N   1      29.165  18.038   5.354  1.00  0.00     0.186 HD
HETATM    5  C   UNK N   1      29.570  17.377   9.031  0.00  0.00     0.148 A 
HETATM    6  C   UNK N   1      28.272  18.151   7.211  0.00  0.00     0.705 A 
HETATM    7  N   UNK N   1      28.413  17.911   8.547  0.00  0.00    -0.036 N 
HETATM    8  N   UNK N   1      27.073  18.704   6.713  0.00  0.00    -0.232 N 
HETATM    9  H   UNK N   1      26.973  18.877   5.748  0.00  0.00     0.174 HD
HETATM   10  H   UNK N   1      26.335  18.917   7.330  0.00  0.00     0.174 HD
ENDROOT
BRANCH   1  11
HETATM   11  N   UNK N   1      31.511  17.011   5.879  0.00  0.00    -0.367 N 
HETATM   12  C   UNK N   1      31.272  17.198   4.449  0.00  0.00     0.124 C 
HETATM   13  C   UNK N   1      32.539  17.222   3.603  0.00  0.00     0.020 C 
HETATM   14  C   UNK N   1      33.441  16.073   3.987  0.00  0.00     0.003 C 
HETATM   15  C   UNK N   1      33.878  16.304   5.417  0.00  0.00     0.020 C 
HETATM   16  C   UNK N   1      32.682  16.291   6.372  0.00  0.00     0.124 C 
ENDBRANCH   1  11
BRANCH   5  17
HETATM   17  N   UNK N   1      29.719  17.129  10.412  0.00  0.00    -0.383 N 
HETATM   18  H   UNK N   1      30.231  16.346  10.718  0.00  0.00     0.157 HD
HETATM   19  H   UNK N   1      29.312  17.739  11.069  0.00  0.00     0.157 HD
ENDBRANCH   5  17
BRANCH   7  20
HETATM   20  O   UNK N   1      27.418  18.200   9.383  0.00  0.00    -0.268 OA
ATOM     21  HO  UNK N   1      27.319  19.086   9.711  1.00  0.00     0.246 HD
ENDBRANCH   7  20
TORSDOF 3
ENDMDL
MODEL 6
REMARK VINA RESULT:      -5.5      8.973     10.284
REMARK  3 active torsions:
REMARK  status: ('A' for Active; 'I' for Inactive)
REMARK    1  A    between atoms: C_1  and  N_2 
REMARK    2  A    between atoms: C_8  and  N_13 
REMARK       I    between atoms: C_9  and  N_14 
REMARK    3  A    between atoms: N_12  and  O_16 
ROOT
HETATM    1  C   UNK N   1      30.455  17.266   6.744  0.00  0.00     0.122 A 
HETATM    2  C   UNK N   1      29.254  17.788   6.252  0.00  0.00     0.099 A 
HETATM    3  N   UNK N   1      30.592  17.081   8.088  0.00  0.00    -0.175 N 
ATOM      4  HN  UNK N   1      31.465  16.703   8.454  1.00  0.00     0.186 HD
HETATM    5  C   UNK N   1      28.234  18.103   7.143  0.00  0.00     0.148 A 
HETATM    6  C   UNK N   1      29.586  17.394   8.951  0.00  0.00     0.705 A 
HETATM    7  N   UNK N   1      28.410  17.904   8.480  0.00  0.00    -0.036 N 
HETATM    8  N   UNK N   1      29.765  17.189  10.335  0.00  0.00    -0.232 N 
HETATM    9  H   UNK N   1      30.613  16.819  10.673  0.00  0.00     0.174 HD
HETATM   10  H   UNK N   1      29.042  17.415  10.965  0.00  0.00     0.174 HD
ENDROOT
BRANCH   1  11
HETATM   11  N   UNK N   1      31.523  16.938   5.851  0.00  0.00    -0.367 N 
HETATM   12  C   UNK N   1      31.379  17.274   4.436  0.00  0.00     0.124 C 
HETATM   13  C   UNK N   1      32.687  17.248   3.654  0.00  0.00     0.020 C 
HETATM   14  C   UNK N   1      33.454  15.986   3.968  0.00  0.00     0.003 C 
HETATM   15  C   UNK N   1      33.834  16.045   5.433  0.00  0.00     0.020 C 
HETATM   16  C   UNK N   1      32.592  16.065   6.327  0.00  0.00     0.124 C 
ENDBRANCH   1  11
BRANCH   5  17
HETATM   17  N   UNK N   1      27.021  18.630   6.653  0.00  0.00    -0.383 N 
HETATM   18  H   UNK N   1      26.165  18.224   6.919  0.00  0.00     0.157 HD
HETATM   19  H   UNK N   1      27.030  19.405   6.045  0.00  0.00     0.157 HD
ENDBRANCH   5  17
BRANCH   7  20
HETATM   20  O   UNK N   1      27.432  18.209   9.328  0.00  0.00    -0.268 OA
ATOM     21  HO  UNK N   1      26.872  17.523   9.670  1.00  0.00     0.246 HD
ENDBRANCH   7  20
TORSDOF 3
ENDMDL
MODEL 7
REMARK VINA RESULT:      -5.4     10.967     12.091
REMARK  3 active torsions:
REMARK  status: ('A' for Active; 'I' for Inactive)
REMARK    1  A    between atoms: C_1  and  N_2 
REMARK    2  A    between atoms: C_8  and  N_13 
REMARK       I    between atoms: C_9  and  N_14 
REMARK    3  A    between atoms: N_12  and  O_16 
ROOT
HETATM    1  C   UNK N   1      32.965  16.644   6.852  0.00  0.00     0.122 A 
HETATM    2  C   UNK N   1      33.779  17.750   7.118  0.00  0.00     0.099 A 
HETATM    3  N   UNK N   1      32.749  15.731   7.843  0.00  0.00    -0.175 N 
ATOM      4  HN  UNK N   1      32.157  14.922   7.655  1.00  0.00     0.186 HD
HETATM    5  C   UNK N   1      34.344  17.890   8.380  0.00  0.00     0.148 A 
HETATM    6  C   UNK N   1      33.308  15.880   9.075  0.00  0.00     0.705 A 
HETATM    7  N   UNK N   1      34.105  16.956   9.343  0.00  0.00    -0.036 N 
HETATM    8  N   UNK N   1      33.062  14.914  10.074  0.00  0.00    -0.232 N 
HETATM    9  H   UNK N   1      32.486  14.139   9.879  0.00  0.00     0.174 HD
HETATM   10  H   UNK N   1      33.466  15.015  10.967  0.00  0.00     0.174 HD
ENDROOT
BRANCH   1  11
HETATM   11  N   UNK N   1      32.373  16.471   5.561  0.00  0.00    -0.367 N 
HETATM   12  C   UNK N   1      32.639  17.473   4.531  0.00  0.00     0.124 C 
HETATM   13  C   UNK N   1      32.304  17.017   3.117  0.00  0.00     0.020 C 
HETATM   14  C   UNK N   1      30.938  16.373   3.090  0.00  0.00     0.003 C 
HETATM   15  C   UNK N   1      31.015  15.120   3.936  0.00  0.00     0.020 C 
HETATM   16  C   UNK N   1      31.339  15.455   5.393  0.00  0.00     0.124 C 
ENDBRANCH   1  11
BRANCH   5  17
HETATM   17  N   UNK N   1      35.167  19.003   8.653  0.00  0.00    -0.383 N 
HETATM   18  H   UNK N   1      34.981  19.869   8.225  0.00  0.00     0.157 HD
HETATM   19  H   UNK N   1      35.927  18.913   9.273  0.00  0.00     0.157 HD
ENDBRANCH   5  17
BRANCH   7  20
HETATM   20  O   UNK N   1      34.651  17.094  10.549  0.00  0.00    -0.268 OA
ATOM     21  HO  UNK N   1      34.732  16.339  11.119  1.00  0.00     0.246 HD
ENDBRANCH   7  20
TORSDOF 3
ENDMDL
MODEL 8
REMARK VINA RESULT:      -5.3     11.510     13.100
REMARK  3 active torsions:
REMARK  status: ('A' for Active; 'I' for Inactive)
REMARK    1  A    between atoms: C_1  and  N_2 
REMARK    2  A    between atoms: C_8  and  N_13 
REMARK       I    between atoms: C_9  and  N_14 
REMARK    3  A    between atoms: N_12  and  O_16 
ROOT
HETATM    1  C   UNK N   1      34.671  15.133  10.081  0.00  0.00     0.122 A 
HETATM    2  C   UNK N   1      36.034  15.197   9.773  0.00  0.00     0.099 A 
HETATM    3  N   UNK N   1      34.260  14.309  11.088  0.00  0.00    -0.175 N 
ATOM      4  HN  UNK N   1      33.268  14.257  11.316  1.00  0.00     0.186 HD
HETATM    5  C   UNK N   1      36.932  14.421  10.499  0.00  0.00     0.148 A 
HETATM    6  C   UNK N   1      35.149  13.555  11.791  0.00  0.00     0.705 A 
HETATM    7  N   UNK N   1      36.481  13.610  11.497  0.00  0.00    -0.036 N 
HETATM    8  N   UNK N   1      34.686  12.715  12.825  0.00  0.00    -0.232 N 
HETATM    9  H   UNK N   1      33.724  12.677  13.037  0.00  0.00     0.174 HD
HETATM   10  H   UNK N   1      35.323  12.165  13.337  0.00  0.00     0.174 HD
ENDROOT
BRANCH   1  11
HETATM   11  N   UNK N   1      33.725  15.915   9.348  0.00  0.00    -0.367 N 
HETATM   12  C   UNK N   1      34.069  17.295   9.012  0.00  0.00     0.124 C 
HETATM   13  C   UNK N   1      33.198  17.908   7.923  0.00  0.00     0.020 C 
HETATM   14  C   UNK N   1      31.741  17.631   8.208  0.00  0.00     0.003 C 
HETATM   15  C   UNK N   1      31.543  16.133   8.121  0.00  0.00     0.020 C 
HETATM   16  C   UNK N   1      32.368  15.402   9.183  0.00  0.00     0.124 C 
ENDBRANCH   1  11
BRANCH   5  17
HETATM   17  N   UNK N   1      38.308  14.481  10.193  0.00  0.00    -0.383 N 
HETATM   18  H   UNK N   1      38.700  13.833   9.565  0.00  0.00     0.157 HD
HETATM   19  H   UNK N   1      38.875  15.170  10.607  0.00  0.00     0.157 HD
ENDBRANCH   5  17
BRANCH   7  20
HETATM   20  O   UNK N   1      37.345  12.869  12.188  0.00  0.00    -0.268 OA
ATOM     21  HO  UNK N   1      37.960  13.287  12.777  1.00  0.00     0.246 HD
ENDBRANCH   7  20
TORSDOF 3
ENDMDL
MODEL 9
REMARK VINA RESULT:      -5.3     13.991     15.842
REMARK  3 active torsions:
REMARK  status: ('A' for Active; 'I' for Inactive)
REMARK    1  A    between atoms: C_1  and  N_2 
REMARK    2  A    between atoms: C_8  and  N_13 
REMARK       I    between atoms: C_9  and  N_14 
REMARK    3  A    between atoms: N_12  and  O_16 
ROOT
HETATM    1  C   UNK N   1      35.569  12.383  15.581  0.00  0.00     0.122 A 
HETATM    2  C   UNK N   1      34.997  12.243  14.312  0.00  0.00     0.099 A 
HETATM    3  N   UNK N   1      36.377  13.454  15.826  0.00  0.00    -0.175 N 
ATOM      4  HN  UNK N   1      36.798  13.561  16.749  1.00  0.00     0.186 HD
HETATM    5  C   UNK N   1      35.266  13.197  13.337  0.00  0.00     0.148 A 
HETATM    6  C   UNK N   1      36.633  14.381  14.863  0.00  0.00     0.705 A 
HETATM    7  N   UNK N   1      36.080  14.252  13.621  0.00  0.00    -0.036 N 
HETATM    8  N   UNK N   1      37.475  15.475  15.154  0.00  0.00    -0.232 N 
HETATM    9  H   UNK N   1      37.871  15.567  16.051  0.00  0.00     0.174 HD
HETATM   10  H   UNK N   1      37.666  16.148  14.461  0.00  0.00     0.174 HD
ENDROOT
BRANCH   1  11
HETATM   11  N   UNK N   1      35.313  11.414  16.602  0.00  0.00    -0.367 N 
HETATM   12  C   UNK N   1      34.862  10.082  16.206  0.00  0.00     0.124 C 
HETATM   13  C   UNK N   1      34.993   9.029  17.299  0.00  0.00     0.020 C 
HETATM   14  C   UNK N   1      34.443   9.562  18.600  0.00  0.00     0.003 C 
HETATM   15  C   UNK N   1      35.323  10.722  19.018  0.00  0.00     0.020 C 
HETATM   16  C   UNK N   1      35.266  11.857  17.993  0.00  0.00     0.124 C 
ENDBRANCH   1  11
BRANCH   5  17
HETATM   17  N   UNK N   1      34.694  13.061  12.055  0.00  0.00    -0.383 N 
HETATM   18  H   UNK N   1      35.236  13.237  11.253  0.00  0.00     0.157 HD
HETATM   19  H   UNK N   1      33.752  12.789  11.963  0.00  0.00     0.157 HD
ENDBRANCH   5  17
BRANCH   7  20
HETATM   20  O   UNK N   1      36.336  15.161  12.683  0.00  0.00    -0.268 OA
ATOM     21  HO  UNK N   1      37.214  15.241  12.330  1.00  0.00     0.246 HD
ENDBRANCH   7  20
TORSDOF 3
ENDMDL
