REMARK  7 active torsions:
REMARK  status: ('A' for Active; 'I' for Inactive)
REMARK    1  A    between atoms: O_3  and  C_2 
REMARK    2  A    between atoms: C_4  and  C_2 
REMARK    3  A    between atoms: C_4  and  N_5 
REMARK    4  A    between atoms: C_6  and  C_4 
REMARK    5  A    between atoms: C_7  and  C_6 
REMARK    6  A    between atoms: C_7  and  C_8 
REMARK    7  A    between atoms: N_9  and  C_8 
REMARK       I    between atoms: C_10  and  N_9 
REMARK       I    between atoms: N_13  and  C_10 
ROOT
HETATM    1  C   UNK N   1      -0.243   0.260   0.299  0.00  0.00     0.023 C 
ENDROOT
BRANCH   1   2
HETATM    2  C   UNK N   1       0.920  -0.538   0.862  0.00  0.00     0.037 C 
BRANCH   2   3
HETATM    3  C   UNK N   1       1.998  -0.751  -0.192  0.00  0.00     0.173 C 
BRANCH   3   4
HETATM    4  C   UNK N   1       3.084   0.286  -0.080  0.00  0.00     0.163 C 
HETATM    5  O   UNK N   1       2.815   1.469  -0.215  0.00  0.00    -0.648 OA
BRANCH   4   6
HETATM    6  O   UNK N   1       4.360  -0.083   0.150  0.00  0.00    -0.775 OA
HETATM    7  H   UNK N   1       4.582  -0.979   0.310  0.00  0.00     0.167 HD
ENDBRANCH   4   6
ENDBRANCH   3   4
BRANCH   3   8
HETATM    8  N   UNK N   1       2.549  -2.086  -0.040  0.00  0.00    -0.418 N 
HETATM    9  H   UNK N   1       1.931  -2.890   0.067  0.00  0.00     0.150 HD
HETATM   10  H   UNK N   1       3.561  -2.221  -0.040  0.00  0.00     0.150 HD
ENDBRANCH   3   8
ENDBRANCH   2   3
ENDBRANCH   1   2
BRANCH   1  11
HETATM   11  C   UNK N   1      -1.057  -0.603  -0.657  0.00  0.00     0.138 C 
BRANCH  11  12
HETATM   12  N   UNK N   1      -2.397  -0.818  -0.160  0.00  0.00    -0.227 N 
HETATM   13  C   UNK N   1      -3.345   0.232  -0.027  0.00  0.00     0.665 C 
HETATM   14  N   UNK N   1      -3.012   1.450  -0.268  0.00  0.00    -0.235 N 
HETATM   15  N   UNK N   1      -4.676  -0.067   0.329  0.00  0.00    -0.235 N 
HETATM   16  H   UNK N   1      -2.076   1.695  -0.453  0.00  0.00     0.174 HD
ATOM     17  HN  UNK N   1      -3.729   2.175  -0.268  1.00  0.00     0.174 HD
HETATM   18  H   UNK N   1      -5.321   0.633   0.578  0.00  0.00     0.174 HD
HETATM   19  H   UNK N   1      -4.969  -1.007   0.329  0.00  0.00     0.174 HD
HETATM   20  H   UNK N   1      -2.664  -1.730   0.097  0.00  0.00     0.177 HD
ENDBRANCH  11  12
ENDBRANCH   1  11
TORSDOF 7
