REMARK  5 active torsions:
REMARK  status: ('A' for Active; 'I' for Inactive)
REMARK    1  A    between atoms: C_16  and  C_7 
REMARK    2  A    between atoms: C_7  and  O_29 
REMARK    3  A    between atoms: C_8  and  O_24 
REMARK    4  A    between atoms: C_26  and  C_16 
REMARK    5  A    between atoms: O_27  and  C_26 
ROOT
HETATM    1  C   UNK N   1      16.396  -6.344   0.870  0.00  0.00     0.039 A 
HETATM    2  C   UNK N   1      20.082  -4.162  -0.274  0.00  0.00     0.001 C 
HETATM    3  C   UNK N   1      17.610  -5.539   0.283  0.00  0.00     0.147 C 
HETATM    4  C   UNK N   1      16.300  -7.669   0.093  0.00  0.00    -0.027 A 
HETATM    5  C   UNK N   1      20.211  -5.668  -0.003  0.00  0.00     0.005 C 
HETATM    6  C   UNK N   1      18.890  -6.439   0.300  0.00  0.00     0.037 C 
HETATM    7  C   UNK N   1      21.583  -3.780  -0.375  0.00  0.00     0.131 C 
HETATM    8  C   UNK N   1      17.886  -4.207   1.069  0.00  0.00     0.160 C 
HETATM    9  C   UNK N   1      15.115  -5.523   0.812  0.00  0.00    -0.006 A 
HETATM   10  C   UNK N   1      19.265  -3.523   0.849  0.00  0.00     0.048 C 
HETATM   11  C   UNK N   1      22.069  -4.896  -1.339  0.00  0.00     0.025 C 
HETATM   12  C   UNK N   1      21.209  -6.150  -1.054  0.00  0.00     0.013 C 
HETATM   13  C   UNK N   1      18.694  -7.705  -0.550  0.00  0.00     0.050 C 
HETATM   14  C   UNK N   1      17.521  -8.539  -0.019  0.00  0.00     0.201 C 
HETATM   15  C   UNK N   1      15.182  -8.056  -0.536  0.00  0.00     0.061 A 
HETATM   16  C   UNK N   1      14.002  -5.933   0.190  0.00  0.00     0.052 A 
HETATM   17  C   UNK N   1      13.970  -7.231  -0.492  0.00  0.00     0.172 A 
HETATM   18  F   UNK N   1      17.293  -5.238  -1.034  0.00  0.00    -0.238 F 
HETATM   19  O   UNK N   1      12.941  -7.622  -1.020  0.00  0.00    -0.289 OA
HETATM   20  C   UNK N   1      16.623  -6.659   2.347  0.00  0.00     0.028 C 
HETATM   21  C   UNK N   1      19.399  -3.858  -1.622  0.00  0.00     0.019 C 
HETATM   22  F   UNK N   1      17.845  -9.077   1.215  0.00  0.00    -0.245 F 
HETATM   23  C   UNK N   1      23.561  -5.180  -1.292  0.00  0.00     0.013 C 
ENDROOT
BRANCH   7  24
HETATM   24  C   UNK N   1      21.896  -2.375  -0.866  0.00  0.00     0.185 C 
HETATM   25  O   UNK N   1      21.000  -1.567  -1.051  0.00  0.00    -0.292 OA
BRANCH  24  26
HETATM   26  C   UNK N   1      23.311  -1.949  -1.121  0.00  0.00     0.245 C 
BRANCH  26  27
HETATM   27  O   UNK N   1      24.060  -2.005   0.055  0.00  0.00    -0.393 OA
HETATM   28  H   UNK N   1      24.287  -2.475   0.873  0.00  0.00     0.209 HD
ENDBRANCH  26  27
ENDBRANCH  24  26
ENDBRANCH   7  24
BRANCH   7  29
HETATM   29  O   UNK N   1      22.198  -3.937   0.878  0.00  0.00    -0.381 OA
HETATM   30  H   UNK N   1      22.317  -4.359   1.743  0.00  0.00     0.211 HD
ENDBRANCH   7  29
BRANCH   8  31
HETATM   31  O   UNK N   1      16.872  -3.275   0.843  0.00  0.00    -0.392 OA
HETATM   32  H   UNK N   1      17.081  -2.340   0.686  0.00  0.00     0.210 HD
ENDBRANCH   8  31
TORSDOF 5
