REMARK  10 active torsions:
REMARK  status: ('A' for Active; 'I' for Inactive)
REMARK    1  A    between atoms: C_2  and  N_19 
REMARK    2  A    between atoms: C_3  and  O_35 
REMARK    3  A    between atoms: C_4  and  N_40 
REMARK    4  A    between atoms: C_11  and  O_33 
REMARK    5  A    between atoms: C_16  and  C_26 
REMARK    6  A    between atoms: C_17  and  O_25 
REMARK    7  A    between atoms: C_18  and  N_29 
REMARK       I    between atoms: N_19  and  C_20 
REMARK    8  A    between atoms: C_20  and  C_21 
REMARK    9  A    between atoms: C_21  and  N_22 
REMARK   10  A    between atoms: N_22  and  C_23 
REMARK       I    between atoms: C_26  and  N_28 
ROOT
HETATM    1  C   UNK N   1      11.763  -9.576   0.058  0.00  0.00     0.062 A 
HETATM    2  C   UNK N   1      11.468 -10.928   0.248  0.00  0.00     0.071 A 
HETATM    3  C   UNK N   1      12.503 -11.875   0.233  0.00  0.00     0.107 A 
HETATM    4  C   UNK N   1      13.053  -9.116  -0.164  0.00  0.00     0.039 A 
HETATM    5  C   UNK N   1      14.095 -10.072  -0.213  0.00  0.00    -0.014 A 
HETATM    6  C   UNK N   1      13.829 -11.458   0.008  0.00  0.00     0.059 A 
HETATM    7  C   UNK N   1      15.003 -12.398   0.073  0.00  0.00     0.194 C 
HETATM    8  C   UNK N   1      15.511  -9.658  -0.448  0.00  0.00     0.051 C 
HETATM    9  C   UNK N   1      16.333 -10.309   0.625  0.00  0.00     0.030 C 
HETATM   10  C   UNK N   1      16.359 -11.792   0.302  0.00  0.00     0.030 C 
HETATM   11  C   UNK N   1      17.537 -12.467   0.206  0.00  0.00     0.096 C 
HETATM   12  C   UNK N   1      17.657  -9.605   0.737  0.00  0.00     0.021 C 
HETATM   13  C   UNK N   1      18.751 -10.286  -0.052  0.00  0.00     0.075 C 
HETATM   14  C   UNK N   1      18.869 -11.731   0.455  0.00  0.00     0.177 C 
HETATM   15  C   UNK N   1      20.091 -12.350  -0.200  0.00  0.00     0.208 C 
HETATM   16  C   UNK N   1      21.358 -11.550  -0.327  0.00  0.00     0.112 C 
HETATM   17  C   UNK N   1      21.322 -10.195  -0.142  0.00  0.00     0.096 C 
HETATM   18  C   UNK N   1      20.024  -9.478   0.223  0.00  0.00     0.286 C 
HETATM   19  O   UNK N   1      14.853 -13.611  -0.015  0.00  0.00    -0.287 OA
HETATM   20  O   UNK N   1      20.052 -13.499  -0.614  0.00  0.00    -0.288 OA
HETATM   21  O   UNK N   1      19.100 -11.703   1.837  0.00  0.00    -0.374 OA
HETATM   22  H   UNK N   1      19.197 -11.831   2.793  0.00  0.00     0.211 HD
ENDROOT
BRANCH  11  23
HETATM   23  O   UNK N   1      17.533 -13.779  -0.114  0.00  0.00    -0.361 OA
HETATM   24  H   UNK N   1      16.743 -14.232  -0.337  0.00  0.00     0.217 HD
ENDBRANCH  11  23
BRANCH  18  25
HETATM   25  N   UNK N   1      19.875  -8.076  -0.231  0.00  0.00     0.091 N 
HETATM   26  C   UNK N   1      20.941  -7.211   0.250  0.00  0.00     0.310 C 
HETATM   27  C   UNK N   1      19.769  -7.956  -1.678  0.00  0.00     0.310 C 
ENDBRANCH  18  25
BRANCH  16  28
HETATM   28  C   UNK N   1      22.645 -12.264  -0.650  0.00  0.00     0.255 C 
HETATM   29  O   UNK N   1      22.659 -13.480  -0.754  0.00  0.00    -0.268 OA
HETATM   30  N   UNK N   1      23.807 -11.591  -0.783  0.00  0.00    -0.366 N 
HETATM   31  H   UNK N   1      24.655 -12.081  -0.881  0.00  0.00     0.159 HD
HETATM   32  H   UNK N   1      23.806 -10.607  -0.783  0.00  0.00     0.159 HD
ENDBRANCH  16  28
BRANCH  17  33
HETATM   33  O   UNK N   1      22.452  -9.465  -0.233  0.00  0.00    -0.362 OA
HETATM   34  H   UNK N   1      23.284  -9.893  -0.297  0.00  0.00     0.217 HD
ENDBRANCH  17  33
BRANCH   3  35
HETATM   35  O   UNK N   1      12.223 -13.173   0.473  0.00  0.00    -0.357 OA
HETATM   36  H   UNK N   1      11.345 -13.455   0.640  0.00  0.00     0.217 HD
ENDBRANCH   3  35
BRANCH   4  37
HETATM   37  N   UNK N   1      13.261  -7.692  -0.284  0.00  0.00    -0.389 N 
HETATM   38  C   UNK N   1      14.567  -7.084  -0.325  0.00  0.00     0.149 C 
HETATM   39  C   UNK N   1      12.134  -6.793  -0.232  0.00  0.00     0.149 C 
ENDBRANCH   4  37
BRANCH   2  40
HETATM   40  N   UNK N   1      10.140 -11.307   0.569  0.00  0.00    -0.323 N 
HETATM   41  C   UNK N   1       9.041 -10.583   0.224  0.00  0.00     0.239 C 
HETATM   42  O   UNK N   1       9.115  -9.667  -0.585  0.00  0.00    -0.271 OA
HETATM   43  H   UNK N   1      10.005 -12.143   1.072  0.00  0.00     0.169 HD
BRANCH  41  44
HETATM   44  C   UNK N   1       7.731 -10.912   0.840  0.00  0.00     0.218 C 
BRANCH  44  45
HETATM   45  N   UNK N   1       6.834 -11.542  -0.125  0.00  0.00    -0.406 N 
HETATM   46  H   UNK N   1       6.155 -11.036  -0.693  0.00  0.00     0.154 HD
BRANCH  45  47
HETATM   47  C   UNK N   1       7.030 -12.998  -0.173  0.00  0.00     0.015 C 
HETATM   48  C   UNK N   1       5.850 -13.612  -0.890  0.00  0.00     0.037 C 
HETATM   49  C   UNK N   1       7.105 -13.621   1.219  0.00  0.00     0.037 C 
HETATM   50  C   UNK N   1       8.285 -13.346  -0.957  0.00  0.00     0.037 C 
ENDBRANCH  45  47
ENDBRANCH  44  45
ENDBRANCH  41  44
ENDBRANCH   2  40
TORSDOF 10
