MODEL 1
REMARK VINA RESULT:      -3.8      0.000      0.000
REMARK  5 active torsions:
REMARK  status: ('A' for Active; 'I' for Inactive)
REMARK    1  A    between atoms: C_2  and  C_1 
REMARK    2  A    between atoms: O_4  and  C_1 
REMARK    3  A    between atoms: C_3  and  C_2 
REMARK    4  A    between atoms: C_2  and  N_6 
REMARK    5  A    between atoms: S_7  and  C_3 
ROOT
HETATM    1  C   UNK N   1      34.173  17.163   9.058  0.00  0.00     0.182 C 
ENDROOT
BRANCH   1   2
HETATM    2  C   UNK N   1      34.644  18.234   8.107  0.00  0.00     0.163 C 
HETATM    3  O   UNK N   1      34.413  18.160   6.911  0.00  0.00    -0.648 OA
BRANCH   2   4
HETATM    4  O   UNK N   1      35.331  19.291   8.583  0.00  0.00    -0.775 OA
HETATM    5  H   UNK N   1      35.639  19.290   9.468  0.00  0.00     0.167 HD
ENDBRANCH   2   4
ENDBRANCH   1   2
BRANCH   1   6
HETATM    6  C   UNK N   1      33.094  16.093   8.854  0.00  0.00     0.106 C 
BRANCH   6   7
HETATM    7  S   UNK N   1      31.434  16.708   8.434  0.00  0.00    -0.180 SA
HETATM    8  H   UNK N   1      30.502  15.857   7.926  0.00  0.00     0.101 HD
ENDBRANCH   6   7
ENDBRANCH   1   6
BRANCH   1   9
HETATM    9  N   UNK N   1      34.831  17.132  10.352  0.00  0.00    -0.417 N 
HETATM   10  H   UNK N   1      35.845  17.226  10.411  0.00  0.00     0.150 HD
HETATM   11  H   UNK N   1      34.279  17.016  11.202  0.00  0.00     0.150 HD
ENDBRANCH   1   9
TORSDOF 5
ENDMDL
MODEL 2
REMARK VINA RESULT:      -3.8      0.157      1.194
REMARK  5 active torsions:
REMARK  status: ('A' for Active; 'I' for Inactive)
REMARK    1  A    between atoms: C_2  and  C_1 
REMARK    2  A    between atoms: O_4  and  C_1 
REMARK    3  A    between atoms: C_3  and  C_2 
REMARK    4  A    between atoms: C_2  and  N_6 
REMARK    5  A    between atoms: S_7  and  C_3 
ROOT
HETATM    1  C   UNK N   1      34.113  17.212   9.050  0.00  0.00     0.182 C 
ENDROOT
BRANCH   1   2
HETATM    2  C   UNK N   1      34.645  18.271   8.118  0.00  0.00     0.163 C 
HETATM    3  O   UNK N   1      35.270  19.228   8.544  0.00  0.00    -0.648 OA
BRANCH   2   4
HETATM    4  O   UNK N   1      34.428  18.160   6.793  0.00  0.00    -0.775 OA
HETATM    5  H   UNK N   1      33.643  17.757   6.478  0.00  0.00     0.167 HD
ENDBRANCH   2   4
ENDBRANCH   1   2
BRANCH   1   6
HETATM    6  C   UNK N   1      32.943  16.241   8.846  0.00  0.00     0.106 C 
BRANCH   6   7
HETATM    7  S   UNK N   1      31.360  16.992   8.357  0.00  0.00    -0.180 SA
HETATM    8  H   UNK N   1      30.267  16.208   8.159  0.00  0.00     0.101 HD
ENDBRANCH   6   7
ENDBRANCH   1   6
BRANCH   1   9
HETATM    9  N   UNK N   1      34.799  17.086  10.323  0.00  0.00    -0.417 N 
HETATM   10  H   UNK N   1      35.283  17.891  10.724  0.00  0.00     0.150 HD
HETATM   11  H   UNK N   1      34.797  16.194  10.818  0.00  0.00     0.150 HD
ENDBRANCH   1   9
TORSDOF 5
ENDMDL
MODEL 3
REMARK VINA RESULT:      -3.7      2.164      2.183
REMARK  5 active torsions:
REMARK  status: ('A' for Active; 'I' for Inactive)
REMARK    1  A    between atoms: C_2  and  C_1 
REMARK    2  A    between atoms: O_4  and  C_1 
REMARK    3  A    between atoms: C_3  and  C_2 
REMARK    4  A    between atoms: C_2  and  N_6 
REMARK    5  A    between atoms: S_7  and  C_3 
ROOT
HETATM    1  C   UNK N   1      33.842  17.172   8.834  0.00  0.00     0.182 C 
ENDROOT
BRANCH   1   2
HETATM    2  C   UNK N   1      34.523  18.199   7.964  0.00  0.00     0.163 C 
HETATM    3  O   UNK N   1      34.424  18.160   6.749  0.00  0.00    -0.648 OA
BRANCH   2   4
HETATM    4  O   UNK N   1      35.254  19.175   8.537  0.00  0.00    -0.775 OA
HETATM    5  H   UNK N   1      35.751  19.763   8.003  0.00  0.00     0.167 HD
ENDBRANCH   2   4
ENDBRANCH   1   2
BRANCH   1   6
HETATM    6  C   UNK N   1      34.445  15.959   9.554  0.00  0.00     0.106 C 
BRANCH   6   7
HETATM    7  S   UNK N   1      35.476  16.327  11.007  0.00  0.00    -0.180 SA
HETATM    8  H   UNK N   1      34.930  16.305  12.252  0.00  0.00     0.101 HD
ENDBRANCH   6   7
ENDBRANCH   1   6
BRANCH   1   9
HETATM    9  N   UNK N   1      32.414  17.349   9.022  0.00  0.00    -0.417 N 
HETATM   10  H   UNK N   1      31.945  18.168   8.632  0.00  0.00     0.150 HD
HETATM   11  H   UNK N   1      31.878  16.654   9.543  0.00  0.00     0.150 HD
ENDBRANCH   1   9
TORSDOF 5
ENDMDL
MODEL 4
REMARK VINA RESULT:      -3.5     14.862     15.299
REMARK  5 active torsions:
REMARK  status: ('A' for Active; 'I' for Inactive)
REMARK    1  A    between atoms: C_2  and  C_1 
REMARK    2  A    between atoms: O_4  and  C_1 
REMARK    3  A    between atoms: C_3  and  C_2 
REMARK    4  A    between atoms: C_2  and  N_6 
REMARK    5  A    between atoms: S_7  and  C_3 
ROOT
HETATM    1  C   UNK N   1      20.218  19.031   2.283  0.00  0.00     0.182 C 
ENDROOT
BRANCH   1   2
HETATM    2  C   UNK N   1      20.773  20.150   1.438  0.00  0.00     0.163 C 
HETATM    3  O   UNK N   1      21.310  21.119   1.950  0.00  0.00    -0.648 OA
BRANCH   2   4
HETATM    4  O   UNK N   1      20.676  20.081   0.096  0.00  0.00    -0.775 OA
HETATM    5  H   UNK N   1      20.668  19.247  -0.331  0.00  0.00     0.167 HD
ENDBRANCH   2   4
ENDBRANCH   1   2
BRANCH   1   6
HETATM    6  C   UNK N   1      20.965  18.006   3.145  0.00  0.00     0.106 C 
BRANCH   6   7
HETATM    7  S   UNK N   1      19.930  16.780   4.002  0.00  0.00    -0.180 SA
HETATM    8  H   UNK N   1      20.108  16.549   5.331  0.00  0.00     0.101 HD
ENDBRANCH   6   7
ENDBRANCH   1   6
BRANCH   1   9
HETATM    9  N   UNK N   1      18.773  18.897   2.286  0.00  0.00    -0.417 N 
HETATM   10  H   UNK N   1      18.256  18.959   3.164  0.00  0.00     0.150 HD
HETATM   11  H   UNK N   1      18.273  18.740   1.411  0.00  0.00     0.150 HD
ENDBRANCH   1   9
TORSDOF 5
ENDMDL
MODEL 5
REMARK VINA RESULT:      -3.4     11.720     12.298
REMARK  5 active torsions:
REMARK  status: ('A' for Active; 'I' for Inactive)
REMARK    1  A    between atoms: C_2  and  C_1 
REMARK    2  A    between atoms: O_4  and  C_1 
REMARK    3  A    between atoms: C_3  and  C_2 
REMARK    4  A    between atoms: C_2  and  N_6 
REMARK    5  A    between atoms: S_7  and  C_3 
ROOT
HETATM    1  C   UNK N   1      22.824  12.081  11.360  0.00  0.00     0.182 C 
ENDROOT
BRANCH   1   2
HETATM    2  C   UNK N   1      24.208  12.173  10.767  0.00  0.00     0.163 C 
HETATM    3  O   UNK N   1      24.417  11.868   9.604  0.00  0.00    -0.648 OA
BRANCH   2   4
HETATM    4  O   UNK N   1      25.232  12.597  11.532  0.00  0.00    -0.775 OA
HETATM    5  H   UNK N   1      25.081  13.224  12.213  0.00  0.00     0.167 HD
ENDBRANCH   2   4
ENDBRANCH   1   2
BRANCH   1   6
HETATM    6  C   UNK N   1      21.471  12.395  10.711  0.00  0.00     0.106 C 
BRANCH   6   7
HETATM    7  S   UNK N   1      21.414  13.884   9.667  0.00  0.00    -0.180 SA
HETATM    8  H   UNK N   1      21.434  15.118  10.240  0.00  0.00     0.101 HD
ENDBRANCH   6   7
ENDBRANCH   1   6
BRANCH   1   9
HETATM    9  N   UNK N   1      22.755  11.634  12.739  0.00  0.00    -0.417 N 
HETATM   10  H   UNK N   1      23.461  11.938  13.411  0.00  0.00     0.150 HD
HETATM   11  H   UNK N   1      22.000  11.015  13.037  0.00  0.00     0.150 HD
ENDBRANCH   1   9
TORSDOF 5
ENDMDL
MODEL 6
REMARK VINA RESULT:      -3.2     12.414     12.506
REMARK  5 active torsions:
REMARK  status: ('A' for Active; 'I' for Inactive)
REMARK    1  A    between atoms: C_2  and  C_1 
REMARK    2  A    between atoms: O_4  and  C_1 
REMARK    3  A    between atoms: C_3  and  C_2 
REMARK    4  A    between atoms: C_2  and  N_6 
REMARK    5  A    between atoms: S_7  and  C_3 
ROOT
HETATM    1  C   UNK N   1      44.381  21.977   3.576  0.00  0.00     0.182 C 
ENDROOT
BRANCH   1   2
HETATM    2  C   UNK N   1      43.489  23.190   3.501  0.00  0.00     0.163 C 
HETATM    3  O   UNK N   1      42.741  23.364   2.552  0.00  0.00    -0.648 OA
BRANCH   2   4
HETATM    4  O   UNK N   1      43.516  24.098   4.496  0.00  0.00    -0.775 OA
HETATM    5  H   UNK N   1      44.290  24.205   5.013  0.00  0.00     0.167 HD
ENDBRANCH   2   4
ENDBRANCH   1   2
BRANCH   1   6
HETATM    6  C   UNK N   1      44.108  20.543   3.106  0.00  0.00     0.106 C 
BRANCH   6   7
HETATM    7  S   UNK N   1      45.547  19.431   3.065  0.00  0.00    -0.180 SA
HETATM    8  H   UNK N   1      46.740  19.878   2.588  0.00  0.00     0.101 HD
ENDBRANCH   6   7
ENDBRANCH   1   6
BRANCH   1   9
HETATM    9  N   UNK N   1      45.686  22.187   4.178  0.00  0.00    -0.417 N 
HETATM   10  H   UNK N   1      45.869  23.036   4.715  0.00  0.00     0.150 HD
HETATM   11  H   UNK N   1      46.419  21.487   4.064  0.00  0.00     0.150 HD
ENDBRANCH   1   9
TORSDOF 5
ENDMDL
MODEL 7
REMARK VINA RESULT:      -3.1      2.911      3.197
REMARK  5 active torsions:
REMARK  status: ('A' for Active; 'I' for Inactive)
REMARK    1  A    between atoms: C_2  and  C_1 
REMARK    2  A    between atoms: O_4  and  C_1 
REMARK    3  A    between atoms: C_3  and  C_2 
REMARK    4  A    between atoms: C_2  and  N_6 
REMARK    5  A    between atoms: S_7  and  C_3 
ROOT
HETATM    1  C   UNK N   1      34.717  15.350  10.038  0.00  0.00     0.182 C 
ENDROOT
BRANCH   1   2
HETATM    2  C   UNK N   1      35.708  16.408  10.454  0.00  0.00     0.163 C 
HETATM    3  O   UNK N   1      35.450  17.594  10.333  0.00  0.00    -0.648 OA
BRANCH   2   4
HETATM    4  O   UNK N   1      36.898  16.040  10.967  0.00  0.00    -0.775 OA
HETATM    5  H   UNK N   1      37.013  15.989  11.896  0.00  0.00     0.167 HD
ENDBRANCH   2   4
ENDBRANCH   1   2
BRANCH   1   6
HETATM    6  C   UNK N   1      34.668  14.524   8.747  0.00  0.00     0.106 C 
BRANCH   6   7
HETATM    7  S   UNK N   1      33.245  13.404   8.572  0.00  0.00    -0.180 SA
HETATM    8  H   UNK N   1      33.305  12.143   9.078  0.00  0.00     0.101 HD
ENDBRANCH   6   7
ENDBRANCH   1   6
BRANCH   1   9
HETATM    9  N   UNK N   1      33.657  15.067  10.988  0.00  0.00    -0.417 N 
HETATM   10  H   UNK N   1      33.356  15.786  11.647  0.00  0.00     0.150 HD
HETATM   11  H   UNK N   1      33.212  14.149  10.998  0.00  0.00     0.150 HD
ENDBRANCH   1   9
TORSDOF 5
ENDMDL
MODEL 8
REMARK VINA RESULT:      -3.0      2.272      2.631
REMARK  5 active torsions:
REMARK  status: ('A' for Active; 'I' for Inactive)
REMARK    1  A    between atoms: C_2  and  C_1 
REMARK    2  A    between atoms: O_4  and  C_1 
REMARK    3  A    between atoms: C_3  and  C_2 
REMARK    4  A    between atoms: C_2  and  N_6 
REMARK    5  A    between atoms: S_7  and  C_3 
ROOT
HETATM    1  C   UNK N   1      34.250  17.379   8.890  0.00  0.00     0.182 C 
ENDROOT
BRANCH   1   2
HETATM    2  C   UNK N   1      34.908  16.813  10.123  0.00  0.00     0.163 C 
HETATM    3  O   UNK N   1      35.978  17.245  10.520  0.00  0.00    -0.648 OA
BRANCH   2   4
HETATM    4  O   UNK N   1      34.307  15.815  10.799  0.00  0.00    -0.775 OA
HETATM    5  H   UNK N   1      33.835  16.000  11.587  0.00  0.00     0.167 HD
ENDBRANCH   2   4
ENDBRANCH   1   2
BRANCH   1   6
HETATM    6  C   UNK N   1      33.112  16.794   8.045  0.00  0.00     0.106 C 
BRANCH   6   7
HETATM    7  S   UNK N   1      31.467  17.524   8.310  0.00  0.00    -0.180 SA
HETATM    8  H   UNK N   1      31.099  17.940   9.551  0.00  0.00     0.101 HD
ENDBRANCH   6   7
ENDBRANCH   1   6
BRANCH   1   9
HETATM    9  N   UNK N   1      34.760  18.658   8.431  0.00  0.00    -0.417 N 
HETATM   10  H   UNK N   1      35.763  18.848   8.458  0.00  0.00     0.150 HD
HETATM   11  H   UNK N   1      34.117  19.368   8.081  0.00  0.00     0.150 HD
ENDBRANCH   1   9
TORSDOF 5
ENDMDL
MODEL 9
REMARK VINA RESULT:      -3.0      2.273      2.357
REMARK  5 active torsions:
REMARK  status: ('A' for Active; 'I' for Inactive)
REMARK    1  A    between atoms: C_2  and  C_1 
REMARK    2  A    between atoms: O_4  and  C_1 
REMARK    3  A    between atoms: C_3  and  C_2 
REMARK    4  A    between atoms: C_2  and  N_6 
REMARK    5  A    between atoms: S_7  and  C_3 
ROOT
HETATM    1  C   UNK N   1      33.422  17.262   8.256  0.00  0.00     0.182 C 
ENDROOT
BRANCH   1   2
HETATM    2  C   UNK N   1      34.631  17.998   8.777  0.00  0.00     0.163 C 
HETATM    3  O   UNK N   1      34.998  19.045   8.270  0.00  0.00    -0.648 OA
BRANCH   2   4
HETATM    4  O   UNK N   1      35.318  17.492   9.819  0.00  0.00    -0.775 OA
HETATM    5  H   UNK N   1      35.148  16.619  10.114  0.00  0.00     0.167 HD
ENDBRANCH   2   4
ENDBRANCH   1   2
BRANCH   1   6
HETATM    6  C   UNK N   1      33.338  16.185   7.167  0.00  0.00     0.106 C 
BRANCH   6   7
HETATM    7  S   UNK N   1      34.918  15.437   6.664  0.00  0.00    -0.180 SA
HETATM    8  H   UNK N   1      34.943  14.496   5.683  0.00  0.00     0.101 HD
ENDBRANCH   6   7
ENDBRANCH   1   6
BRANCH   1   9
HETATM    9  N   UNK N   1      32.153  17.618   8.865  0.00  0.00    -0.417 N 
HETATM   10  H   UNK N   1      31.297  17.142   8.577  0.00  0.00     0.150 HD
HETATM   11  H   UNK N   1      32.117  18.343   9.582  0.00  0.00     0.150 HD
ENDBRANCH   1   9
TORSDOF 5
ENDMDL
