MODEL 1
REMARK VINA RESULT:      -6.6      0.000      0.000
REMARK  11 active torsions:
REMARK  status: ('A' for Active; 'I' for Inactive)
REMARK       I    between atoms: C_2  and  N_1 
REMARK    1  A    between atoms: C_5  and  C_2 
REMARK    2  A    between atoms: C_3  and  C_6 
REMARK    3  A    between atoms: C_5  and  N_4 
REMARK    4  A    between atoms: C_8  and  N_4 
REMARK    5  A    between atoms: O_14  and  C_6 
REMARK    6  A    between atoms: C_8  and  C_7 
REMARK    7  A    between atoms: O_15  and  C_7 
REMARK    8  A    between atoms: C_12  and  C_8 
REMARK    9  A    between atoms: C_16  and  C_12 
REMARK   10  A    between atoms: C_21  and  O_15 
REMARK   11  A    between atoms: C_18  and  C_16 
ROOT
HETATM    1  N   UNK N   1      37.206  13.663  12.452  0.00  0.00    -0.397 N 
HETATM    2  H   UNK N   1      37.814  14.389  12.831  0.00  0.00     0.154 HD
ENDROOT
BRANCH   1   3
HETATM    3  C   UNK N   1      37.104  13.365  11.020  0.00  0.00     0.166 C 
HETATM    4  C   UNK N   1      38.527  13.237  10.493  0.00  0.00     0.042 C 
BRANCH   3   5
HETATM    5  C   UNK N   1      36.412  14.516  10.298  0.00  0.00     0.242 C 
HETATM    6  N   UNK N   1      35.503  14.302   9.292  0.00  0.00    -0.336 N 
HETATM    7  C   UNK N   1      34.998  15.365   8.453  0.00  0.00     0.185 C 
HETATM    8  C   UNK N   1      35.150  12.983   8.843  0.00  0.00     0.127 C 
HETATM    9  C   UNK N   1      34.339  14.660   7.273  0.00  0.00     0.038 C 
HETATM   10  C   UNK N   1      34.632  13.173   7.431  0.00  0.00     0.022 C 
HETATM   11  O   UNK N   1      36.728  15.665  10.588  0.00  0.00    -0.271 OA
BRANCH   7  12
HETATM   12  C   UNK N   1      34.009  16.273   9.152  0.00  0.00     0.163 C 
HETATM   13  O   UNK N   1      32.813  16.053   9.076  0.00  0.00    -0.648 OA
BRANCH  12  14
HETATM   14  O   UNK N   1      34.444  17.302   9.910  0.00  0.00    -0.775 OA
HETATM   15  H   UNK N   1      34.120  17.574  10.745  0.00  0.00     0.167 HD
ENDBRANCH  12  14
ENDBRANCH   7  12
ENDBRANCH   3   5
ENDBRANCH   1   3
BRANCH   1  16
HETATM   16  C   UNK N   1      36.348  12.817  13.281  0.00  0.00     0.178 C 
BRANCH  16  17
HETATM   17  C   UNK N   1      36.621  11.335  13.084  0.00  0.00     0.281 C 
HETATM   18  O   UNK N   1      37.674  10.856  13.484  0.00  0.00    -0.263 OA
BRANCH  17  19
HETATM   19  O   UNK N   1      35.733  10.555  12.411  0.00  0.00    -0.320 OA
BRANCH  19  20
HETATM   20  C   UNK N   1      34.377  10.792  12.436  0.00  0.00     0.174 C 
HETATM   21  C   UNK N   1      33.827  10.454  13.806  0.00  0.00     0.034 C 
ENDBRANCH  19  20
ENDBRANCH  17  19
ENDBRANCH  16  17
BRANCH  16  22
HETATM   22  C   UNK N   1      36.601  13.202  14.734  0.00  0.00     0.039 C 
BRANCH  22  23
HETATM   23  C   UNK N   1      35.292  13.373  15.479  0.00  0.00     0.041 C 
BRANCH  23  24
HETATM   24  C   UNK N   1      35.355  12.711  16.815  0.00  0.00    -0.058 A 
HETATM   25  C   UNK N   1      35.117  13.454  17.979  0.00  0.00     0.007 A 
HETATM   26  C   UNK N   1      35.206  12.843  19.233  0.00  0.00     0.001 A 
HETATM   27  C   UNK N   1      35.542  11.490  19.329  0.00  0.00     0.000 A 
HETATM   28  C   UNK N   1      35.783  10.746  18.169  0.00  0.00     0.001 A 
HETATM   29  C   UNK N   1      35.691  11.355  16.913  0.00  0.00     0.007 A 
ENDBRANCH  23  24
ENDBRANCH  22  23
ENDBRANCH  16  22
ENDBRANCH   1  16
TORSDOF 11
ENDMDL
MODEL 2
REMARK VINA RESULT:      -6.5     21.604     25.628
REMARK  11 active torsions:
REMARK  status: ('A' for Active; 'I' for Inactive)
REMARK       I    between atoms: C_2  and  N_1 
REMARK    1  A    between atoms: C_5  and  C_2 
REMARK    2  A    between atoms: C_3  and  C_6 
REMARK    3  A    between atoms: C_5  and  N_4 
REMARK    4  A    between atoms: C_8  and  N_4 
REMARK    5  A    between atoms: O_14  and  C_6 
REMARK    6  A    between atoms: C_8  and  C_7 
REMARK    7  A    between atoms: O_15  and  C_7 
REMARK    8  A    between atoms: C_12  and  C_8 
REMARK    9  A    between atoms: C_16  and  C_12 
REMARK   10  A    between atoms: C_21  and  O_15 
REMARK   11  A    between atoms: C_18  and  C_16 
ROOT
HETATM    1  N   UNK N   1      25.142  23.985  -8.424  0.00  0.00    -0.397 N 
HETATM    2  H   UNK N   1      24.165  24.199  -8.221  0.00  0.00     0.154 HD
ENDROOT
BRANCH   1   3
HETATM    3  C   UNK N   1      25.868  22.874  -7.802  0.00  0.00     0.166 C 
HETATM    4  C   UNK N   1      24.926  21.679  -7.793  0.00  0.00     0.042 C 
BRANCH   3   5
HETATM    5  C   UNK N   1      26.228  23.230  -6.363  0.00  0.00     0.242 C 
HETATM    6  N   UNK N   1      27.530  23.385  -5.957  0.00  0.00    -0.336 N 
HETATM    7  C   UNK N   1      27.906  23.510  -4.566  0.00  0.00     0.185 C 
HETATM    8  C   UNK N   1      28.641  23.212  -6.851  0.00  0.00     0.127 C 
HETATM    9  C   UNK N   1      29.413  23.283  -4.542  0.00  0.00     0.038 C 
HETATM   10  C   UNK N   1      29.821  22.889  -5.956  0.00  0.00     0.022 C 
HETATM   11  O   UNK N   1      25.325  23.319  -5.539  0.00  0.00    -0.271 OA
BRANCH   7  12
HETATM   12  C   UNK N   1      27.558  24.852  -3.960  0.00  0.00     0.163 C 
HETATM   13  O   UNK N   1      28.302  25.805  -4.109  0.00  0.00    -0.648 OA
BRANCH  12  14
HETATM   14  O   UNK N   1      26.395  25.020  -3.296  0.00  0.00    -0.775 OA
HETATM   15  H   UNK N   1      26.272  25.370  -2.435  0.00  0.00     0.167 HD
ENDBRANCH  12  14
ENDBRANCH   7  12
ENDBRANCH   3   5
ENDBRANCH   1   3
BRANCH   1  16
HETATM   16  C   UNK N   1      25.956  24.756  -9.364  0.00  0.00     0.178 C 
BRANCH  16  17
HETATM   17  C   UNK N   1      25.497  24.596 -10.804  0.00  0.00     0.281 C 
HETATM   18  O   UNK N   1      26.239  24.066 -11.619  0.00  0.00    -0.263 OA
BRANCH  17  19
HETATM   19  O   UNK N   1      24.296  25.094 -11.202  0.00  0.00    -0.320 OA
BRANCH  19  20
HETATM   20  C   UNK N   1      24.182  26.043 -12.192  0.00  0.00     0.174 C 
HETATM   21  C   UNK N   1      23.469  27.263 -11.647  0.00  0.00     0.034 C 
ENDBRANCH  19  20
ENDBRANCH  17  19
ENDBRANCH  16  17
BRANCH  16  22
HETATM   22  C   UNK N   1      25.862  26.219  -8.950  0.00  0.00     0.039 C 
BRANCH  22  23
HETATM   23  C   UNK N   1      27.068  26.622  -8.124  0.00  0.00     0.041 C 
BRANCH  23  24
HETATM   24  C   UNK N   1      26.642  27.273  -6.850  0.00  0.00    -0.058 A 
HETATM   25  C   UNK N   1      25.454  26.875  -6.222  0.00  0.00     0.007 A 
HETATM   26  C   UNK N   1      25.038  27.505  -5.046  0.00  0.00     0.001 A 
HETATM   27  C   UNK N   1      25.802  28.539  -4.498  0.00  0.00     0.000 A 
HETATM   28  C   UNK N   1      26.987  28.940  -5.124  0.00  0.00     0.001 A 
HETATM   29  C   UNK N   1      27.407  28.308  -6.300  0.00  0.00     0.007 A 
ENDBRANCH  23  24
ENDBRANCH  22  23
ENDBRANCH  16  22
ENDBRANCH   1  16
TORSDOF 11
ENDMDL
MODEL 3
REMARK VINA RESULT:      -6.3      6.601     11.641
REMARK  11 active torsions:
REMARK  status: ('A' for Active; 'I' for Inactive)
REMARK       I    between atoms: C_2  and  N_1 
REMARK    1  A    between atoms: C_5  and  C_2 
REMARK    2  A    between atoms: C_3  and  C_6 
REMARK    3  A    between atoms: C_5  and  N_4 
REMARK    4  A    between atoms: C_8  and  N_4 
REMARK    5  A    between atoms: O_14  and  C_6 
REMARK    6  A    between atoms: C_8  and  C_7 
REMARK    7  A    between atoms: O_15  and  C_7 
REMARK    8  A    between atoms: C_12  and  C_8 
REMARK    9  A    between atoms: C_16  and  C_12 
REMARK   10  A    between atoms: C_21  and  O_15 
REMARK   11  A    between atoms: C_18  and  C_16 
ROOT
HETATM    1  N   UNK N   1      29.398  17.780   6.959  0.00  0.00    -0.397 N 
HETATM    2  H   UNK N   1      28.870  18.653   6.996  0.00  0.00     0.154 HD
ENDROOT
BRANCH   1   3
HETATM    3  C   UNK N   1      29.932  17.110   8.149  0.00  0.00     0.166 C 
HETATM    4  C   UNK N   1      29.025  17.488   9.312  0.00  0.00     0.042 C 
BRANCH   3   5
HETATM    5  C   UNK N   1      31.342  17.612   8.438  0.00  0.00     0.242 C 
HETATM    6  N   UNK N   1      32.429  16.774   8.423  0.00  0.00    -0.336 N 
HETATM    7  C   UNK N   1      33.734  17.175   8.899  0.00  0.00     0.185 C 
HETATM    8  C   UNK N   1      32.313  15.369   8.145  0.00  0.00     0.127 C 
HETATM    9  C   UNK N   1      34.517  15.876   9.052  0.00  0.00     0.038 C 
HETATM   10  C   UNK N   1      33.539  14.740   8.776  0.00  0.00     0.022 C 
HETATM   11  O   UNK N   1      31.493  18.787   8.753  0.00  0.00    -0.271 OA
BRANCH   7  12
HETATM   12  C   UNK N   1      34.455  18.127   7.969  0.00  0.00     0.163 C 
HETATM   13  O   UNK N   1      34.334  18.015   6.761  0.00  0.00    -0.648 OA
BRANCH  12  14
HETATM   14  O   UNK N   1      35.192  19.142   8.467  0.00  0.00    -0.775 OA
HETATM   15  H   UNK N   1      35.430  19.292   9.361  0.00  0.00     0.167 HD
ENDBRANCH  12  14
ENDBRANCH   7  12
ENDBRANCH   3   5
ENDBRANCH   1   3
BRANCH   1  16
HETATM   16  C   UNK N   1      29.698  17.075   5.713  0.00  0.00     0.178 C 
BRANCH  16  17
HETATM   17  C   UNK N   1      29.167  15.651   5.705  0.00  0.00     0.281 C 
HETATM   18  O   UNK N   1      27.967  15.453   5.842  0.00  0.00    -0.263 OA
BRANCH  17  19
HETATM   19  O   UNK N   1      30.022  14.598   5.609  0.00  0.00    -0.320 OA
BRANCH  19  20
HETATM   20  C   UNK N   1      30.995  14.523   4.638  0.00  0.00     0.174 C 
HETATM   21  C   UNK N   1      30.348  14.301   3.286  0.00  0.00     0.034 C 
ENDBRANCH  19  20
ENDBRANCH  17  19
ENDBRANCH  16  17
BRANCH  16  22
HETATM   22  C   UNK N   1      29.067  17.871   4.578  0.00  0.00     0.039 C 
BRANCH  22  23
HETATM   23  C   UNK N   1      28.387  19.117   5.111  0.00  0.00     0.041 C 
BRANCH  23  24
HETATM   24  C   UNK N   1      27.032  19.278   4.506  0.00  0.00    -0.058 A 
HETATM   25  C   UNK N   1      26.809  20.264   3.535  0.00  0.00     0.007 A 
HETATM   26  C   UNK N   1      25.534  20.437   2.990  0.00  0.00     0.001 A 
HETATM   27  C   UNK N   1      24.475  19.631   3.418  0.00  0.00     0.000 A 
HETATM   28  C   UNK N   1      24.693  18.648   4.388  0.00  0.00     0.001 A 
HETATM   29  C   UNK N   1      25.970  18.471   4.933  0.00  0.00     0.007 A 
ENDBRANCH  23  24
ENDBRANCH  22  23
ENDBRANCH  16  22
ENDBRANCH   1  16
TORSDOF 11
ENDMDL
MODEL 4
REMARK VINA RESULT:      -6.3     19.034     23.998
REMARK  11 active torsions:
REMARK  status: ('A' for Active; 'I' for Inactive)
REMARK       I    between atoms: C_2  and  N_1 
REMARK    1  A    between atoms: C_5  and  C_2 
REMARK    2  A    between atoms: C_3  and  C_6 
REMARK    3  A    between atoms: C_5  and  N_4 
REMARK    4  A    between atoms: C_8  and  N_4 
REMARK    5  A    between atoms: O_14  and  C_6 
REMARK    6  A    between atoms: C_8  and  C_7 
REMARK    7  A    between atoms: O_15  and  C_7 
REMARK    8  A    between atoms: C_12  and  C_8 
REMARK    9  A    between atoms: C_16  and  C_12 
REMARK   10  A    between atoms: C_21  and  O_15 
REMARK   11  A    between atoms: C_18  and  C_16 
ROOT
HETATM    1  N   UNK N   1      27.550  26.039  -4.683  0.00  0.00    -0.397 N 
HETATM    2  H   UNK N   1      28.448  26.517  -4.602  0.00  0.00     0.154 HD
ENDROOT
BRANCH   1   3
HETATM    3  C   UNK N   1      27.421  24.616  -5.007  0.00  0.00     0.166 C 
HETATM    4  C   UNK N   1      25.947  24.262  -4.868  0.00  0.00     0.042 C 
BRANCH   3   5
HETATM    5  C   UNK N   1      28.225  23.782  -4.015  0.00  0.00     0.242 C 
HETATM    6  N   UNK N   1      29.196  22.903  -4.424  0.00  0.00    -0.336 N 
HETATM    7  C   UNK N   1      29.819  21.952  -3.529  0.00  0.00     0.185 C 
HETATM    8  C   UNK N   1      29.515  22.698  -5.810  0.00  0.00     0.127 C 
HETATM    9  C   UNK N   1      30.528  20.957  -4.440  0.00  0.00     0.038 C 
HETATM   10  C   UNK N   1      30.148  21.322  -5.870  0.00  0.00     0.022 C 
HETATM   11  O   UNK N   1      27.948  23.861  -2.824  0.00  0.00    -0.271 OA
BRANCH   7  12
HETATM   12  C   UNK N   1      30.796  22.580  -2.560  0.00  0.00     0.163 C 
HETATM   13  O   UNK N   1      31.966  22.722  -2.872  0.00  0.00    -0.648 OA
BRANCH  12  14
HETATM   14  O   UNK N   1      30.373  23.040  -1.364  0.00  0.00    -0.775 OA
HETATM   15  H   UNK N   1      30.812  23.637  -0.792  0.00  0.00     0.167 HD
ENDBRANCH  12  14
ENDBRANCH   7  12
ENDBRANCH   3   5
ENDBRANCH   1   3
BRANCH   1  16
HETATM   16  C   UNK N   1      26.263  26.708  -4.486  0.00  0.00     0.178 C 
BRANCH  16  17
HETATM   17  C   UNK N   1      26.209  27.503  -3.193  0.00  0.00     0.281 C 
HETATM   18  O   UNK N   1      26.036  26.920  -2.132  0.00  0.00    -0.263 OA
BRANCH  17  19
HETATM   19  O   UNK N   1      26.288  28.861  -3.216  0.00  0.00    -0.320 OA
BRANCH  19  20
HETATM   20  C   UNK N   1      27.311  29.551  -2.607  0.00  0.00     0.174 C 
HETATM   21  C   UNK N   1      28.626  29.205  -3.274  0.00  0.00     0.034 C 
ENDBRANCH  19  20
ENDBRANCH  17  19
ENDBRANCH  16  17
BRANCH  16  22
HETATM   22  C   UNK N   1      26.049  27.636  -5.675  0.00  0.00     0.039 C 
BRANCH  22  23
HETATM   23  C   UNK N   1      27.333  27.802  -6.464  0.00  0.00     0.041 C 
BRANCH  23  24
HETATM   24  C   UNK N   1      27.203  27.190  -7.819  0.00  0.00    -0.058 A 
HETATM   25  C   UNK N   1      26.113  26.359  -8.112  0.00  0.00     0.007 A 
HETATM   26  C   UNK N   1      26.005  25.759  -9.370  0.00  0.00     0.001 A 
HETATM   27  C   UNK N   1      26.990  25.981 -10.336  0.00  0.00     0.000 A 
HETATM   28  C   UNK N   1      28.081  26.808 -10.047  0.00  0.00     0.001 A 
HETATM   29  C   UNK N   1      28.188  27.412  -8.788  0.00  0.00     0.007 A 
ENDBRANCH  23  24
ENDBRANCH  22  23
ENDBRANCH  16  22
ENDBRANCH   1  16
TORSDOF 11
ENDMDL
MODEL 5
REMARK VINA RESULT:      -6.3     19.296     22.700
REMARK  11 active torsions:
REMARK  status: ('A' for Active; 'I' for Inactive)
REMARK       I    between atoms: C_2  and  N_1 
REMARK    1  A    between atoms: C_5  and  C_2 
REMARK    2  A    between atoms: C_3  and  C_6 
REMARK    3  A    between atoms: C_5  and  N_4 
REMARK    4  A    between atoms: C_8  and  N_4 
REMARK    5  A    between atoms: O_14  and  C_6 
REMARK    6  A    between atoms: C_8  and  C_7 
REMARK    7  A    between atoms: O_15  and  C_7 
REMARK    8  A    between atoms: C_12  and  C_8 
REMARK    9  A    between atoms: C_16  and  C_12 
REMARK   10  A    between atoms: C_21  and  O_15 
REMARK   11  A    between atoms: C_18  and  C_16 
ROOT
HETATM    1  N   UNK N   1      30.024  25.134  -3.344  0.00  0.00    -0.397 N 
HETATM    2  H   UNK N   1      29.872  25.361  -2.361  0.00  0.00     0.154 HD
ENDROOT
BRANCH   1   3
HETATM    3  C   UNK N   1      30.465  26.118  -4.337  0.00  0.00     0.166 C 
HETATM    4  C   UNK N   1      31.974  25.962  -4.474  0.00  0.00     0.042 C 
BRANCH   3   5
HETATM    5  C   UNK N   1      30.157  27.527  -3.845  0.00  0.00     0.242 C 
HETATM    6  N   UNK N   1      29.293  28.358  -4.514  0.00  0.00    -0.336 N 
HETATM    7  C   UNK N   1      29.148  29.760  -4.192  0.00  0.00     0.185 C 
HETATM    8  C   UNK N   1      28.631  27.964  -5.727  0.00  0.00     0.127 C 
HETATM    9  C   UNK N   1      28.407  30.365  -5.379  0.00  0.00     0.038 C 
HETATM   10  C   UNK N   1      28.279  29.263  -6.424  0.00  0.00     0.022 C 
HETATM   11  O   UNK N   1      30.748  27.945  -2.855  0.00  0.00    -0.271 OA
BRANCH   7  12
HETATM   12  C   UNK N   1      28.395  30.015  -2.905  0.00  0.00     0.163 C 
HETATM   13  O   UNK N   1      27.194  30.224  -2.928  0.00  0.00    -0.648 OA
BRANCH  12  14
HETATM   14  O   UNK N   1      29.032  29.956  -1.717  0.00  0.00    -0.775 OA
HETATM   15  H   UNK N   1      29.901  30.245  -1.519  0.00  0.00     0.167 HD
ENDBRANCH  12  14
ENDBRANCH   7  12
ENDBRANCH   3   5
ENDBRANCH   1   3
BRANCH   1  16
HETATM   16  C   UNK N   1      29.824  23.797  -3.902  0.00  0.00     0.178 C 
BRANCH  16  17
HETATM   17  C   UNK N   1      30.144  22.693  -2.906  0.00  0.00     0.281 C 
HETATM   18  O   UNK N   1      30.444  22.986  -1.757  0.00  0.00    -0.263 OA
BRANCH  17  19
HETATM   19  O   UNK N   1      30.159  21.393  -3.302  0.00  0.00    -0.320 OA
BRANCH  19  20
HETATM   20  C   UNK N   1      30.583  21.008  -4.554  0.00  0.00     0.174 C 
HETATM   21  C   UNK N   1      31.863  20.206  -4.433  0.00  0.00     0.034 C 
ENDBRANCH  19  20
ENDBRANCH  17  19
ENDBRANCH  16  17
BRANCH  16  22
HETATM   22  C   UNK N   1      28.366  23.699  -4.332  0.00  0.00     0.039 C 
BRANCH  22  23
HETATM   23  C   UNK N   1      27.459  24.353  -3.308  0.00  0.00     0.041 C 
BRANCH  23  24
HETATM   24  C   UNK N   1      26.587  25.378  -3.953  0.00  0.00    -0.058 A 
HETATM   25  C   UNK N   1      26.046  25.139  -5.224  0.00  0.00     0.007 A 
HETATM   26  C   UNK N   1      25.254  26.111  -5.843  0.00  0.00     0.001 A 
HETATM   27  C   UNK N   1      25.008  27.327  -5.200  0.00  0.00     0.000 A 
HETATM   28  C   UNK N   1      25.549  27.569  -3.933  0.00  0.00     0.001 A 
HETATM   29  C   UNK N   1      26.339  26.597  -3.310  0.00  0.00     0.007 A 
ENDBRANCH  23  24
ENDBRANCH  22  23
ENDBRANCH  16  22
ENDBRANCH   1  16
TORSDOF 11
ENDMDL
MODEL 6
REMARK VINA RESULT:      -6.2     12.163     15.903
REMARK  11 active torsions:
REMARK  status: ('A' for Active; 'I' for Inactive)
REMARK       I    between atoms: C_2  and  N_1 
REMARK    1  A    between atoms: C_5  and  C_2 
REMARK    2  A    between atoms: C_3  and  C_6 
REMARK    3  A    between atoms: C_5  and  N_4 
REMARK    4  A    between atoms: C_8  and  N_4 
REMARK    5  A    between atoms: O_14  and  C_6 
REMARK    6  A    between atoms: C_8  and  C_7 
REMARK    7  A    between atoms: O_15  and  C_7 
REMARK    8  A    between atoms: C_12  and  C_8 
REMARK    9  A    between atoms: C_16  and  C_12 
REMARK   10  A    between atoms: C_21  and  O_15 
REMARK   11  A    between atoms: C_18  and  C_16 
ROOT
HETATM    1  N   UNK N   1      24.071  18.669   5.101  0.00  0.00    -0.397 N 
HETATM    2  H   UNK N   1      23.562  19.122   5.860  0.00  0.00     0.154 HD
ENDROOT
BRANCH   1   3
HETATM    3  C   UNK N   1      24.169  17.214   4.953  0.00  0.00     0.166 C 
HETATM    4  C   UNK N   1      25.225  16.948   3.890  0.00  0.00     0.042 C 
BRANCH   3   5
HETATM    5  C   UNK N   1      22.835  16.651   4.475  0.00  0.00     0.242 C 
HETATM    6  N   UNK N   1      22.004  15.943   5.308  0.00  0.00    -0.336 N 
HETATM    7  C   UNK N   1      20.846  15.221   4.830  0.00  0.00     0.185 C 
HETATM    8  C   UNK N   1      22.337  15.675   6.680  0.00  0.00     0.127 C 
HETATM    9  C   UNK N   1      20.450  14.303   5.980  0.00  0.00     0.038 C 
HETATM   10  C   UNK N   1      21.525  14.450   7.050  0.00  0.00     0.022 C 
HETATM   11  O   UNK N   1      22.530  16.786   3.295  0.00  0.00    -0.271 OA
BRANCH   7  12
HETATM   12  C   UNK N   1      19.690  16.116   4.439  0.00  0.00     0.163 C 
HETATM   13  O   UNK N   1      18.867  16.455   5.271  0.00  0.00    -0.648 OA
BRANCH  12  14
HETATM   14  O   UNK N   1      19.591  16.592   3.180  0.00  0.00    -0.775 OA
HETATM   15  H   UNK N   1      19.518  17.486   2.910  0.00  0.00     0.167 HD
ENDBRANCH  12  14
ENDBRANCH   7  12
ENDBRANCH   3   5
ENDBRANCH   1   3
BRANCH   1  16
HETATM   16  C   UNK N   1      24.777  19.407   4.054  0.00  0.00     0.178 C 
BRANCH  16  17
HETATM   17  C   UNK N   1      23.834  20.177   3.143  0.00  0.00     0.281 C 
HETATM   18  O   UNK N   1      24.291  20.844   2.226  0.00  0.00    -0.263 OA
BRANCH  17  19
HETATM   19  O   UNK N   1      22.496  20.178   3.383  0.00  0.00    -0.320 OA
BRANCH  19  20
HETATM   20  C   UNK N   1      21.572  20.473   2.406  0.00  0.00     0.174 C 
HETATM   21  C   UNK N   1      20.198  20.016   2.851  0.00  0.00     0.034 C 
ENDBRANCH  19  20
ENDBRANCH  17  19
ENDBRANCH  16  17
BRANCH  16  22
HETATM   22  C   UNK N   1      25.733  20.371   4.744  0.00  0.00     0.039 C 
BRANCH  22  23
HETATM   23  C   UNK N   1      27.164  20.101   4.325  0.00  0.00     0.041 C 
BRANCH  23  24
HETATM   24  C   UNK N   1      27.869  19.279   5.352  0.00  0.00    -0.058 A 
HETATM   25  C   UNK N   1      27.733  19.588   6.713  0.00  0.00     0.007 A 
HETATM   26  C   UNK N   1      28.416  18.839   7.674  0.00  0.00     0.001 A 
HETATM   27  C   UNK N   1      29.244  17.784   7.281  0.00  0.00     0.000 A 
HETATM   28  C   UNK N   1      29.384  17.474   5.924  0.00  0.00     0.001 A 
HETATM   29  C   UNK N   1      28.698  18.221   4.960  0.00  0.00     0.007 A 
ENDBRANCH  23  24
ENDBRANCH  22  23
ENDBRANCH  16  22
ENDBRANCH   1  16
TORSDOF 11
ENDMDL
MODEL 7
REMARK VINA RESULT:      -6.1     10.512     14.276
REMARK  11 active torsions:
REMARK  status: ('A' for Active; 'I' for Inactive)
REMARK       I    between atoms: C_2  and  N_1 
REMARK    1  A    between atoms: C_5  and  C_2 
REMARK    2  A    between atoms: C_3  and  C_6 
REMARK    3  A    between atoms: C_5  and  N_4 
REMARK    4  A    between atoms: C_8  and  N_4 
REMARK    5  A    between atoms: O_14  and  C_6 
REMARK    6  A    between atoms: C_8  and  C_7 
REMARK    7  A    between atoms: O_15  and  C_7 
REMARK    8  A    between atoms: C_12  and  C_8 
REMARK    9  A    between atoms: C_16  and  C_12 
REMARK   10  A    between atoms: C_21  and  O_15 
REMARK   11  A    between atoms: C_18  and  C_16 
ROOT
HETATM    1  N   UNK N   1      25.143  17.474   5.532  0.00  0.00    -0.397 N 
HETATM    2  H   UNK N   1      25.109  18.142   6.303  0.00  0.00     0.154 HD
ENDROOT
BRANCH   1   3
HETATM    3  C   UNK N   1      23.948  16.877   4.929  0.00  0.00     0.166 C 
HETATM    4  C   UNK N   1      24.421  15.718   4.063  0.00  0.00     0.042 C 
BRANCH   3   5
HETATM    5  C   UNK N   1      23.248  17.902   4.042  0.00  0.00     0.242 C 
HETATM    6  N   UNK N   1      21.883  17.927   3.900  0.00  0.00    -0.336 N 
HETATM    7  C   UNK N   1      21.214  18.741   2.910  0.00  0.00     0.185 C 
HETATM    8  C   UNK N   1      21.022  16.988   4.565  0.00  0.00     0.127 C 
HETATM    9  C   UNK N   1      19.792  18.197   2.845  0.00  0.00     0.038 C 
HETATM   10  C   UNK N   1      19.752  16.962   3.736  0.00  0.00     0.022 C 
HETATM   11  O   UNK N   1      23.935  18.683   3.394  0.00  0.00    -0.271 OA
BRANCH   7  12
HETATM   12  C   UNK N   1      21.207  20.218   3.240  0.00  0.00     0.163 C 
HETATM   13  O   UNK N   1      20.344  20.681   3.966  0.00  0.00    -0.648 OA
BRANCH  12  14
HETATM   14  O   UNK N   1      22.186  21.025   2.780  0.00  0.00    -0.775 OA
HETATM   15  H   UNK N   1      22.165  21.576   2.023  0.00  0.00     0.167 HD
ENDBRANCH  12  14
ENDBRANCH   7  12
ENDBRANCH   3   5
ENDBRANCH   1   3
BRANCH   1  16
HETATM   16  C   UNK N   1      26.391  17.016   4.920  0.00  0.00     0.178 C 
BRANCH  16  17
HETATM   17  C   UNK N   1      27.272  18.165   4.458  0.00  0.00     0.281 C 
HETATM   18  O   UNK N   1      28.320  17.925   3.875  0.00  0.00    -0.263 OA
BRANCH  17  19
HETATM   19  O   UNK N   1      26.933  19.450   4.744  0.00  0.00    -0.320 OA
BRANCH  19  20
HETATM   20  C   UNK N   1      27.752  20.285   5.469  0.00  0.00     0.174 C 
HETATM   21  C   UNK N   1      26.972  20.890   6.618  0.00  0.00     0.034 C 
ENDBRANCH  19  20
ENDBRANCH  17  19
ENDBRANCH  16  17
BRANCH  16  22
HETATM   22  C   UNK N   1      27.128  16.184   5.963  0.00  0.00     0.039 C 
BRANCH  22  23
HETATM   23  C   UNK N   1      26.963  16.787   7.344  0.00  0.00     0.041 C 
BRANCH  23  24
HETATM   24  C   UNK N   1      28.266  17.314   7.848  0.00  0.00    -0.058 A 
HETATM   25  C   UNK N   1      29.455  17.011   7.170  0.00  0.00     0.007 A 
HETATM   26  C   UNK N   1      30.679  17.476   7.658  0.00  0.00     0.001 A 
HETATM   27  C   UNK N   1      30.721  18.239   8.828  0.00  0.00     0.000 A 
HETATM   28  C   UNK N   1      29.536  18.541   9.509  0.00  0.00     0.001 A 
HETATM   29  C   UNK N   1      28.309  18.078   9.020  0.00  0.00     0.007 A 
ENDBRANCH  23  24
ENDBRANCH  22  23
ENDBRANCH  16  22
ENDBRANCH   1  16
TORSDOF 11
ENDMDL
MODEL 8
REMARK VINA RESULT:      -6.1     13.764     16.441
REMARK  11 active torsions:
REMARK  status: ('A' for Active; 'I' for Inactive)
REMARK       I    between atoms: C_2  and  N_1 
REMARK    1  A    between atoms: C_5  and  C_2 
REMARK    2  A    between atoms: C_3  and  C_6 
REMARK    3  A    between atoms: C_5  and  N_4 
REMARK    4  A    between atoms: C_8  and  N_4 
REMARK    5  A    between atoms: O_14  and  C_6 
REMARK    6  A    between atoms: C_8  and  C_7 
REMARK    7  A    between atoms: O_15  and  C_7 
REMARK    8  A    between atoms: C_12  and  C_8 
REMARK    9  A    between atoms: C_16  and  C_12 
REMARK   10  A    between atoms: C_21  and  O_15 
REMARK   11  A    between atoms: C_18  and  C_16 
ROOT
HETATM    1  N   UNK N   1      21.861  16.792   6.605  0.00  0.00    -0.397 N 
HETATM    2  H   UNK N   1      21.922  17.760   6.923  0.00  0.00     0.154 HD
ENDROOT
BRANCH   1   3
HETATM    3  C   UNK N   1      22.376  16.336   5.310  0.00  0.00     0.166 C 
HETATM    4  C   UNK N   1      23.892  16.457   5.370  0.00  0.00     0.042 C 
BRANCH   3   5
HETATM    5  C   UNK N   1      21.852  17.238   4.198  0.00  0.00     0.242 C 
HETATM    6  N   UNK N   1      21.000  16.775   3.227  0.00  0.00    -0.336 N 
HETATM    7  C   UNK N   1      20.661  17.543   2.050  0.00  0.00     0.185 C 
HETATM    8  C   UNK N   1      20.551  15.410   3.185  0.00  0.00     0.127 C 
HETATM    9  C   UNK N   1      20.022  16.543   1.094  0.00  0.00     0.038 C 
HETATM   10  C   UNK N   1      20.155  15.170   1.741  0.00  0.00     0.022 C 
HETATM   11  O   UNK N   1      22.257  18.394   4.140  0.00  0.00    -0.271 OA
BRANCH   7  12
HETATM   12  C   UNK N   1      19.720  18.695   2.325  0.00  0.00     0.163 C 
HETATM   13  O   UNK N   1      20.131  19.843   2.302  0.00  0.00    -0.648 OA
BRANCH  12  14
HETATM   14  O   UNK N   1      18.408  18.469   2.543  0.00  0.00    -0.775 OA
HETATM   15  H   UNK N   1      17.700  19.078   2.460  0.00  0.00     0.167 HD
ENDBRANCH  12  14
ENDBRANCH   7  12
ENDBRANCH   3   5
ENDBRANCH   1   3
BRANCH   1  16
HETATM   16  C   UNK N   1      21.252  15.722   7.396  0.00  0.00     0.178 C 
BRANCH  16  17
HETATM   17  C   UNK N   1      19.741  15.859   7.499  0.00  0.00     0.281 C 
HETATM   18  O   UNK N   1      19.067  15.898   6.479  0.00  0.00    -0.263 OA
BRANCH  17  19
HETATM   19  O   UNK N   1      19.145  16.000   8.713  0.00  0.00    -0.320 OA
BRANCH  19  20
HETATM   20  C   UNK N   1      18.373  17.094   9.032  0.00  0.00     0.174 C 
HETATM   21  C   UNK N   1      19.268  18.268   9.371  0.00  0.00     0.034 C 
ENDBRANCH  19  20
ENDBRANCH  17  19
ENDBRANCH  16  17
BRANCH  16  22
HETATM   22  C   UNK N   1      21.608  14.403   6.722  0.00  0.00     0.039 C 
BRANCH  22  23
HETATM   23  C   UNK N   1      20.937  13.242   7.429  0.00  0.00     0.041 C 
BRANCH  23  24
HETATM   24  C   UNK N   1      21.752  12.792   8.596  0.00  0.00    -0.058 A 
HETATM   25  C   UNK N   1      23.071  12.358   8.405  0.00  0.00     0.007 A 
HETATM   26  C   UNK N   1      23.826  11.907   9.491  0.00  0.00     0.001 A 
HETATM   27  C   UNK N   1      23.264  11.881  10.770  0.00  0.00     0.000 A 
HETATM   28  C   UNK N   1      21.947  12.311  10.964  0.00  0.00     0.001 A 
HETATM   29  C   UNK N   1      21.191  12.766   9.878  0.00  0.00     0.007 A 
ENDBRANCH  23  24
ENDBRANCH  22  23
ENDBRANCH  16  22
ENDBRANCH   1  16
TORSDOF 11
ENDMDL
MODEL 9
REMARK VINA RESULT:      -6.0     10.219     13.973
REMARK  11 active torsions:
REMARK  status: ('A' for Active; 'I' for Inactive)
REMARK       I    between atoms: C_2  and  N_1 
REMARK    1  A    between atoms: C_5  and  C_2 
REMARK    2  A    between atoms: C_3  and  C_6 
REMARK    3  A    between atoms: C_5  and  N_4 
REMARK    4  A    between atoms: C_8  and  N_4 
REMARK    5  A    between atoms: O_14  and  C_6 
REMARK    6  A    between atoms: C_8  and  C_7 
REMARK    7  A    between atoms: O_15  and  C_7 
REMARK    8  A    between atoms: C_12  and  C_8 
REMARK    9  A    between atoms: C_16  and  C_12 
REMARK   10  A    between atoms: C_21  and  O_15 
REMARK   11  A    between atoms: C_18  and  C_16 
ROOT
HETATM    1  N   UNK N   1      25.552  17.343   5.692  0.00  0.00    -0.397 N 
HETATM    2  H   UNK N   1      25.623  17.601   6.676  0.00  0.00     0.154 HD
ENDROOT
BRANCH   1   3
HETATM    3  C   UNK N   1      24.491  16.483   5.159  0.00  0.00     0.166 C 
HETATM    4  C   UNK N   1      24.578  16.562   3.641  0.00  0.00     0.042 C 
BRANCH   3   5
HETATM    5  C   UNK N   1      23.128  17.005   5.603  0.00  0.00     0.242 C 
HETATM    6  N   UNK N   1      22.163  16.174   6.115  0.00  0.00    -0.336 N 
HETATM    7  C   UNK N   1      20.801  16.601   6.341  0.00  0.00     0.185 C 
HETATM    8  C   UNK N   1      22.364  14.758   6.256  0.00  0.00     0.127 C 
HETATM    9  C   UNK N   1      20.009  15.315   6.543  0.00  0.00     0.038 C 
HETATM   10  C   UNK N   1      20.970  14.162   6.275  0.00  0.00     0.022 C 
HETATM   11  O   UNK N   1      22.873  18.193   5.439  0.00  0.00    -0.271 OA
BRANCH   7  12
HETATM   12  C   UNK N   1      20.641  17.519   7.534  0.00  0.00     0.163 C 
HETATM   13  O   UNK N   1      20.450  17.055   8.645  0.00  0.00    -0.648 OA
BRANCH  12  14
HETATM   14  O   UNK N   1      20.766  18.855   7.389  0.00  0.00    -0.775 OA
HETATM   15  H   UNK N   1      21.548  19.342   7.220  0.00  0.00     0.167 HD
ENDBRANCH  12  14
ENDBRANCH   7  12
ENDBRANCH   3   5
ENDBRANCH   1   3
BRANCH   1  16
HETATM   16  C   UNK N   1      26.498  17.795   4.671  0.00  0.00     0.178 C 
BRANCH  16  17
HETATM   17  C   UNK N   1      26.428  19.294   4.431  0.00  0.00     0.281 C 
HETATM   18  O   UNK N   1      27.006  19.779   3.468  0.00  0.00    -0.263 OA
BRANCH  17  19
HETATM   19  O   UNK N   1      25.783  20.102   5.313  0.00  0.00    -0.320 OA
BRANCH  19  20
HETATM   20  C   UNK N   1      26.375  21.217   5.863  0.00  0.00     0.174 C 
HETATM   21  C   UNK N   1      27.578  20.800   6.685  0.00  0.00     0.034 C 
ENDBRANCH  19  20
ENDBRANCH  17  19
ENDBRANCH  16  17
BRANCH  16  22
HETATM   22  C   UNK N   1      27.894  17.410   5.146  0.00  0.00     0.039 C 
BRANCH  22  23
HETATM   23  C   UNK N   1      27.875  17.032   6.614  0.00  0.00     0.041 C 
BRANCH  23  24
HETATM   24  C   UNK N   1      29.193  17.325   7.250  0.00  0.00    -0.058 A 
HETATM   25  C   UNK N   1      29.251  18.079   8.431  0.00  0.00     0.007 A 
HETATM   26  C   UNK N   1      30.486  18.381   9.011  0.00  0.00     0.001 A 
HETATM   27  C   UNK N   1      31.668  17.939   8.411  0.00  0.00     0.000 A 
HETATM   28  C   UNK N   1      31.614  17.189   7.231  0.00  0.00     0.001 A 
HETATM   29  C   UNK N   1      30.378  16.883   6.650  0.00  0.00     0.007 A 
ENDBRANCH  23  24
ENDBRANCH  22  23
ENDBRANCH  16  22
ENDBRANCH   1  16
TORSDOF 11
ENDMDL
