REMARK  3 active torsions:
REMARK  status: ('A' for Active; 'I' for Inactive)
REMARK    1  A    between atoms: C_7  and  C_8 
REMARK    2  A    between atoms: N_9  and  O_15 
REMARK    3  A    between atoms: C_17  and  N_23 
ROOT
HETATM    1  C   UNK N   1      -1.966   1.349  -0.054  0.00  0.00     0.026 A 
HETATM    2  C   UNK N   1      -2.013  -0.023  -0.246  0.00  0.00     0.035 A 
HETATM    3  C   UNK N   1       0.435  -0.156  -0.171  0.00  0.00     0.022 A 
HETATM    4  C   UNK N   1       0.469   1.269   0.020  0.00  0.00     0.046 A 
HETATM    5  C   UNK N   1      -0.833  -0.755  -0.299  0.00  0.00     0.040 A 
HETATM    6  C   UNK N   1      -0.736   1.983   0.085  0.00  0.00     0.032 A 
HETATM    7  C   UNK N   1       1.652  -1.079  -0.199  0.00  0.00     0.080 C 
HETATM    8  N   UNK N   1       2.828  -0.653  -0.602  0.00  0.00    -0.252 N 
HETATM    9  N   UNK N   1       1.651   2.026   0.237  0.00  0.00    -0.344 N 
ATOM     10  HN  UNK N   1       1.564   2.861   0.816  1.00  0.00     0.167 HD
HETATM   11  C   UNK N   1       3.019   0.650  -1.182  0.00  0.00     0.232 C 
HETATM   12  C   UNK N   1       2.818   1.759  -0.225  0.00  0.00     0.097 C 
HETATM   13 Cl   UNK N   1      -3.554  -0.839  -0.396  0.00  0.00    -0.084 Cl
ENDROOT
BRANCH   7  14
HETATM   14  C   UNK N   1       1.459  -2.552   0.184  0.00  0.00    -0.006 A 
HETATM   15  C   UNK N   1       0.316  -2.979   0.889  0.00  0.00     0.014 A 
HETATM   16  C   UNK N   1       0.104  -4.329   1.180  0.00  0.00     0.001 A 
HETATM   17  C   UNK N   1       1.029  -5.286   0.767  0.00  0.00     0.000 A 
HETATM   18  C   UNK N   1       2.173  -4.890   0.076  0.00  0.00     0.001 A 
HETATM   19  C   UNK N   1       2.386  -3.539  -0.209  0.00  0.00     0.014 A 
ENDBRANCH   7  14
BRANCH   8  20
HETATM   20  O   UNK N   1       3.775  -1.379  -0.589  0.00  0.00    -0.287 OA
ATOM     21  HO  UNK N   1       4.625  -1.071  -0.880  1.00  0.00     0.244 HD
ENDBRANCH   8  20
BRANCH  12  22
HETATM   22  N   UNK N   1       3.900   2.642   0.026  0.00  0.00    -0.383 N 
HETATM   23  C   UNK N   1       3.728   3.865   0.769  0.00  0.00     0.147 C 
HETATM   24  H   UNK N   1       4.794   2.413  -0.316  0.00  0.00     0.160 HD
ENDBRANCH  12  22
TORSDOF 3
