MODEL 1
REMARK VINA RESULT:      -6.2      0.000      0.000
REMARK  6 active torsions:
REMARK  status: ('A' for Active; 'I' for Inactive)
REMARK    1  A    between atoms: O_21  and  C_2 
REMARK    2  A    between atoms: C_19  and  C_15 
REMARK    3  A    between atoms: O_21  and  C_16 
REMARK    4  A    between atoms: O_23  and  C_17 
REMARK    5  A    between atoms: C_18  and  C_19 
REMARK    6  A    between atoms: C_19  and  O_23 
ROOT
HETATM    1  C   UNK N   1      28.616  17.237   5.001  0.00  0.00     0.192 C 
ENDROOT
BRANCH   1   2
HETATM    2  C   UNK N   1      27.980  18.609   5.218  0.00  0.00    -0.026 A 
HETATM    3  C   UNK N   1      27.484  19.391   4.158  0.00  0.00     0.010 A 
HETATM    4  C   UNK N   1      26.915  20.644   4.394  0.00  0.00     0.001 A 
HETATM    5  C   UNK N   1      26.820  21.128   5.700  0.00  0.00     0.000 A 
HETATM    6  C   UNK N   1      27.294  20.361   6.764  0.00  0.00     0.001 A 
HETATM    7  C   UNK N   1      27.873  19.109   6.526  0.00  0.00     0.010 A 
ENDBRANCH   1   2
BRANCH   1   8
HETATM    8  C   UNK N   1      27.558  16.071   4.976  0.00  0.00     0.172 C 
HETATM    9  C   UNK N   1      26.736  15.986   3.666  0.00  0.00     0.148 C 
HETATM   10  N   UNK N   1      27.559  15.517   2.559  0.00  0.00    -0.417 N 
HETATM   11  C   UNK N   1      28.049  14.194   2.916  0.00  0.00     0.140 C 
HETATM   12  H   UNK N   1      27.756  16.022   1.695  0.00  0.00     0.153 HD
HETATM   13  C   UNK N   1      28.880  14.315   4.184  0.00  0.00     0.187 C 
HETATM   14  O   UNK N   1      28.099  14.791   5.269  0.00  0.00    -0.380 OA
ENDBRANCH   1   8
BRANCH   1  15
HETATM   15  O   UNK N   1      29.554  17.081   6.025  0.00  0.00    -0.336 OA
BRANCH  15  16
HETATM   16  C   UNK N   1      30.909  17.223   5.977  0.00  0.00     0.103 A 
HETATM   17  C   UNK N   1      31.586  17.269   4.750  0.00  0.00     0.040 A 
HETATM   18  C   UNK N   1      32.974  17.380   4.692  0.00  0.00     0.003 A 
HETATM   19  C   UNK N   1      33.714  17.455   5.867  0.00  0.00     0.003 A 
HETATM   20  C   UNK N   1      33.063  17.440   7.099  0.00  0.00     0.039 A 
HETATM   21  C   UNK N   1      31.668  17.336   7.178  0.00  0.00     0.102 A 
BRANCH  21  22
HETATM   22  O   UNK N   1      31.113  17.357   8.418  0.00  0.00    -0.349 OA
BRANCH  22  23
HETATM   23  C   UNK N   1      30.557  18.457   9.026  0.00  0.00     0.171 C 
HETATM   24  C   UNK N   1      29.297  18.034   9.756  0.00  0.00     0.034 C 
ENDBRANCH  22  23
ENDBRANCH  21  22
ENDBRANCH  15  16
ENDBRANCH   1  15
TORSDOF 6
ENDMDL
MODEL 2
REMARK VINA RESULT:      -6.1      1.834      3.589
REMARK  6 active torsions:
REMARK  status: ('A' for Active; 'I' for Inactive)
REMARK    1  A    between atoms: O_21  and  C_2 
REMARK    2  A    between atoms: C_19  and  C_15 
REMARK    3  A    between atoms: O_21  and  C_16 
REMARK    4  A    between atoms: O_23  and  C_17 
REMARK    5  A    between atoms: C_18  and  C_19 
REMARK    6  A    between atoms: C_19  and  O_23 
ROOT
HETATM    1  C   UNK N   1      29.655  17.104   4.866  0.00  0.00     0.192 C 
ENDROOT
BRANCH   1   2
HETATM    2  C   UNK N   1      28.402  17.879   4.463  0.00  0.00    -0.026 A 
HETATM    3  C   UNK N   1      28.329  19.284   4.519  0.00  0.00     0.010 A 
HETATM    4  C   UNK N   1      27.164  19.958   4.148  0.00  0.00     0.001 A 
HETATM    5  C   UNK N   1      26.055  19.236   3.702  0.00  0.00     0.000 A 
HETATM    6  C   UNK N   1      26.114  17.844   3.629  0.00  0.00     0.001 A 
HETATM    7  C   UNK N   1      27.280  17.168   4.008  0.00  0.00     0.010 A 
ENDBRANCH   1   2
BRANCH   1   8
HETATM    8  C   UNK N   1      30.060  16.007   3.810  0.00  0.00     0.172 C 
HETATM    9  C   UNK N   1      30.549  16.577   2.456  0.00  0.00     0.148 C 
HETATM   10  N   UNK N   1      31.860  17.202   2.592  0.00  0.00    -0.417 N 
HETATM   11  C   UNK N   1      32.781  16.173   3.051  0.00  0.00     0.140 C 
HETATM   12  H   UNK N   1      32.087  18.177   2.400  0.00  0.00     0.153 HD
HETATM   13  C   UNK N   1      32.294  15.658   4.397  0.00  0.00     0.187 C 
HETATM   14  O   UNK N   1      31.010  15.066   4.288  0.00  0.00    -0.380 OA
ENDBRANCH   1   8
BRANCH   1  15
HETATM   15  O   UNK N   1      29.382  16.556   6.122  0.00  0.00    -0.336 OA
BRANCH  15  16
HETATM   16  C   UNK N   1      29.367  17.168   7.340  0.00  0.00     0.103 A 
HETATM   17  C   UNK N   1      28.170  17.331   8.051  0.00  0.00     0.040 A 
HETATM   18  C   UNK N   1      28.140  17.985   9.281  0.00  0.00     0.003 A 
HETATM   19  C   UNK N   1      29.316  18.485   9.830  0.00  0.00     0.003 A 
HETATM   20  C   UNK N   1      30.525  18.311   9.157  0.00  0.00     0.039 A 
HETATM   21  C   UNK N   1      30.575  17.649   7.923  0.00  0.00     0.102 A 
BRANCH  21  22
HETATM   22  O   UNK N   1      31.798  17.499   7.350  0.00  0.00    -0.349 OA
BRANCH  22  23
HETATM   23  C   UNK N   1      32.990  17.918   7.891  0.00  0.00     0.171 C 
HETATM   24  C   UNK N   1      34.130  17.418   7.024  0.00  0.00     0.034 C 
ENDBRANCH  22  23
ENDBRANCH  21  22
ENDBRANCH  15  16
ENDBRANCH   1  15
TORSDOF 6
ENDMDL
MODEL 3
REMARK VINA RESULT:      -6.1     10.916     13.526
REMARK  6 active torsions:
REMARK  status: ('A' for Active; 'I' for Inactive)
REMARK    1  A    between atoms: O_21  and  C_2 
REMARK    2  A    between atoms: C_19  and  C_15 
REMARK    3  A    between atoms: O_21  and  C_16 
REMARK    4  A    between atoms: O_23  and  C_17 
REMARK    5  A    between atoms: C_18  and  C_19 
REMARK    6  A    between atoms: C_19  and  O_23 
ROOT
HETATM    1  C   UNK N   1      36.363  12.865  14.479  0.00  0.00     0.192 C 
ENDROOT
BRANCH   1   2
HETATM    2  C   UNK N   1      36.383  13.815  15.675  0.00  0.00    -0.026 A 
HETATM    3  C   UNK N   1      37.233  14.936  15.739  0.00  0.00     0.010 A 
HETATM    4  C   UNK N   1      37.227  15.779  16.852  0.00  0.00     0.001 A 
HETATM    5  C   UNK N   1      36.360  15.522  17.915  0.00  0.00     0.000 A 
HETATM    6  C   UNK N   1      35.502  14.423  17.863  0.00  0.00     0.001 A 
HETATM    7  C   UNK N   1      35.513  13.572  16.751  0.00  0.00     0.010 A 
ENDBRANCH   1   2
BRANCH   1   8
HETATM    8  C   UNK N   1      35.456  13.385  13.302  0.00  0.00     0.172 C 
HETATM    9  C   UNK N   1      36.090  14.524  12.465  0.00  0.00     0.148 C 
HETATM   10  N   UNK N   1      37.190  14.025  11.649  0.00  0.00    -0.417 N 
HETATM   11  C   UNK N   1      36.643  13.011  10.761  0.00  0.00     0.140 C 
HETATM   12  H   UNK N   1      38.162  14.330  11.694  0.00  0.00     0.153 HD
HETATM   13  C   UNK N   1      36.059  11.892  11.610  0.00  0.00     0.187 C 
HETATM   14  O   UNK N   1      35.000  12.364  12.426  0.00  0.00    -0.380 OA
ENDBRANCH   1   8
BRANCH   1  15
HETATM   15  O   UNK N   1      35.933  11.631  14.975  0.00  0.00    -0.336 OA
BRANCH  15  16
HETATM   16  C   UNK N   1      36.674  10.539  15.317  0.00  0.00     0.103 A 
HETATM   17  C   UNK N   1      37.919  10.296  14.720  0.00  0.00     0.040 A 
HETATM   18  C   UNK N   1      38.667   9.164  15.039  0.00  0.00     0.003 A 
HETATM   19  C   UNK N   1      38.185   8.254  15.973  0.00  0.00     0.003 A 
HETATM   20  C   UNK N   1      36.963   8.487  16.603  0.00  0.00     0.039 A 
HETATM   21  C   UNK N   1      36.200   9.623  16.300  0.00  0.00     0.102 A 
BRANCH  21  22
HETATM   22  O   UNK N   1      35.036   9.786  16.981  0.00  0.00    -0.349 OA
BRANCH  22  23
HETATM   23  C   UNK N   1      34.864   9.584  18.330  0.00  0.00     0.171 C 
HETATM   24  C   UNK N   1      35.413  10.779  19.084  0.00  0.00     0.034 C 
ENDBRANCH  22  23
ENDBRANCH  21  22
ENDBRANCH  15  16
ENDBRANCH   1  15
TORSDOF 6
ENDMDL
MODEL 4
REMARK VINA RESULT:      -6.0     11.745     13.975
REMARK  6 active torsions:
REMARK  status: ('A' for Active; 'I' for Inactive)
REMARK    1  A    between atoms: O_21  and  C_2 
REMARK    2  A    between atoms: C_19  and  C_15 
REMARK    3  A    between atoms: O_21  and  C_16 
REMARK    4  A    between atoms: O_23  and  C_17 
REMARK    5  A    between atoms: C_18  and  C_19 
REMARK    6  A    between atoms: C_19  and  O_23 
ROOT
HETATM    1  C   UNK N   1      27.314  24.204  -6.090  0.00  0.00     0.192 C 
ENDROOT
BRANCH   1   2
HETATM    2  C   UNK N   1      26.662  23.151  -6.983  0.00  0.00    -0.026 A 
HETATM    3  C   UNK N   1      25.494  22.459  -6.611  0.00  0.00     0.010 A 
HETATM    4  C   UNK N   1      24.930  21.497  -7.452  0.00  0.00     0.001 A 
HETATM    5  C   UNK N   1      25.520  21.222  -8.686  0.00  0.00     0.000 A 
HETATM    6  C   UNK N   1      26.671  21.907  -9.077  0.00  0.00     0.001 A 
HETATM    7  C   UNK N   1      27.241  22.865  -8.230  0.00  0.00     0.010 A 
ENDBRANCH   1   2
BRANCH   1   8
HETATM    8  C   UNK N   1      27.114  25.671  -6.630  0.00  0.00     0.172 C 
HETATM    9  C   UNK N   1      25.643  26.038  -6.943  0.00  0.00     0.148 C 
HETATM   10  N   UNK N   1      24.866  26.182  -5.719  0.00  0.00    -0.417 N 
HETATM   11  C   UNK N   1      25.481  27.246  -4.940  0.00  0.00     0.140 C 
HETATM   12  H   UNK N   1      24.044  25.638  -5.457  0.00  0.00     0.153 HD
HETATM   13  C   UNK N   1      26.912  26.840  -4.618  0.00  0.00     0.187 C 
HETATM   14  O   UNK N   1      27.678  26.676  -5.800  0.00  0.00    -0.380 OA
ENDBRANCH   1   8
BRANCH   1  15
HETATM   15  O   UNK N   1      28.663  23.851  -5.998  0.00  0.00    -0.336 OA
BRANCH  15  16
HETATM   16  C   UNK N   1      29.293  23.110  -5.043  0.00  0.00     0.103 A 
HETATM   17  C   UNK N   1      29.426  23.587  -3.732  0.00  0.00     0.040 A 
HETATM   18  C   UNK N   1      30.098  22.851  -2.757  0.00  0.00     0.003 A 
HETATM   19  C   UNK N   1      30.645  21.613  -3.078  0.00  0.00     0.003 A 
HETATM   20  C   UNK N   1      30.502  21.103  -4.367  0.00  0.00     0.039 A 
HETATM   21  C   UNK N   1      29.823  21.825  -5.357  0.00  0.00     0.102 A 
BRANCH  21  22
HETATM   22  O   UNK N   1      29.706  21.242  -6.579  0.00  0.00    -0.349 OA
BRANCH  22  23
HETATM   23  C   UNK N   1      30.169  19.992  -6.915  0.00  0.00     0.171 C 
HETATM   24  C   UNK N   1      29.125  19.288  -7.760  0.00  0.00     0.034 C 
ENDBRANCH  22  23
ENDBRANCH  21  22
ENDBRANCH  15  16
ENDBRANCH   1  15
TORSDOF 6
ENDMDL
MODEL 5
REMARK VINA RESULT:      -5.8      2.296      6.296
REMARK  6 active torsions:
REMARK  status: ('A' for Active; 'I' for Inactive)
REMARK    1  A    between atoms: O_21  and  C_2 
REMARK    2  A    between atoms: C_19  and  C_15 
REMARK    3  A    between atoms: O_21  and  C_16 
REMARK    4  A    between atoms: O_23  and  C_17 
REMARK    5  A    between atoms: C_18  and  C_19 
REMARK    6  A    between atoms: C_19  and  O_23 
ROOT
HETATM    1  C   UNK N   1      29.648  17.422   5.573  0.00  0.00     0.192 C 
ENDROOT
BRANCH   1   2
HETATM    2  C   UNK N   1      30.777  16.847   4.719  0.00  0.00    -0.026 A 
HETATM    3  C   UNK N   1      30.801  15.503   4.301  0.00  0.00     0.010 A 
HETATM    4  C   UNK N   1      31.853  15.011   3.526  0.00  0.00     0.001 A 
HETATM    5  C   UNK N   1      32.893  15.861   3.146  0.00  0.00     0.000 A 
HETATM    6  C   UNK N   1      32.879  17.200   3.541  0.00  0.00     0.001 A 
HETATM    7  C   UNK N   1      31.828  17.690   4.325  0.00  0.00     0.010 A 
ENDBRANCH   1   2
BRANCH   1   8
HETATM    8  C   UNK N   1      29.551  16.746   6.992  0.00  0.00     0.172 C 
HETATM    9  C   UNK N   1      30.872  16.768   7.799  0.00  0.00     0.148 C 
HETATM   10  N   UNK N   1      31.186  18.118   8.254  0.00  0.00    -0.417 N 
HETATM   11  C   UNK N   1      30.087  18.552   9.103  0.00  0.00     0.140 C 
HETATM   12  H   UNK N   1      32.021  18.655   8.022  0.00  0.00     0.153 HD
HETATM   13  C   UNK N   1      28.811  18.553   8.274  0.00  0.00     0.187 C 
HETATM   14  O   UNK N   1      28.501  17.251   7.805  0.00  0.00    -0.380 OA
ENDBRANCH   1   8
BRANCH   1  15
HETATM   15  O   UNK N   1      28.478  17.258   4.826  0.00  0.00    -0.336 OA
BRANCH  15  16
HETATM   16  C   UNK N   1      27.553  18.192   4.465  0.00  0.00     0.103 A 
HETATM   17  C   UNK N   1      27.880  19.554   4.425  0.00  0.00     0.040 A 
HETATM   18  C   UNK N   1      26.932  20.518   4.090  0.00  0.00     0.003 A 
HETATM   19  C   UNK N   1      25.632  20.134   3.779  0.00  0.00     0.003 A 
HETATM   20  C   UNK N   1      25.288  18.783   3.783  0.00  0.00     0.039 A 
HETATM   21  C   UNK N   1      26.230  17.799   4.110  0.00  0.00     0.102 A 
BRANCH  21  22
HETATM   22  O   UNK N   1      25.817  16.506   4.063  0.00  0.00    -0.349 OA
BRANCH  22  23
HETATM   23  C   UNK N   1      25.266  15.883   2.968  0.00  0.00     0.171 C 
HETATM   24  C   UNK N   1      26.369  15.547   1.983  0.00  0.00     0.034 C 
ENDBRANCH  22  23
ENDBRANCH  21  22
ENDBRANCH  15  16
ENDBRANCH   1  15
TORSDOF 6
ENDMDL
MODEL 6
REMARK VINA RESULT:      -5.8     11.846     13.946
REMARK  6 active torsions:
REMARK  status: ('A' for Active; 'I' for Inactive)
REMARK    1  A    between atoms: O_21  and  C_2 
REMARK    2  A    between atoms: C_19  and  C_15 
REMARK    3  A    between atoms: O_21  and  C_16 
REMARK    4  A    between atoms: O_23  and  C_17 
REMARK    5  A    between atoms: C_18  and  C_19 
REMARK    6  A    between atoms: C_19  and  O_23 
ROOT
HETATM    1  C   UNK N   1      27.084  26.377  -5.261  0.00  0.00     0.192 C 
ENDROOT
BRANCH   1   2
HETATM    2  C   UNK N   1      27.186  27.893  -5.104  0.00  0.00    -0.026 A 
HETATM    3  C   UNK N   1      27.954  28.694  -5.972  0.00  0.00     0.010 A 
HETATM    4  C   UNK N   1      28.029  30.077  -5.793  0.00  0.00     0.001 A 
HETATM    5  C   UNK N   1      27.326  30.683  -4.751  0.00  0.00     0.000 A 
HETATM    6  C   UNK N   1      26.550  29.906  -3.890  0.00  0.00     0.001 A 
HETATM    7  C   UNK N   1      26.481  28.518  -4.063  0.00  0.00     0.010 A 
ENDBRANCH   1   2
BRANCH   1   8
HETATM    8  C   UNK N   1      25.683  25.914  -5.814  0.00  0.00     0.172 C 
HETATM    9  C   UNK N   1      25.473  26.190  -7.323  0.00  0.00     0.148 C 
HETATM   10  N   UNK N   1      26.299  25.306  -8.138  0.00  0.00    -0.417 N 
HETATM   11  C   UNK N   1      25.903  23.941  -7.830  0.00  0.00     0.140 C 
HETATM   12  H   UNK N   1      27.020  25.593  -8.800  0.00  0.00     0.153 HD
HETATM   13  C   UNK N   1      26.154  23.690  -6.350  0.00  0.00     0.187 C 
HETATM   14  O   UNK N   1      25.373  24.555  -5.542  0.00  0.00    -0.380 OA
ENDBRANCH   1   8
BRANCH   1  15
HETATM   15  O   UNK N   1      27.360  25.840  -4.000  0.00  0.00    -0.336 OA
BRANCH  15  16
HETATM   16  C   UNK N   1      28.368  25.001  -3.627  0.00  0.00     0.103 A 
HETATM   17  C   UNK N   1      28.092  23.770  -3.017  0.00  0.00     0.040 A 
HETATM   18  C   UNK N   1      29.117  22.921  -2.602  0.00  0.00     0.003 A 
HETATM   19  C   UNK N   1      30.444  23.287  -2.799  0.00  0.00     0.003 A 
HETATM   20  C   UNK N   1      30.745  24.493  -3.429  0.00  0.00     0.039 A 
HETATM   21  C   UNK N   1      29.728  25.356  -3.860  0.00  0.00     0.102 A 
BRANCH  21  22
HETATM   22  O   UNK N   1      30.110  26.498  -4.490  0.00  0.00    -0.349 OA
BRANCH  22  23
HETATM   23  C   UNK N   1      30.972  27.440  -3.982  0.00  0.00     0.171 C 
HETATM   24  C   UNK N   1      30.226  28.309  -2.988  0.00  0.00     0.034 C 
ENDBRANCH  22  23
ENDBRANCH  21  22
ENDBRANCH  15  16
ENDBRANCH   1  15
TORSDOF 6
ENDMDL
MODEL 7
REMARK VINA RESULT:      -5.7      1.225      2.910
REMARK  6 active torsions:
REMARK  status: ('A' for Active; 'I' for Inactive)
REMARK    1  A    between atoms: O_21  and  C_2 
REMARK    2  A    between atoms: C_19  and  C_15 
REMARK    3  A    between atoms: O_21  and  C_16 
REMARK    4  A    between atoms: O_23  and  C_17 
REMARK    5  A    between atoms: C_18  and  C_19 
REMARK    6  A    between atoms: C_19  and  O_23 
ROOT
HETATM    1  C   UNK N   1      29.278  16.849   5.380  0.00  0.00     0.192 C 
ENDROOT
BRANCH   1   2
HETATM    2  C   UNK N   1      28.604  18.179   5.712  0.00  0.00    -0.026 A 
HETATM    3  C   UNK N   1      28.217  18.526   7.020  0.00  0.00     0.010 A 
HETATM    4  C   UNK N   1      27.597  19.749   7.285  0.00  0.00     0.001 A 
HETATM    5  C   UNK N   1      27.367  20.651   6.245  0.00  0.00     0.000 A 
HETATM    6  C   UNK N   1      27.756  20.328   4.944  0.00  0.00     0.001 A 
HETATM    7  C   UNK N   1      28.370  19.099   4.677  0.00  0.00     0.010 A 
ENDBRANCH   1   2
BRANCH   1   8
HETATM    8  C   UNK N   1      28.244  15.698   5.083  0.00  0.00     0.172 C 
HETATM    9  C   UNK N   1      27.581  15.784   3.687  0.00  0.00     0.148 C 
HETATM   10  N   UNK N   1      28.534  15.458   2.632  0.00  0.00    -0.417 N 
HETATM   11  C   UNK N   1      28.994  14.099   2.873  0.00  0.00     0.140 C 
HETATM   12  H   UNK N   1      28.823  16.069   1.869  0.00  0.00     0.153 HD
HETATM   13  C   UNK N   1      29.671  14.055   4.235  0.00  0.00     0.187 C 
HETATM   14  O   UNK N   1      28.763  14.390   5.272  0.00  0.00    -0.380 OA
ENDBRANCH   1   8
BRANCH   1  15
HETATM   15  O   UNK N   1      30.103  16.553   6.469  0.00  0.00    -0.336 OA
BRANCH  15  16
HETATM   16  C   UNK N   1      31.369  16.987   6.729  0.00  0.00     0.103 A 
HETATM   17  C   UNK N   1      31.742  17.391   8.018  0.00  0.00     0.040 A 
HETATM   18  C   UNK N   1      33.024  17.867   8.286  0.00  0.00     0.003 A 
HETATM   19  C   UNK N   1      33.965  17.941   7.263  0.00  0.00     0.003 A 
HETATM   20  C   UNK N   1      33.628  17.517   5.979  0.00  0.00     0.039 A 
HETATM   21  C   UNK N   1      32.347  17.028   5.693  0.00  0.00     0.102 A 
BRANCH  21  22
HETATM   22  O   UNK N   1      32.112  16.611   4.421  0.00  0.00    -0.349 OA
BRANCH  22  23
HETATM   23  C   UNK N   1      32.954  16.800   3.351  0.00  0.00     0.171 C 
HETATM   24  C   UNK N   1      33.469  15.452   2.883  0.00  0.00     0.034 C 
ENDBRANCH  22  23
ENDBRANCH  21  22
ENDBRANCH  15  16
ENDBRANCH   1  15
TORSDOF 6
ENDMDL
MODEL 8
REMARK VINA RESULT:      -5.6     13.241     15.139
REMARK  6 active torsions:
REMARK  status: ('A' for Active; 'I' for Inactive)
REMARK    1  A    between atoms: O_21  and  C_2 
REMARK    2  A    between atoms: C_19  and  C_15 
REMARK    3  A    between atoms: O_21  and  C_16 
REMARK    4  A    between atoms: O_23  and  C_17 
REMARK    5  A    between atoms: C_18  and  C_19 
REMARK    6  A    between atoms: C_19  and  O_23 
ROOT
HETATM    1  C   UNK N   1      26.543  24.533  -8.071  0.00  0.00     0.192 C 
ENDROOT
BRANCH   1   2
HETATM    2  C   UNK N   1      26.412  25.753  -7.162  0.00  0.00    -0.026 A 
HETATM    3  C   UNK N   1      25.438  25.842  -6.148  0.00  0.00     0.010 A 
HETATM    4  C   UNK N   1      25.344  26.978  -5.341  0.00  0.00     0.001 A 
HETATM    5  C   UNK N   1      26.233  28.038  -5.526  0.00  0.00     0.000 A 
HETATM    6  C   UNK N   1      27.212  27.962  -6.518  0.00  0.00     0.001 A 
HETATM    7  C   UNK N   1      27.300  26.827  -7.333  0.00  0.00     0.010 A 
ENDBRANCH   1   2
BRANCH   1   8
HETATM    8  C   UNK N   1      25.353  24.404  -9.095  0.00  0.00     0.172 C 
HETATM    9  C   UNK N   1      25.243  25.583 -10.093  0.00  0.00     0.148 C 
HETATM   10  N   UNK N   1      26.331  25.553 -11.063  0.00  0.00    -0.417 N 
HETATM   11  C   UNK N   1      26.232  24.292 -11.782  0.00  0.00     0.140 C 
HETATM   12  H   UNK N   1      27.030  26.280 -11.210  0.00  0.00     0.153 HD
HETATM   13  C   UNK N   1      26.379  23.155 -10.782  0.00  0.00     0.187 C 
HETATM   14  O   UNK N   1      25.340  23.181  -9.817  0.00  0.00    -0.380 OA
ENDBRANCH   1   8
BRANCH   1  15
HETATM   15  O   UNK N   1      26.633  23.428  -7.220  0.00  0.00    -0.336 OA
BRANCH  15  16
HETATM   16  C   UNK N   1      27.685  22.585  -7.017  0.00  0.00     0.103 A 
HETATM   17  C   UNK N   1      27.885  21.469  -7.841  0.00  0.00     0.040 A 
HETATM   18  C   UNK N   1      28.939  20.584  -7.620  0.00  0.00     0.003 A 
HETATM   19  C   UNK N   1      29.821  20.805  -6.567  0.00  0.00     0.003 A 
HETATM   20  C   UNK N   1      29.661  21.922  -5.750  0.00  0.00     0.039 A 
HETATM   21  C   UNK N   1      28.612  22.827  -5.962  0.00  0.00     0.102 A 
BRANCH  21  22
HETATM   22  O   UNK N   1      28.547  23.904  -5.136  0.00  0.00    -0.349 OA
BRANCH  22  23
HETATM   23  C   UNK N   1      29.615  24.672  -4.739  0.00  0.00     0.171 C 
HETATM   24  C   UNK N   1      29.098  25.953  -4.113  0.00  0.00     0.034 C 
ENDBRANCH  22  23
ENDBRANCH  21  22
ENDBRANCH  15  16
ENDBRANCH   1  15
TORSDOF 6
ENDMDL
MODEL 9
REMARK VINA RESULT:      -5.6      1.534      3.107
REMARK  6 active torsions:
REMARK  status: ('A' for Active; 'I' for Inactive)
REMARK    1  A    between atoms: O_21  and  C_2 
REMARK    2  A    between atoms: C_19  and  C_15 
REMARK    3  A    between atoms: O_21  and  C_16 
REMARK    4  A    between atoms: O_23  and  C_17 
REMARK    5  A    between atoms: C_18  and  C_19 
REMARK    6  A    between atoms: C_19  and  O_23 
ROOT
HETATM    1  C   UNK N   1      28.564  17.143   4.423  0.00  0.00     0.192 C 
ENDROOT
BRANCH   1   2
HETATM    2  C   UNK N   1      27.533  18.246   4.189  0.00  0.00    -0.026 A 
HETATM    3  C   UNK N   1      27.811  19.606   4.424  0.00  0.00     0.010 A 
HETATM    4  C   UNK N   1      26.841  20.585   4.205  0.00  0.00     0.001 A 
HETATM    5  C   UNK N   1      25.578  20.221   3.734  0.00  0.00     0.000 A 
HETATM    6  C   UNK N   1      25.289  18.878   3.485  0.00  0.00     0.001 A 
HETATM    7  C   UNK N   1      26.259  17.895   3.712  0.00  0.00     0.010 A 
ENDBRANCH   1   2
BRANCH   1   8
HETATM    8  C   UNK N   1      28.392  15.928   3.435  0.00  0.00     0.172 C 
HETATM    9  C   UNK N   1      29.720  15.241   3.035  0.00  0.00     0.148 C 
HETATM   10  N   UNK N   1      30.285  14.496   4.154  0.00  0.00    -0.417 N 
HETATM   11  C   UNK N   1      29.308  13.488   4.537  0.00  0.00     0.140 C 
HETATM   12  H   UNK N   1      31.194  14.653   4.587  0.00  0.00     0.153 HD
HETATM   13  C   UNK N   1      28.027  14.194   4.957  0.00  0.00     0.187 C 
HETATM   14  O   UNK N   1      27.475  14.941   3.886  0.00  0.00    -0.380 OA
ENDBRANCH   1   8
BRANCH   1  15
HETATM   15  O   UNK N   1      28.426  16.764   5.760  0.00  0.00    -0.336 OA
BRANCH  15  16
HETATM   16  C   UNK N   1      29.025  17.289   6.867  0.00  0.00     0.103 A 
HETATM   17  C   UNK N   1      28.280  17.987   7.828  0.00  0.00     0.040 A 
HETATM   18  C   UNK N   1      28.889  18.555   8.945  0.00  0.00     0.003 A 
HETATM   19  C   UNK N   1      30.262  18.429   9.126  0.00  0.00     0.003 A 
HETATM   20  C   UNK N   1      31.021  17.715   8.201  0.00  0.00     0.039 A 
HETATM   21  C   UNK N   1      30.426  17.130   7.076  0.00  0.00     0.102 A 
BRANCH  21  22
HETATM   22  O   UNK N   1      31.235  16.429   6.240  0.00  0.00    -0.349 OA
BRANCH  22  23
HETATM   23  C   UNK N   1      32.443  16.863   5.747  0.00  0.00     0.171 C 
HETATM   24  C   UNK N   1      32.204  17.639   4.467  0.00  0.00     0.034 C 
ENDBRANCH  22  23
ENDBRANCH  21  22
ENDBRANCH  15  16
ENDBRANCH   1  15
TORSDOF 6
ENDMDL
