MODEL 1
REMARK VINA RESULT:      -4.2      0.000      0.000
REMARK  1 active torsions:
REMARK  status: ('A' for Active; 'I' for Inactive)
REMARK    1  A    between atoms: C_4  and  N_5 
ROOT
HETATM    1  O   UNK N   1      20.720  20.780   3.480  0.00  0.00    -0.275 OA
HETATM    2  C   UNK N   1      20.319  19.421   3.221  0.00  0.00     0.235 A 
HETATM    3  N   UNK N   1      21.025  21.315   2.271  0.00  0.00    -0.233 N 
HETATM    4  C   UNK N   1      20.425  19.227   1.727  0.00  0.00     0.196 A 
HETATM    5  C   UNK N   1      20.875  20.481   1.250  0.00  0.00     0.265 A 
HETATM    6  O   UNK N   1      21.099  20.776   0.090  0.00  0.00    -0.269 OA
HETATM    7  H   UNK N   1      21.332  22.244   2.161  0.00  0.00     0.197 HD
ENDROOT
BRANCH   4   8
HETATM    8  N   UNK N   1      20.138  18.044   0.937  0.00  0.00    -0.417 N 
HETATM    9  H   UNK N   1      20.832  17.688   0.280  0.00  0.00     0.150 HD
HETATM   10  H   UNK N   1      19.242  17.567   1.041  0.00  0.00     0.150 HD
ENDBRANCH   4   8
TORSDOF 1
ENDMDL
MODEL 2
REMARK VINA RESULT:      -4.0     12.171     13.081
REMARK  1 active torsions:
REMARK  status: ('A' for Active; 'I' for Inactive)
REMARK    1  A    between atoms: C_4  and  N_5 
ROOT
HETATM    1  O   UNK N   1      21.466  11.867  10.844  0.00  0.00    -0.275 OA
HETATM    2  C   UNK N   1      22.673  12.175  10.120  0.00  0.00     0.235 A 
HETATM    3  N   UNK N   1      21.826  11.784  12.149  0.00  0.00    -0.233 N 
HETATM    4  C   UNK N   1      23.773  12.261  11.151  0.00  0.00     0.196 A 
HETATM    5  C   UNK N   1      23.115  11.998  12.376  0.00  0.00     0.265 A 
HETATM    6  O   UNK N   1      23.628  11.967  13.481  0.00  0.00    -0.269 OA
HETATM    7  H   UNK N   1      21.184  11.583  12.868  0.00  0.00     0.197 HD
ENDROOT
BRANCH   4   8
HETATM    8  N   UNK N   1      25.183  12.544  10.960  0.00  0.00    -0.417 N 
HETATM    9  H   UNK N   1      25.870  11.793  11.027  0.00  0.00     0.150 HD
HETATM   10  H   UNK N   1      25.489  13.497  10.758  0.00  0.00     0.150 HD
ENDBRANCH   4   8
TORSDOF 1
ENDMDL
MODEL 3
REMARK VINA RESULT:      -3.9     12.066     12.919
REMARK  1 active torsions:
REMARK  status: ('A' for Active; 'I' for Inactive)
REMARK    1  A    between atoms: C_4  and  N_5 
ROOT
HETATM    1  O   UNK N   1      24.594  12.335  10.009  0.00  0.00    -0.275 OA
HETATM    2  C   UNK N   1      23.169  12.184   9.852  0.00  0.00     0.235 A 
HETATM    3  N   UNK N   1      24.830  12.268  11.343  0.00  0.00    -0.233 N 
HETATM    4  C   UNK N   1      22.607  12.022  11.244  0.00  0.00     0.196 A 
HETATM    5  C   UNK N   1      23.744  12.092  12.083  0.00  0.00     0.265 A 
HETATM    6  O   UNK N   1      23.752  12.008  13.299  0.00  0.00    -0.269 OA
HETATM    7  H   UNK N   1      25.733  12.344  11.729  0.00  0.00     0.197 HD
ENDROOT
BRANCH   4   8
HETATM    8  N   UNK N   1      21.227  11.836  11.655  0.00  0.00    -0.417 N 
HETATM    9  H   UNK N   1      20.775  10.930  11.533  0.00  0.00     0.150 HD
HETATM   10  H   UNK N   1      20.709  12.613  12.067  0.00  0.00     0.150 HD
ENDBRANCH   4   8
TORSDOF 1
ENDMDL
MODEL 4
REMARK VINA RESULT:      -3.9     15.024     15.471
REMARK  1 active torsions:
REMARK  status: ('A' for Active; 'I' for Inactive)
REMARK    1  A    between atoms: C_4  and  N_5 
ROOT
HETATM    1  O   UNK N   1      33.018  16.913   7.363  0.00  0.00    -0.275 OA
HETATM    2  C   UNK N   1      33.341  16.305   8.628  0.00  0.00     0.235 A 
HETATM    3  N   UNK N   1      33.773  18.038   7.287  0.00  0.00    -0.233 N 
HETATM    4  C   UNK N   1      34.367  17.202   9.278  0.00  0.00     0.196 A 
HETATM    5  C   UNK N   1      34.551  18.247   8.341  0.00  0.00     0.265 A 
HETATM    6  O   UNK N   1      35.300  19.200   8.458  0.00  0.00    -0.269 OA
HETATM    7  H   UNK N   1      33.746  18.648   6.515  0.00  0.00     0.197 HD
ENDROOT
BRANCH   4   8
HETATM    8  N   UNK N   1      35.028  17.053  10.561  0.00  0.00    -0.417 N 
HETATM    9  H   UNK N   1      36.046  17.012  10.610  0.00  0.00     0.150 HD
HETATM   10  H   UNK N   1      34.473  16.989  11.416  0.00  0.00     0.150 HD
ENDBRANCH   4   8
TORSDOF 1
ENDMDL
MODEL 5
REMARK VINA RESULT:      -3.8      1.972      2.151
REMARK  1 active torsions:
REMARK  status: ('A' for Active; 'I' for Inactive)
REMARK    1  A    between atoms: C_4  and  N_5 
ROOT
HETATM    1  O   UNK N   1      20.686  18.607   3.481  0.00  0.00    -0.275 OA
HETATM    2  C   UNK N   1      20.090  18.882   2.198  0.00  0.00     0.235 A 
HETATM    3  N   UNK N   1      21.595  19.594   3.687  0.00  0.00    -0.233 N 
HETATM    4  C   UNK N   1      20.753  20.137   1.684  0.00  0.00     0.196 A 
HETATM    5  C   UNK N   1      21.671  20.482   2.705  0.00  0.00     0.265 A 
HETATM    6  O   UNK N   1      22.426  21.438   2.706  0.00  0.00    -0.269 OA
HETATM    7  H   UNK N   1      22.150  19.647   4.498  0.00  0.00     0.197 HD
ENDROOT
BRANCH   4   8
HETATM    8  N   UNK N   1      20.523  20.847   0.440  0.00  0.00    -0.417 N 
HETATM    9  H   UNK N   1      20.523  20.340  -0.445  0.00  0.00     0.150 HD
HETATM   10  H   UNK N   1      20.361  21.855   0.450  0.00  0.00     0.150 HD
ENDBRANCH   4   8
TORSDOF 1
ENDMDL
MODEL 6
REMARK VINA RESULT:      -3.7      1.544      2.132
REMARK  1 active torsions:
REMARK  status: ('A' for Active; 'I' for Inactive)
REMARK    1  A    between atoms: C_4  and  N_5 
ROOT
HETATM    1  O   UNK N   1      19.648  19.361   2.999  0.00  0.00    -0.275 OA
HETATM    2  C   UNK N   1      20.895  19.586   3.686  0.00  0.00     0.235 A 
HETATM    3  N   UNK N   1      19.839  19.800   1.730  0.00  0.00    -0.233 N 
HETATM    4  C   UNK N   1      21.829  20.203   2.673  0.00  0.00     0.196 A 
HETATM    5  C   UNK N   1      21.051  20.284   1.494  0.00  0.00     0.265 A 
HETATM    6  O   UNK N   1      21.413  20.724   0.417  0.00  0.00    -0.269 OA
HETATM    7  H   UNK N   1      19.137  19.762   1.041  0.00  0.00     0.197 HD
ENDROOT
BRANCH   4   8
HETATM    8  N   UNK N   1      23.208  20.625   2.842  0.00  0.00    -0.417 N 
HETATM    9  H   UNK N   1      23.418  21.581   3.128  0.00  0.00     0.150 HD
HETATM   10  H   UNK N   1      23.967  19.964   2.673  0.00  0.00     0.150 HD
ENDBRANCH   4   8
TORSDOF 1
ENDMDL
MODEL 7
REMARK VINA RESULT:      -3.6      1.314      2.469
REMARK  1 active torsions:
REMARK  status: ('A' for Active; 'I' for Inactive)
REMARK    1  A    between atoms: C_4  and  N_5 
ROOT
HETATM    1  O   UNK N   1      21.897  20.828   1.452  0.00  0.00    -0.275 OA
HETATM    2  C   UNK N   1      20.702  20.140   1.031  0.00  0.00     0.235 A 
HETATM    3  N   UNK N   1      21.953  20.684   2.800  0.00  0.00    -0.233 N 
HETATM    4  C   UNK N   1      20.073  19.581   2.285  0.00  0.00     0.196 A 
HETATM    5  C   UNK N   1      20.949  19.989   3.319  0.00  0.00     0.265 A 
HETATM    6  O   UNK N   1      20.825  19.754   4.507  0.00  0.00    -0.269 OA
HETATM    7  H   UNK N   1      22.678  21.063   3.347  0.00  0.00     0.197 HD
ENDROOT
BRANCH   4   8
HETATM    8  N   UNK N   1      18.856  18.804   2.427  0.00  0.00    -0.417 N 
HETATM    9  H   UNK N   1      17.974  19.270   2.638  0.00  0.00     0.150 HD
HETATM   10  H   UNK N   1      18.883  17.789   2.315  0.00  0.00     0.150 HD
ENDBRANCH   4   8
TORSDOF 1
ENDMDL
MODEL 8
REMARK VINA RESULT:      -3.5     17.601     18.051
REMARK  1 active torsions:
REMARK  status: ('A' for Active; 'I' for Inactive)
REMARK    1  A    between atoms: C_4  and  N_5 
ROOT
HETATM    1  O   UNK N   1      36.564  14.255  11.893  0.00  0.00    -0.275 OA
HETATM    2  C   UNK N   1      35.185  13.888  11.690  0.00  0.00     0.235 A 
HETATM    3  N   UNK N   1      36.682  15.525  11.429  0.00  0.00    -0.233 N 
HETATM    4  C   UNK N   1      34.518  15.086  11.057  0.00  0.00     0.196 A 
HETATM    5  C   UNK N   1      35.559  16.039  10.947  0.00  0.00     0.265 A 
HETATM    6  O   UNK N   1      35.465  17.163  10.487  0.00  0.00    -0.269 OA
HETATM    7  H   UNK N   1      37.531  16.023  11.449  0.00  0.00     0.197 HD
ENDROOT
BRANCH   4   8
HETATM    8  N   UNK N   1      33.136  15.250  10.646  0.00  0.00    -0.417 N 
HETATM    9  H   UNK N   1      32.546  14.431  10.499  0.00  0.00     0.150 HD
HETATM   10  H   UNK N   1      32.754  16.186  10.504  0.00  0.00     0.150 HD
ENDBRANCH   4   8
TORSDOF 1
ENDMDL
MODEL 9
REMARK VINA RESULT:      -3.5     15.421     15.864
REMARK  1 active torsions:
REMARK  status: ('A' for Active; 'I' for Inactive)
REMARK    1  A    between atoms: C_4  and  N_5 
ROOT
HETATM    1  O   UNK N   1      34.408  17.971   6.819  0.00  0.00    -0.275 OA
HETATM    2  C   UNK N   1      34.554  18.414   8.182  0.00  0.00     0.235 A 
HETATM    3  N   UNK N   1      34.422  16.615   6.865  0.00  0.00    -0.233 N 
HETATM    4  C   UNK N   1      34.654  17.164   9.024  0.00  0.00     0.196 A 
HETATM    5  C   UNK N   1      34.558  16.110   8.084  0.00  0.00     0.265 A 
HETATM    6  O   UNK N   1      34.593  14.917   8.329  0.00  0.00    -0.269 OA
HETATM    7  H   UNK N   1      34.338  16.053   6.061  0.00  0.00     0.197 HD
ENDROOT
BRANCH   4   8
HETATM    8  N   UNK N   1      34.812  17.042  10.461  0.00  0.00    -0.417 N 
HETATM    9  H   UNK N   1      34.003  17.143  11.074  0.00  0.00     0.150 HD
HETATM   10  H   UNK N   1      35.733  16.854  10.859  0.00  0.00     0.150 HD
ENDBRANCH   4   8
TORSDOF 1
ENDMDL
