MODEL 1
REMARK VINA RESULT:      -6.3      0.000      0.000
REMARK  12 active torsions:
REMARK  status: ('A' for Active; 'I' for Inactive)
REMARK    1  A    between atoms: N_1  and  C_2 
REMARK    2  A    between atoms: C_2  and  C_3 
REMARK    3  A    between atoms: C_6  and  C_5 
REMARK    4  A    between atoms: C_9  and  C_15 
REMARK    5  A    between atoms: C_11  and  C_26 
REMARK    6  A    between atoms: C_11  and  C_12 
REMARK    7  A    between atoms: C_12  and  O_14 
REMARK    8  A    between atoms: C_15  and  O_17 
REMARK    9  A    between atoms: C_21  and  C_22 
REMARK   10  A    between atoms: C_22  and  C_23 
REMARK   11  A    between atoms: C_23  and  C_24 
REMARK   12  A    between atoms: C_26  and  C_27 
ROOT
HETATM    1  N   UNK N   1      25.884  24.723  -6.971  0.00  0.00    -0.331 N 
HETATM    2  C   UNK N   1      25.696  26.065  -6.922  0.00  0.00     0.052 A 
HETATM    3  C   UNK N   1      25.801  26.578  -8.202  0.00  0.00     0.119 A 
HETATM    4  N   UNK N   1      26.065  25.557  -9.042  0.00  0.00    -0.353 N 
ATOM      5  HN  UNK N   1      26.205  25.610 -10.052  1.00  0.00     0.166 HD
HETATM    6  C   UNK N   1      26.109  24.450  -8.271  0.00  0.00     0.084 A 
ENDROOT
BRANCH   2   7
HETATM    7  C   UNK N   1      25.446  26.858  -5.697  0.00  0.00     0.045 C 
HETATM    8  C   UNK N   1      26.300  27.727  -5.127  0.00  0.00     0.022 C 
BRANCH   8   9
HETATM    9  C   UNK N   1      27.610  28.069  -5.788  0.00  0.00     0.091 C 
BRANCH   9  10
HETATM   10  C   UNK N   1      28.827  27.547  -5.088  0.00  0.00    -0.013 A 
HETATM   11  S   UNK N   1      29.438  27.994  -3.614  0.00  0.00    -0.106 SA
HETATM   12  C   UNK N   1      30.771  27.009  -3.546  0.00  0.00     0.050 A 
HETATM   13  C   UNK N   1      30.763  26.268  -4.737  0.00  0.00     0.008 A 
HETATM   14  C   UNK N   1      29.672  26.569  -5.602  0.00  0.00     0.015 A 
ENDBRANCH   9  10
ENDBRANCH   8   9
BRANCH   8  15
HETATM   15  C   UNK N   1      25.876  28.457  -3.904  0.00  0.00     0.172 C 
HETATM   16  O   UNK N   1      25.455  27.846  -2.933  0.00  0.00    -0.646 OA
BRANCH  15  17
HETATM   17  O   UNK N   1      25.943  29.800  -3.860  0.00  0.00    -0.773 OA
HETATM   18  H   UNK N   1      26.530  30.334  -3.360  0.00  0.00     0.167 HD
ENDBRANCH  15  17
ENDBRANCH   8  15
ENDBRANCH   2   7
BRANCH   1  19
HETATM   19  C   UNK N   1      25.860  23.697  -5.908  0.00  0.00     0.169 C 
BRANCH  19  20
HETATM   20  C   UNK N   1      27.116  23.602  -5.101  0.00  0.00    -0.040 A 
HETATM   21  C   UNK N   1      27.109  24.039  -3.775  0.00  0.00     0.010 A 
HETATM   22  C   UNK N   1      28.243  23.880  -2.978  0.00  0.00     0.019 A 
HETATM   23  C   UNK N   1      29.395  23.276  -3.499  0.00  0.00     0.037 A 
HETATM   24  C   UNK N   1      29.413  22.868  -4.842  0.00  0.00     0.019 A 
HETATM   25  C   UNK N   1      28.280  23.038  -5.645  0.00  0.00     0.010 A 
BRANCH  23  26
HETATM   26  C   UNK N   1      30.562  23.045  -2.626  0.00  0.00     0.176 C 
HETATM   27  O   UNK N   1      30.442  23.082  -1.411  0.00  0.00    -0.646 OA
BRANCH  26  28
HETATM   28  O   UNK N   1      31.777  22.820  -3.165  0.00  0.00    -0.773 OA
HETATM   29  H   UNK N   1      32.349  22.141  -3.466  0.00  0.00     0.167 HD
ENDBRANCH  26  28
ENDBRANCH  23  26
ENDBRANCH  19  20
ENDBRANCH   1  19
BRANCH   6  30
HETATM   30  C   UNK N   1      26.381  23.085  -8.816  0.00  0.00     0.076 C 
BRANCH  30  31
HETATM   31  C   UNK N   1      27.806  23.003  -9.334  0.00  0.00     0.007 C 
BRANCH  31  32
HETATM   32  C   UNK N   1      28.397  21.634  -9.050  0.00  0.00    -0.004 C 
HETATM   33  C   UNK N   1      27.383  20.758  -8.337  0.00  0.00     0.005 C 
ENDBRANCH  31  32
ENDBRANCH  30  31
ENDBRANCH   6  30
TORSDOF 12
ENDMDL
MODEL 2
REMARK VINA RESULT:      -6.2      2.018      3.010
REMARK  12 active torsions:
REMARK  status: ('A' for Active; 'I' for Inactive)
REMARK    1  A    between atoms: N_1  and  C_2 
REMARK    2  A    between atoms: C_2  and  C_3 
REMARK    3  A    between atoms: C_6  and  C_5 
REMARK    4  A    between atoms: C_9  and  C_15 
REMARK    5  A    between atoms: C_11  and  C_26 
REMARK    6  A    between atoms: C_11  and  C_12 
REMARK    7  A    between atoms: C_12  and  O_14 
REMARK    8  A    between atoms: C_15  and  O_17 
REMARK    9  A    between atoms: C_21  and  C_22 
REMARK   10  A    between atoms: C_22  and  C_23 
REMARK   11  A    between atoms: C_23  and  C_24 
REMARK   12  A    between atoms: C_26  and  C_27 
ROOT
HETATM    1  N   UNK N   1      27.806  24.057  -6.043  0.00  0.00    -0.331 N 
HETATM    2  C   UNK N   1      26.644  24.245  -5.368  0.00  0.00     0.052 A 
HETATM    3  C   UNK N   1      25.699  23.358  -5.851  0.00  0.00     0.119 A 
HETATM    4  N   UNK N   1      26.270  22.629  -6.831  0.00  0.00    -0.353 N 
ATOM      5  HN  UNK N   1      25.832  21.895  -7.388  1.00  0.00     0.166 HD
HETATM    6  C   UNK N   1      27.542  23.072  -6.924  0.00  0.00     0.084 A 
ENDROOT
BRANCH   2   7
HETATM    7  C   UNK N   1      26.414  25.252  -4.308  0.00  0.00     0.045 C 
HETATM    8  C   UNK N   1      26.085  26.542  -4.497  0.00  0.00     0.022 C 
BRANCH   8   9
HETATM    9  C   UNK N   1      25.795  27.071  -5.879  0.00  0.00     0.091 C 
BRANCH   9  10
HETATM   10  C   UNK N   1      26.957  27.725  -6.561  0.00  0.00    -0.013 A 
HETATM   11  S   UNK N   1      27.839  29.036  -6.063  0.00  0.00    -0.106 SA
HETATM   12  C   UNK N   1      28.906  29.162  -7.326  0.00  0.00     0.050 A 
HETATM   13  C   UNK N   1      28.580  28.122  -8.210  0.00  0.00     0.008 A 
HETATM   14  C   UNK N   1      27.487  27.316  -7.781  0.00  0.00     0.015 A 
ENDBRANCH   9  10
ENDBRANCH   8   9
BRANCH   8  15
HETATM   15  C   UNK N   1      25.871  27.413  -3.313  0.00  0.00     0.172 C 
HETATM   16  O   UNK N   1      26.099  26.994  -2.188  0.00  0.00    -0.646 OA
BRANCH  15  17
HETATM   17  O   UNK N   1      25.412  28.669  -3.470  0.00  0.00    -0.773 OA
HETATM   18  H   UNK N   1      25.261  29.316  -2.809  0.00  0.00     0.167 HD
ENDBRANCH  15  17
ENDBRANCH   8  15
ENDBRANCH   2   7
BRANCH   1  19
HETATM   19  C   UNK N   1      29.122  24.716  -5.918  0.00  0.00     0.169 C 
BRANCH  19  20
HETATM   20  C   UNK N   1      30.148  23.928  -5.169  0.00  0.00    -0.040 A 
HETATM   21  C   UNK N   1      29.744  23.115  -4.109  0.00  0.00     0.010 A 
HETATM   22  C   UNK N   1      30.671  22.304  -3.453  0.00  0.00     0.019 A 
HETATM   23  C   UNK N   1      32.014  22.296  -3.855  0.00  0.00     0.037 A 
HETATM   24  C   UNK N   1      32.426  23.140  -4.898  0.00  0.00     0.019 A 
HETATM   25  C   UNK N   1      31.499  23.961  -5.548  0.00  0.00     0.010 A 
BRANCH  23  26
HETATM   26  C   UNK N   1      32.970  21.380  -3.204  0.00  0.00     0.176 C 
HETATM   27  O   UNK N   1      33.858  20.851  -3.854  0.00  0.00    -0.646 OA
BRANCH  26  28
HETATM   28  O   UNK N   1      32.850  21.098  -1.891  0.00  0.00    -0.773 OA
HETATM   29  H   UNK N   1      33.325  21.074  -1.085  0.00  0.00     0.167 HD
ENDBRANCH  26  28
ENDBRANCH  23  26
ENDBRANCH  19  20
ENDBRANCH   1  19
BRANCH   6  30
HETATM   30  C   UNK N   1      28.529  22.524  -7.903  0.00  0.00     0.076 C 
BRANCH  30  31
HETATM   31  C   UNK N   1      28.938  21.118  -7.502  0.00  0.00     0.007 C 
BRANCH  31  32
HETATM   32  C   UNK N   1      30.451  20.985  -7.500  0.00  0.00    -0.004 C 
HETATM   33  C   UNK N   1      30.890  19.956  -6.474  0.00  0.00     0.005 C 
ENDBRANCH  31  32
ENDBRANCH  30  31
ENDBRANCH   6  30
TORSDOF 12
ENDMDL
MODEL 3
REMARK VINA RESULT:      -6.1      3.194      5.660
REMARK  12 active torsions:
REMARK  status: ('A' for Active; 'I' for Inactive)
REMARK    1  A    between atoms: N_1  and  C_2 
REMARK    2  A    between atoms: C_2  and  C_3 
REMARK    3  A    between atoms: C_6  and  C_5 
REMARK    4  A    between atoms: C_9  and  C_15 
REMARK    5  A    between atoms: C_11  and  C_26 
REMARK    6  A    between atoms: C_11  and  C_12 
REMARK    7  A    between atoms: C_12  and  O_14 
REMARK    8  A    between atoms: C_15  and  O_17 
REMARK    9  A    between atoms: C_21  and  C_22 
REMARK   10  A    between atoms: C_22  and  C_23 
REMARK   11  A    between atoms: C_23  and  C_24 
REMARK   12  A    between atoms: C_26  and  C_27 
ROOT
HETATM    1  N   UNK N   1      26.011  25.349  -6.807  0.00  0.00    -0.331 N 
HETATM    2  C   UNK N   1      25.946  24.801  -8.045  0.00  0.00     0.052 A 
HETATM    3  C   UNK N   1      26.364  25.738  -8.972  0.00  0.00     0.119 A 
HETATM    4  N   UNK N   1      26.678  26.870  -8.310  0.00  0.00    -0.353 N 
ATOM      5  HN  UNK N   1      27.014  27.746  -8.712  1.00  0.00     0.166 HD
HETATM    6  C   UNK N   1      26.456  26.605  -7.005  0.00  0.00     0.084 A 
ENDROOT
BRANCH   2   7
HETATM    7  C   UNK N   1      25.477  23.432  -8.361  0.00  0.00     0.045 C 
HETATM    8  C   UNK N   1      26.232  22.422  -8.828  0.00  0.00     0.022 C 
BRANCH   8   9
HETATM    9  C   UNK N   1      27.725  22.576  -8.970  0.00  0.00     0.091 C 
BRANCH   9  10
HETATM   10  C   UNK N   1      28.516  21.330  -8.712  0.00  0.00    -0.013 A 
HETATM   11  S   UNK N   1      29.168  20.279  -9.814  0.00  0.00    -0.106 SA
HETATM   12  C   UNK N   1      29.855  19.174  -8.784  0.00  0.00     0.050 A 
HETATM   13  C   UNK N   1      29.577  19.633  -7.488  0.00  0.00     0.008 A 
HETATM   14  C   UNK N   1      28.825  20.842  -7.447  0.00  0.00     0.015 A 
ENDBRANCH   9  10
ENDBRANCH   8   9
BRANCH   8  15
HETATM   15  C   UNK N   1      25.598  21.101  -9.073  0.00  0.00     0.172 C 
HETATM   16  O   UNK N   1      25.388  20.334  -8.145  0.00  0.00    -0.646 OA
BRANCH  15  17
HETATM   17  O   UNK N   1      25.260  20.733 -10.322  0.00  0.00    -0.773 OA
HETATM   18  H   UNK N   1      25.560  21.094 -11.133  0.00  0.00     0.167 HD
ENDBRANCH  15  17
ENDBRANCH   8  15
ENDBRANCH   2   7
BRANCH   1  19
HETATM   19  C   UNK N   1      25.701  24.788  -5.476  0.00  0.00     0.169 C 
BRANCH  19  20
HETATM   20  C   UNK N   1      26.883  24.261  -4.727  0.00  0.00    -0.040 A 
HETATM   21  C   UNK N   1      28.025  23.882  -5.435  0.00  0.00     0.010 A 
HETATM   22  C   UNK N   1      29.169  23.470  -4.751  0.00  0.00     0.019 A 
HETATM   23  C   UNK N   1      29.184  23.437  -3.350  0.00  0.00     0.037 A 
HETATM   24  C   UNK N   1      28.024  23.785  -2.640  0.00  0.00     0.019 A 
HETATM   25  C   UNK N   1      26.873  24.187  -3.326  0.00  0.00     0.010 A 
BRANCH  23  26
HETATM   26  C   UNK N   1      30.423  23.072  -2.637  0.00  0.00     0.176 C 
HETATM   27  O   UNK N   1      30.430  22.981  -1.419  0.00  0.00    -0.646 OA
BRANCH  26  28
HETATM   28  O   UNK N   1      31.564  22.867  -3.324  0.00  0.00    -0.773 OA
HETATM   29  H   UNK N   1      32.013  22.245  -3.862  0.00  0.00     0.167 HD
ENDBRANCH  26  28
ENDBRANCH  23  26
ENDBRANCH  19  20
ENDBRANCH   1  19
BRANCH   6  30
HETATM   30  C   UNK N   1      26.680  27.607  -5.919  0.00  0.00     0.076 C 
BRANCH  30  31
HETATM   31  C   UNK N   1      28.153  27.661  -5.552  0.00  0.00     0.007 C 
BRANCH  31  32
HETATM   32  C   UNK N   1      28.327  27.595  -4.045  0.00  0.00    -0.004 C 
HETATM   33  C   UNK N   1      27.011  27.883  -3.347  0.00  0.00     0.005 C 
ENDBRANCH  31  32
ENDBRANCH  30  31
ENDBRANCH   6  30
TORSDOF 12
ENDMDL
MODEL 4
REMARK VINA RESULT:      -6.1     12.835     15.478
REMARK  12 active torsions:
REMARK  status: ('A' for Active; 'I' for Inactive)
REMARK    1  A    between atoms: N_1  and  C_2 
REMARK    2  A    between atoms: C_2  and  C_3 
REMARK    3  A    between atoms: C_6  and  C_5 
REMARK    4  A    between atoms: C_9  and  C_15 
REMARK    5  A    between atoms: C_11  and  C_26 
REMARK    6  A    between atoms: C_11  and  C_12 
REMARK    7  A    between atoms: C_12  and  O_14 
REMARK    8  A    between atoms: C_15  and  O_17 
REMARK    9  A    between atoms: C_21  and  C_22 
REMARK   10  A    between atoms: C_22  and  C_23 
REMARK   11  A    between atoms: C_23  and  C_24 
REMARK   12  A    between atoms: C_26  and  C_27 
ROOT
HETATM    1  N   UNK N   1      31.178  16.296   5.121  0.00  0.00    -0.331 N 
HETATM    2  C   UNK N   1      32.406  16.867   5.057  0.00  0.00     0.052 A 
HETATM    3  C   UNK N   1      32.920  16.680   3.787  0.00  0.00     0.119 A 
HETATM    4  N   UNK N   1      32.017  15.984   3.067  0.00  0.00    -0.353 N 
ATOM      5  HN  UNK N   1      32.102  15.684   2.096  1.00  0.00     0.166 HD
HETATM    6  C   UNK N   1      30.975  15.767   3.898  0.00  0.00     0.084 A 
ENDROOT
BRANCH   2   7
HETATM    7  C   UNK N   1      33.098  17.555   6.171  0.00  0.00     0.045 C 
HETATM    8  C   UNK N   1      33.657  16.965   7.242  0.00  0.00     0.022 C 
BRANCH   8   9
HETATM    9  C   UNK N   1      33.729  15.463   7.347  0.00  0.00     0.091 C 
BRANCH   9  10
HETATM   10  C   UNK N   1      35.074  14.873   7.056  0.00  0.00    -0.013 A 
HETATM   11  S   UNK N   1      36.107  14.102   8.097  0.00  0.00    -0.106 SA
HETATM   12  C   UNK N   1      37.360  13.766   7.063  0.00  0.00     0.050 A 
HETATM   13  C   UNK N   1      36.973  14.274   5.813  0.00  0.00     0.008 A 
HETATM   14  C   UNK N   1      35.691  14.894   5.809  0.00  0.00     0.015 A 
ENDBRANCH   9  10
ENDBRANCH   8   9
BRANCH   8  15
HETATM   15  C   UNK N   1      34.332  17.810   8.260  0.00  0.00     0.172 C 
HETATM   16  O   UNK N   1      34.970  18.796   7.922  0.00  0.00    -0.646 OA
BRANCH  15  17
HETATM   17  O   UNK N   1      34.255  17.490   9.565  0.00  0.00    -0.773 OA
HETATM   18  H   UNK N   1      34.071  16.653   9.946  0.00  0.00     0.167 HD
ENDBRANCH  15  17
ENDBRANCH   8  15
ENDBRANCH   2   7
BRANCH   1  19
HETATM   19  C   UNK N   1      30.196  16.219   6.222  0.00  0.00     0.169 C 
BRANCH  19  20
HETATM   20  C   UNK N   1      29.393  17.462   6.434  0.00  0.00    -0.040 A 
HETATM   21  C   UNK N   1      28.915  18.162   5.324  0.00  0.00     0.010 A 
HETATM   22  C   UNK N   1      28.091  19.274   5.498  0.00  0.00     0.019 A 
HETATM   23  C   UNK N   1      27.733  19.696   6.787  0.00  0.00     0.037 A 
HETATM   24  C   UNK N   1      28.243  19.013   7.902  0.00  0.00     0.019 A 
HETATM   25  C   UNK N   1      29.078  17.904   7.728  0.00  0.00     0.010 A 
BRANCH  23  26
HETATM   26  C   UNK N   1      26.802  20.827   6.957  0.00  0.00     0.176 C 
HETATM   27  O   UNK N   1      26.783  21.740   6.145  0.00  0.00    -0.646 OA
BRANCH  26  28
HETATM   28  O   UNK N   1      25.984  20.876   8.028  0.00  0.00    -0.773 OA
HETATM   29  H   UNK N   1      25.974  20.841   8.964  0.00  0.00     0.167 HD
ENDBRANCH  26  28
ENDBRANCH  23  26
ENDBRANCH  19  20
ENDBRANCH   1  19
BRANCH   6  30
HETATM   30  C   UNK N   1      29.747  15.019   3.491  0.00  0.00     0.076 C 
BRANCH  30  31
HETATM   31  C   UNK N   1      28.891  15.876   2.575  0.00  0.00     0.007 C 
BRANCH  31  32
HETATM   32  C   UNK N   1      27.429  15.786   2.976  0.00  0.00    -0.004 C 
HETATM   33  C   UNK N   1      26.650  14.979   1.954  0.00  0.00     0.005 C 
ENDBRANCH  31  32
ENDBRANCH  30  31
ENDBRANCH   6  30
TORSDOF 12
ENDMDL
MODEL 5
REMARK VINA RESULT:      -6.0     12.091     14.509
REMARK  12 active torsions:
REMARK  status: ('A' for Active; 'I' for Inactive)
REMARK    1  A    between atoms: N_1  and  C_2 
REMARK    2  A    between atoms: C_2  and  C_3 
REMARK    3  A    between atoms: C_6  and  C_5 
REMARK    4  A    between atoms: C_9  and  C_15 
REMARK    5  A    between atoms: C_11  and  C_26 
REMARK    6  A    between atoms: C_11  and  C_12 
REMARK    7  A    between atoms: C_12  and  O_14 
REMARK    8  A    between atoms: C_15  and  O_17 
REMARK    9  A    between atoms: C_21  and  C_22 
REMARK   10  A    between atoms: C_22  and  C_23 
REMARK   11  A    between atoms: C_23  and  C_24 
REMARK   12  A    between atoms: C_26  and  C_27 
ROOT
HETATM    1  N   UNK N   1      29.134  16.549   5.287  0.00  0.00    -0.331 N 
HETATM    2  C   UNK N   1      28.019  16.867   5.988  0.00  0.00     0.052 A 
HETATM    3  C   UNK N   1      27.213  15.747   6.079  0.00  0.00     0.119 A 
HETATM    4  N   UNK N   1      27.823  14.738   5.425  0.00  0.00    -0.353 N 
ATOM      5  HN  UNK N   1      27.480  13.784   5.307  1.00  0.00     0.166 HD
HETATM    6  C   UNK N   1      28.981  15.251   4.958  0.00  0.00     0.084 A 
ENDROOT
BRANCH   2   7
HETATM    7  C   UNK N   1      27.698  18.202   6.544  0.00  0.00     0.045 C 
HETATM    8  C   UNK N   1      27.204  19.249   5.859  0.00  0.00     0.022 C 
BRANCH   8   9
HETATM    9  C   UNK N   1      26.806  19.106   4.412  0.00  0.00     0.091 C 
BRANCH   9  10
HETATM   10  C   UNK N   1      25.330  19.124   4.158  0.00  0.00    -0.013 A 
HETATM   11  S   UNK N   1      24.460  20.175   3.217  0.00  0.00    -0.106 SA
HETATM   12  C   UNK N   1      22.932  19.572   3.451  0.00  0.00     0.050 A 
HETATM   13  C   UNK N   1      23.080  18.475   4.313  0.00  0.00     0.008 A 
HETATM   14  C   UNK N   1      24.425  18.223   4.709  0.00  0.00     0.015 A 
ENDBRANCH   9  10
ENDBRANCH   8   9
BRANCH   8  15
HETATM   15  C   UNK N   1      26.921  20.515   6.582  0.00  0.00     0.172 C 
HETATM   16  O   UNK N   1      27.118  21.593   6.042  0.00  0.00    -0.646 OA
BRANCH  15  17
HETATM   17  O   UNK N   1      26.455  20.484   7.844  0.00  0.00    -0.773 OA
HETATM   18  H   UNK N   1      25.580  20.639   8.142  0.00  0.00     0.167 HD
ENDBRANCH  15  17
ENDBRANCH   8  15
ENDBRANCH   2   7
BRANCH   1  19
HETATM   19  C   UNK N   1      30.315  17.356   4.917  0.00  0.00     0.169 C 
BRANCH  19  20
HETATM   20  C   UNK N   1      31.413  17.362   5.932  0.00  0.00    -0.040 A 
HETATM   21  C   UNK N   1      32.737  17.462   5.502  0.00  0.00     0.010 A 
HETATM   22  C   UNK N   1      33.772  17.557   6.435  0.00  0.00     0.019 A 
HETATM   23  C   UNK N   1      33.489  17.558   7.808  0.00  0.00     0.037 A 
HETATM   24  C   UNK N   1      32.161  17.422   8.238  0.00  0.00     0.019 A 
HETATM   25  C   UNK N   1      31.124  17.316   7.304  0.00  0.00     0.010 A 
BRANCH  23  26
HETATM   26  C   UNK N   1      34.583  17.734   8.782  0.00  0.00     0.176 C 
HETATM   27  O   UNK N   1      34.838  16.855   9.590  0.00  0.00    -0.646 OA
BRANCH  26  28
HETATM   28  O   UNK N   1      35.289  18.882   8.806  0.00  0.00    -0.773 OA
HETATM   29  H   UNK N   1      35.241  19.786   9.047  0.00  0.00     0.167 HD
ENDBRANCH  26  28
ENDBRANCH  23  26
ENDBRANCH  19  20
ENDBRANCH   1  19
BRANCH   6  30
HETATM   30  C   UNK N   1      29.966  14.456   4.164  0.00  0.00     0.076 C 
BRANCH  30  31
HETATM   31  C   UNK N   1      30.859  13.652   5.093  0.00  0.00     0.007 C 
BRANCH  31  32
HETATM   32  C   UNK N   1      32.321  13.865   4.741  0.00  0.00    -0.004 C 
HETATM   33  C   UNK N   1      33.179  13.811   5.992  0.00  0.00     0.005 C 
ENDBRANCH  31  32
ENDBRANCH  30  31
ENDBRANCH   6  30
TORSDOF 12
ENDMDL
MODEL 6
REMARK VINA RESULT:      -5.9     15.163     17.380
REMARK  12 active torsions:
REMARK  status: ('A' for Active; 'I' for Inactive)
REMARK    1  A    between atoms: N_1  and  C_2 
REMARK    2  A    between atoms: C_2  and  C_3 
REMARK    3  A    between atoms: C_6  and  C_5 
REMARK    4  A    between atoms: C_9  and  C_15 
REMARK    5  A    between atoms: C_11  and  C_26 
REMARK    6  A    between atoms: C_11  and  C_12 
REMARK    7  A    between atoms: C_12  and  O_14 
REMARK    8  A    between atoms: C_15  and  O_17 
REMARK    9  A    between atoms: C_21  and  C_22 
REMARK   10  A    between atoms: C_22  and  C_23 
REMARK   11  A    between atoms: C_23  and  C_24 
REMARK   12  A    between atoms: C_26  and  C_27 
ROOT
HETATM    1  N   UNK N   1      22.779  13.780   5.246  0.00  0.00    -0.331 N 
HETATM    2  C   UNK N   1      22.998  14.498   6.376  0.00  0.00     0.052 A 
HETATM    3  C   UNK N   1      24.361  14.637   6.560  0.00  0.00     0.119 A 
HETATM    4  N   UNK N   1      24.988  13.998   5.552  0.00  0.00    -0.353 N 
ATOM      5  HN  UNK N   1      25.995  13.914   5.407  1.00  0.00     0.166 HD
HETATM    6  C   UNK N   1      24.008  13.491   4.774  0.00  0.00     0.084 A 
ENDROOT
BRANCH   2   7
HETATM    7  C   UNK N   1      21.951  15.023   7.282  0.00  0.00     0.045 C 
HETATM    8  C   UNK N   1      21.216  14.303   8.147  0.00  0.00     0.022 C 
BRANCH   8   9
HETATM    9  C   UNK N   1      21.492  12.836   8.360  0.00  0.00     0.091 C 
BRANCH   9  10
HETATM   10  C   UNK N   1      22.398  12.524   9.511  0.00  0.00    -0.013 A 
HETATM   11  S   UNK N   1      21.991  12.217  11.088  0.00  0.00    -0.106 SA
HETATM   12  C   UNK N   1      23.501  11.988  11.735  0.00  0.00     0.050 A 
HETATM   13  C   UNK N   1      24.403  12.152  10.673  0.00  0.00     0.008 A 
HETATM   14  C   UNK N   1      23.784  12.452   9.426  0.00  0.00     0.015 A 
ENDBRANCH   9  10
ENDBRANCH   8   9
BRANCH   8  15
HETATM   15  C   UNK N   1      20.218  14.998   8.999  0.00  0.00     0.172 C 
HETATM   16  O   UNK N   1      20.194  16.219   9.054  0.00  0.00    -0.646 OA
BRANCH  15  17
HETATM   17  O   UNK N   1      19.337  14.288   9.728  0.00  0.00    -0.773 OA
HETATM   18  H   UNK N   1      18.745  13.624   9.433  0.00  0.00     0.167 HD
ENDBRANCH  15  17
ENDBRANCH   8  15
ENDBRANCH   2   7
BRANCH   1  19
HETATM   19  C   UNK N   1      21.526  13.362   4.586  0.00  0.00     0.169 C 
BRANCH  19  20
HETATM   20  C   UNK N   1      21.118  14.208   3.423  0.00  0.00    -0.040 A 
HETATM   21  C   UNK N   1      20.409  13.625   2.371  0.00  0.00     0.010 A 
HETATM   22  C   UNK N   1      19.943  14.413   1.317  0.00  0.00     0.019 A 
HETATM   23  C   UNK N   1      20.178  15.795   1.308  0.00  0.00     0.037 A 
HETATM   24  C   UNK N   1      20.921  16.374   2.348  0.00  0.00     0.019 A 
HETATM   25  C   UNK N   1      21.398  15.583   3.399  0.00  0.00     0.010 A 
BRANCH  23  26
HETATM   26  C   UNK N   1      19.616  16.628   0.228  0.00  0.00     0.176 C 
HETATM   27  O   UNK N   1      20.328  17.413  -0.380  0.00  0.00    -0.646 OA
BRANCH  26  28
HETATM   28  O   UNK N   1      18.305  16.551  -0.074  0.00  0.00    -0.773 OA
HETATM   29  H   UNK N   1      17.684  16.082  -0.596  0.00  0.00     0.167 HD
ENDBRANCH  26  28
ENDBRANCH  23  26
ENDBRANCH  19  20
ENDBRANCH   1  19
BRANCH   6  30
HETATM   30  C   UNK N   1      24.275  12.698   3.536  0.00  0.00     0.076 C 
BRANCH  30  31
HETATM   31  C   UNK N   1      24.841  13.596   2.450  0.00  0.00     0.007 C 
BRANCH  31  32
HETATM   32  C   UNK N   1      24.571  13.006   1.078  0.00  0.00    -0.004 C 
HETATM   33  C   UNK N   1      23.463  13.774   0.380  0.00  0.00     0.005 C 
ENDBRANCH  31  32
ENDBRANCH  30  31
ENDBRANCH   6  30
TORSDOF 12
ENDMDL
MODEL 7
REMARK VINA RESULT:      -5.8      3.506      6.319
REMARK  12 active torsions:
REMARK  status: ('A' for Active; 'I' for Inactive)
REMARK    1  A    between atoms: N_1  and  C_2 
REMARK    2  A    between atoms: C_2  and  C_3 
REMARK    3  A    between atoms: C_6  and  C_5 
REMARK    4  A    between atoms: C_9  and  C_15 
REMARK    5  A    between atoms: C_11  and  C_26 
REMARK    6  A    between atoms: C_11  and  C_12 
REMARK    7  A    between atoms: C_12  and  O_14 
REMARK    8  A    between atoms: C_15  and  O_17 
REMARK    9  A    between atoms: C_21  and  C_22 
REMARK   10  A    between atoms: C_22  and  C_23 
REMARK   11  A    between atoms: C_23  and  C_24 
REMARK   12  A    between atoms: C_26  and  C_27 
ROOT
HETATM    1  N   UNK N   1      28.686  25.308  -3.901  0.00  0.00    -0.331 N 
HETATM    2  C   UNK N   1      29.968  25.049  -3.541  0.00  0.00     0.052 A 
HETATM    3  C   UNK N   1      30.727  26.187  -3.740  0.00  0.00     0.119 A 
HETATM    4  N   UNK N   1      29.920  27.148  -4.233  0.00  0.00    -0.353 N 
ATOM      5  HN  UNK N   1      30.182  28.101  -4.488  1.00  0.00     0.166 HD
HETATM    6  C   UNK N   1      28.694  26.590  -4.318  0.00  0.00     0.084 A 
ENDROOT
BRANCH   2   7
HETATM    7  C   UNK N   1      30.480  23.751  -3.044  0.00  0.00     0.045 C 
HETATM    8  C   UNK N   1      31.205  22.863  -3.746  0.00  0.00     0.022 C 
BRANCH   8   9
HETATM    9  C   UNK N   1      31.679  23.183  -5.140  0.00  0.00     0.091 C 
BRANCH   9  10
HETATM   10  C   UNK N   1      33.137  23.510  -5.253  0.00  0.00    -0.013 A 
HETATM   11  S   UNK N   1      34.416  22.470  -5.414  0.00  0.00    -0.106 SA
HETATM   12  C   UNK N   1      35.668  23.558  -5.453  0.00  0.00     0.050 A 
HETATM   13  C   UNK N   1      35.078  24.826  -5.338  0.00  0.00     0.008 A 
HETATM   14  C   UNK N   1      33.659  24.799  -5.226  0.00  0.00     0.015 A 
ENDBRANCH   9  10
ENDBRANCH   8   9
BRANCH   8  15
HETATM   15  C   UNK N   1      31.655  21.613  -3.081  0.00  0.00     0.172 C 
HETATM   16  O   UNK N   1      32.371  21.662  -2.091  0.00  0.00    -0.646 OA
BRANCH  15  17
HETATM   17  O   UNK N   1      31.287  20.415  -3.570  0.00  0.00    -0.773 OA
HETATM   18  H   UNK N   1      30.426  20.122  -3.797  0.00  0.00     0.167 HD
ENDBRANCH  15  17
ENDBRANCH   8  15
ENDBRANCH   2   7
BRANCH   1  19
HETATM   19  C   UNK N   1      27.477  24.460  -3.874  0.00  0.00     0.169 C 
BRANCH  19  20
HETATM   20  C   UNK N   1      27.178  23.755  -5.158  0.00  0.00    -0.040 A 
HETATM   21  C   UNK N   1      25.848  23.509  -5.506  0.00  0.00     0.010 A 
HETATM   22  C   UNK N   1      25.542  22.930  -6.739  0.00  0.00     0.019 A 
HETATM   23  C   UNK N   1      26.564  22.596  -7.638  0.00  0.00     0.037 A 
HETATM   24  C   UNK N   1      27.902  22.812  -7.272  0.00  0.00     0.019 A 
HETATM   25  C   UNK N   1      28.210  23.381  -6.031  0.00  0.00     0.010 A 
BRANCH  23  26
HETATM   26  C   UNK N   1      26.225  22.055  -8.968  0.00  0.00     0.176 C 
HETATM   27  O   UNK N   1      27.005  22.172  -9.900  0.00  0.00    -0.646 OA
BRANCH  26  28
HETATM   28  O   UNK N   1      25.035  21.454  -9.171  0.00  0.00    -0.773 OA
HETATM   29  H   UNK N   1      24.374  20.941  -8.749  0.00  0.00     0.167 HD
ENDBRANCH  26  28
ENDBRANCH  23  26
ENDBRANCH  19  20
ENDBRANCH   1  19
BRANCH   6  30
HETATM   30  C   UNK N   1      27.495  27.323  -4.825  0.00  0.00     0.076 C 
BRANCH  30  31
HETATM   31  C   UNK N   1      27.493  27.336  -6.344  0.00  0.00     0.007 C 
BRANCH  31  32
HETATM   32  C   UNK N   1      26.170  26.814  -6.877  0.00  0.00    -0.004 C 
HETATM   33  C   UNK N   1      25.058  27.074  -5.877  0.00  0.00     0.005 C 
ENDBRANCH  31  32
ENDBRANCH  30  31
ENDBRANCH   6  30
TORSDOF 12
ENDMDL
MODEL 8
REMARK VINA RESULT:      -5.7     13.062     15.409
REMARK  12 active torsions:
REMARK  status: ('A' for Active; 'I' for Inactive)
REMARK    1  A    between atoms: N_1  and  C_2 
REMARK    2  A    between atoms: C_2  and  C_3 
REMARK    3  A    between atoms: C_6  and  C_5 
REMARK    4  A    between atoms: C_9  and  C_15 
REMARK    5  A    between atoms: C_11  and  C_26 
REMARK    6  A    between atoms: C_11  and  C_12 
REMARK    7  A    between atoms: C_12  and  O_14 
REMARK    8  A    between atoms: C_15  and  O_17 
REMARK    9  A    between atoms: C_21  and  C_22 
REMARK   10  A    between atoms: C_22  and  C_23 
REMARK   11  A    between atoms: C_23  and  C_24 
REMARK   12  A    between atoms: C_26  and  C_27 
ROOT
HETATM    1  N   UNK N   1      20.526  15.983   5.436  0.00  0.00    -0.331 N 
HETATM    2  C   UNK N   1      20.129  15.227   4.383  0.00  0.00     0.052 A 
HETATM    3  C   UNK N   1      20.198  13.893   4.738  0.00  0.00     0.119 A 
HETATM    4  N   UNK N   1      20.648  13.820   6.007  0.00  0.00    -0.353 N 
ATOM      5  HN  UNK N   1      20.812  12.975   6.555  1.00  0.00     0.166 HD
HETATM    6  C   UNK N   1      20.836  15.097   6.403  0.00  0.00     0.084 A 
ENDROOT
BRANCH   2   7
HETATM    7  C   UNK N   1      19.715  15.742   3.057  0.00  0.00     0.045 C 
HETATM    8  C   UNK N   1      20.533  16.042   2.032  0.00  0.00     0.022 C 
BRANCH   8   9
HETATM    9  C   UNK N   1      22.010  15.754   2.113  0.00  0.00     0.091 C 
BRANCH   9  10
HETATM   10  C   UNK N   1      22.461  14.545   1.352  0.00  0.00    -0.013 A 
HETATM   11  S   UNK N   1      23.984  14.177   0.813  0.00  0.00    -0.106 SA
HETATM   12  C   UNK N   1      23.682  12.728   0.065  0.00  0.00     0.050 A 
HETATM   13  C   UNK N   1      22.310  12.488   0.234  0.00  0.00     0.008 A 
HETATM   14  C   UNK N   1      21.626  13.507   0.956  0.00  0.00     0.015 A 
ENDBRANCH   9  10
ENDBRANCH   8   9
BRANCH   8  15
HETATM   15  C   UNK N   1      19.944  16.531   0.759  0.00  0.00     0.172 C 
HETATM   16  O   UNK N   1      20.507  17.400   0.110  0.00  0.00    -0.646 OA
BRANCH  15  17
HETATM   17  O   UNK N   1      18.777  16.028   0.316  0.00  0.00    -0.773 OA
HETATM   18  H   UNK N   1      17.920  16.148   0.677  0.00  0.00     0.167 HD
ENDBRANCH  15  17
ENDBRANCH   8  15
ENDBRANCH   2   7
BRANCH   1  19
HETATM   19  C   UNK N   1      20.626  17.448   5.601  0.00  0.00     0.169 C 
BRANCH  19  20
HETATM   20  C   UNK N   1      21.773  18.082   4.883  0.00  0.00    -0.040 A 
HETATM   21  C   UNK N   1      21.519  19.069   3.929  0.00  0.00     0.010 A 
HETATM   22  C   UNK N   1      22.577  19.736   3.310  0.00  0.00     0.019 A 
HETATM   23  C   UNK N   1      23.902  19.425   3.644  0.00  0.00     0.037 A 
HETATM   24  C   UNK N   1      24.158  18.408   4.577  0.00  0.00     0.019 A 
HETATM   25  C   UNK N   1      23.097  17.732   5.190  0.00  0.00     0.010 A 
BRANCH  23  26
HETATM   26  C   UNK N   1      25.010  20.188   3.039  0.00  0.00     0.176 C 
HETATM   27  O   UNK N   1      26.122  20.168   3.544  0.00  0.00    -0.646 OA
BRANCH  26  28
HETATM   28  O   UNK N   1      24.795  20.937   1.939  0.00  0.00    -0.773 OA
HETATM   29  H   UNK N   1      24.699  21.820   1.642  0.00  0.00     0.167 HD
ENDBRANCH  26  28
ENDBRANCH  23  26
ENDBRANCH  19  20
ENDBRANCH   1  19
BRANCH   6  30
HETATM   30  C   UNK N   1      21.338  15.466   7.762  0.00  0.00     0.076 C 
BRANCH  30  31
HETATM   31  C   UNK N   1      21.756  14.219   8.521  0.00  0.00     0.007 C 
BRANCH  31  32
HETATM   32  C   UNK N   1      20.877  14.023   9.745  0.00  0.00    -0.004 C 
HETATM   33  C   UNK N   1      21.198  12.702  10.420  0.00  0.00     0.005 C 
ENDBRANCH  31  32
ENDBRANCH  30  31
ENDBRANCH   6  30
TORSDOF 12
ENDMDL
MODEL 9
REMARK VINA RESULT:      -5.7     12.715     15.394
REMARK  12 active torsions:
REMARK  status: ('A' for Active; 'I' for Inactive)
REMARK    1  A    between atoms: N_1  and  C_2 
REMARK    2  A    between atoms: C_2  and  C_3 
REMARK    3  A    between atoms: C_6  and  C_5 
REMARK    4  A    between atoms: C_9  and  C_15 
REMARK    5  A    between atoms: C_11  and  C_26 
REMARK    6  A    between atoms: C_11  and  C_12 
REMARK    7  A    between atoms: C_12  and  O_14 
REMARK    8  A    between atoms: C_15  and  O_17 
REMARK    9  A    between atoms: C_21  and  C_22 
REMARK   10  A    between atoms: C_22  and  C_23 
REMARK   11  A    between atoms: C_23  and  C_24 
REMARK   12  A    between atoms: C_26  and  C_27 
ROOT
HETATM    1  N   UNK N   1      20.826  15.273   5.267  0.00  0.00    -0.331 N 
HETATM    2  C   UNK N   1      21.972  14.581   5.052  0.00  0.00     0.052 A 
HETATM    3  C   UNK N   1      22.584  14.340   6.269  0.00  0.00     0.119 A 
HETATM    4  N   UNK N   1      21.824  14.892   7.236  0.00  0.00    -0.353 N 
ATOM      5  HN  UNK N   1      22.007  14.891   8.240  1.00  0.00     0.166 HD
HETATM    6  C   UNK N   1      20.769  15.447   6.602  0.00  0.00     0.084 A 
ENDROOT
BRANCH   2   7
HETATM    7  C   UNK N   1      22.501  14.172   3.730  0.00  0.00     0.045 C 
HETATM    8  C   UNK N   1      23.253  14.926   2.909  0.00  0.00     0.022 C 
BRANCH   8   9
HETATM    9  C   UNK N   1      23.743  16.284   3.341  0.00  0.00     0.091 C 
BRANCH   9  10
HETATM   10  C   UNK N   1      25.189  16.341   3.728  0.00  0.00    -0.013 A 
HETATM   11  S   UNK N   1      26.028  15.319   4.727  0.00  0.00    -0.106 SA
HETATM   12  C   UNK N   1      27.525  16.031   4.674  0.00  0.00     0.050 A 
HETATM   13  C   UNK N   1      27.393  17.140   3.825  0.00  0.00     0.008 A 
HETATM   14  C   UNK N   1      26.083  17.313   3.294  0.00  0.00     0.015 A 
ENDBRANCH   9  10
ENDBRANCH   8   9
BRANCH   8  15
HETATM   15  C   UNK N   1      23.716  14.347   1.622  0.00  0.00     0.172 C 
HETATM   16  O   UNK N   1      23.076  14.527   0.597  0.00  0.00    -0.646 OA
BRANCH  15  17
HETATM   17  O   UNK N   1      24.841  13.610   1.577  0.00  0.00    -0.773 OA
HETATM   18  H   UNK N   1      24.990  12.810   1.111  0.00  0.00     0.167 HD
ENDBRANCH  15  17
ENDBRANCH   8  15
ENDBRANCH   2   7
BRANCH   1  19
HETATM   19  C   UNK N   1      19.797  15.766   4.329  0.00  0.00     0.169 C 
BRANCH  19  20
HETATM   20  C   UNK N   1      20.185  16.988   3.559  0.00  0.00    -0.040 A 
HETATM   21  C   UNK N   1      20.059  16.985   2.168  0.00  0.00     0.010 A 
HETATM   22  C   UNK N   1      20.332  18.142   1.437  0.00  0.00     0.019 A 
HETATM   23  C   UNK N   1      20.730  19.316   2.091  0.00  0.00     0.037 A 
HETATM   24  C   UNK N   1      20.890  19.307   3.485  0.00  0.00     0.019 A 
HETATM   25  C   UNK N   1      20.627  18.144   4.218  0.00  0.00     0.010 A 
BRANCH  23  26
HETATM   26  C   UNK N   1      20.943  20.553   1.316  0.00  0.00     0.176 C 
HETATM   27  O   UNK N   1      21.142  20.500   0.112  0.00  0.00    -0.646 OA
BRANCH  26  28
HETATM   28  O   UNK N   1      20.950  21.749   1.938  0.00  0.00    -0.773 OA
HETATM   29  H   UNK N   1      21.235  22.187   2.715  0.00  0.00     0.167 HD
ENDBRANCH  26  28
ENDBRANCH  23  26
ENDBRANCH  19  20
ENDBRANCH   1  19
BRANCH   6  30
HETATM   30  C   UNK N   1      19.675  16.173   7.316  0.00  0.00     0.076 C 
BRANCH  30  31
HETATM   31  C   UNK N   1      20.202  17.475   7.895  0.00  0.00     0.007 C 
BRANCH  31  32
HETATM   32  C   UNK N   1      19.375  17.894   9.098  0.00  0.00    -0.004 C 
HETATM   33  C   UNK N   1      18.055  17.144   9.119  0.00  0.00     0.005 C 
ENDBRANCH  31  32
ENDBRANCH  30  31
ENDBRANCH   6  30
TORSDOF 12
ENDMDL
