MODEL 1
REMARK VINA RESULT:      -8.3      0.000      0.000
REMARK  19 active torsions:
REMARK  status: ('A' for Active; 'I' for Inactive)
REMARK    1  A    between atoms: C_5  and  C_6 
REMARK    2  A    between atoms: C_6  and  C_7 
REMARK    3  A    between atoms: C_7  and  C_8 
REMARK       I    between atoms: C_8  and  N_41 
REMARK    4  A    between atoms: C_17  and  C_18 
REMARK    5  A    between atoms: C_18  and  C_19 
REMARK    6  A    between atoms: C_19  and  C_20 
REMARK       I    between atoms: C_20  and  N_42 
REMARK    7  A    between atoms: C_56  and  C_57 
REMARK    8  A    between atoms: C_57  and  O_58 
REMARK    9  A    between atoms: C_59  and  O_60 
REMARK   10  A    between atoms: Co_63  and  O_64 
REMARK   11  A    between atoms: C_66  and  C_67 
REMARK   12  A    between atoms: C_67  and  C_68 
REMARK   13  A    between atoms: C_68  and  C_69 
REMARK       I    between atoms: C_69  and  N_71 
REMARK   14  A    between atoms: C_72  and  C_73 
REMARK   15  A    between atoms: C_73  and  C_74 
REMARK       I    between atoms: C_74  and  N_76 
REMARK   16  A    between atoms: C_77  and  C_78 
REMARK   17  A    between atoms: C_78  and  C_79 
REMARK       I    between atoms: C_79  and  N_80 
REMARK   18  A    between atoms: C_83  and  C_85 
REMARK   19  A    between atoms: C_85  and  C_86 
REMARK       I    between atoms: C_86  and  N_88 
ROOT
HETATM    1  C   UNK N   1      25.474  14.490   2.721  0.00  0.00     0.025 C 
HETATM    2  N   UNK N   1      26.489  14.873   3.280  0.00  0.00    -0.289 N 
HETATM    3  N   UNK N   1      28.319  15.258   4.324  0.00  0.00    -0.280 N 
HETATM    4  C   UNK N   1      29.355  15.995   4.269  0.00  0.00     0.038 C 
HETATM    5  C   UNK N   1      29.241  17.458   4.709  0.00  0.00     0.049 C 
HETATM    6  C   UNK N   1      30.466  14.567   5.214  0.00  0.00     0.114 C 
HETATM    7  N   UNK N   1      29.480  13.423   4.757  0.00  0.00    -0.234 NA
HETATM    8  C   UNK N   1      30.586  12.888   4.204  0.00  0.00     0.082 C 
HETATM    9  C   UNK N   1      30.832  13.246   2.868  0.00  0.00     0.049 C 
HETATM   10  C   UNK N   1      29.845  13.409   2.161  0.00  0.00     0.118 C 
HETATM   11  N   UNK N   1      28.481  13.652   2.797  0.00  0.00    -0.291 N 
HETATM   12  C   UNK N   1      27.647  13.008   2.048  0.00  0.00     0.021 C 
HETATM   13  C   UNK N   1      28.739  11.723   1.710  0.00  0.00     0.044 C 
HETATM   14  C   UNK N   1      29.961  12.264   1.140  0.00  0.00    -0.016 C 
HETATM   15  C   UNK N   1      31.253  11.282   1.218  0.00  0.00     0.018 C 
HETATM   16  C   UNK N   1      29.793  12.375  -0.329  0.00  0.00     0.018 C 
HETATM   17  C   UNK N   1      30.473  15.558   4.283  0.00  0.00    -0.039 C 
HETATM   18  C   UNK N   1      31.473  16.449   3.534  0.00  0.00     0.047 C 
HETATM   19  C   UNK N   1      25.814  13.260   2.487  0.00  0.00     0.077 C 
HETATM   20  C   UNK N   1      24.865  13.048   3.640  0.00  0.00     0.022 C 
HETATM   21  C   UNK N   1      26.437  16.277   3.475  0.00  0.00     0.144 C 
HETATM   22  C   UNK N   1      27.252  16.310   4.670  0.00  0.00     0.081 C 
HETATM   23  C   UNK N   1      26.551  16.066   6.013  0.00  0.00     0.043 C 
HETATM   24  C   UNK N   1      23.493  14.306   5.899  0.00  0.00     0.104 C 
HETATM   25  C   UNK N   1      22.052  14.206   5.679  0.00  0.00     0.217 C 
HETATM   26  O   UNK N   1      21.385  15.221   5.539  0.00  0.00    -0.274 OA
HETATM   27  N   UNK N   1      21.488  12.983   5.632  0.00  0.00    -0.359 N 
HETATM   28  C   UNK N   1      20.070  12.789   5.490  0.00  0.00     0.154 C 
HETATM   29  C   UNK N   1      19.514  13.631   4.354  0.00  0.00     0.148 C 
HETATM   30  C   UNK N   1      24.068  15.362   4.991  0.00  0.00     0.025 C 
HETATM   31  C   UNK N   1      24.266  15.460   3.418  0.00  0.00     0.004 C 
HETATM   32  C   UNK N   1      22.922  15.548   2.716  0.00  0.00     0.022 C 
HETATM   33  C   UNK N   1      27.706   9.597   2.159  0.00  0.00     0.040 A 
HETATM   34  C   UNK N   1      25.398   8.614   2.835  0.00  0.00     0.033 A 
HETATM   35  C   UNK N   1      27.121  10.522   3.253  0.00  0.00     0.080 A 
HETATM   36  C   UNK N   1      26.162  11.527   4.823  0.00  0.00     0.186 C 
HETATM   37  C   UNK N   1      25.913   9.846   3.478  0.00  0.00     0.047 A 
HETATM   38  N   UNK N   1      27.341  11.988   4.079  0.00  0.00    -0.247 N 
HETATM   39  N   UNK N   1      25.156  10.592   4.152  0.00  0.00    -0.211 NA
HETATM   40  C   UNK N   1      27.302   8.377   1.554  0.00  0.00    -0.054 A 
HETATM   41  C   UNK N   1      28.167   7.667   0.551  0.00  0.00     0.049 C 
HETATM   42  C   UNK N   1      26.088   7.881   1.893  0.00  0.00    -0.054 A 
HETATM   43  C   UNK N   1      25.504   6.648   1.243  0.00  0.00     0.049 C 
HETATM   44  C   UNK N   1      23.792  10.767   3.199  0.00  0.00     0.238 C 
HETATM   45  O   UNK N   1      23.255   9.688   2.367  0.00  0.00    -0.358 OA
HETATM   46  C   UNK N   1      21.862   9.626   2.660  0.00  0.00     0.179 C 
HETATM   47  C   UNK N   1      22.619  11.821   3.198  0.00  0.00     0.194 C 
HETATM   48  C   UNK N   1      21.451  11.044   2.641  0.00  0.00     0.198 C 
HETATM   49  O   UNK N   1      20.163  11.330   3.127  0.00  0.00    -0.279 OA
HETATM   50 Co   UNK N   1      28.044  13.711   4.152  0.00  0.00     0.000 Co
HETATM   51  C   UNK N   1      31.985  12.985   4.935  0.00  0.00     0.016 C 
HETATM   52  C   UNK N   1      24.976  16.792   3.393  0.00  0.00     0.036 C 
HETATM   53  C   UNK N   1      27.829  17.817   4.800  0.00  0.00     0.002 C 
HETATM   54  C   UNK N   1      27.761  18.770   3.601  0.00  0.00     0.019 C 
HETATM   55  C   UNK N   1      31.900  14.277   5.671  0.00  0.00    -0.009 C 
HETATM   56  C   UNK N   1      31.945  14.098   7.158  0.00  0.00     0.018 C 
HETATM   57  P   UNK N   1      19.581  12.587   2.050  0.00  0.00     0.409 P 
HETATM   58  O   UNK N   1      18.715  12.822   3.550  0.00  0.00    -0.283 OA
HETATM   59  O   UNK N   1      18.798  11.393   1.439  0.00  0.00    -0.624 OA
HETATM   60  C   UNK N   1      18.692  14.762   4.943  0.00  0.00     0.042 C 
HETATM   61  O   UNK N   1      18.062  13.365   1.743  0.00  0.00    -0.624 OA
HETATM   62  H   UNK N   1      22.070  12.191   5.698  0.00  0.00     0.162 HD
ENDROOT
BRANCH   5  63
HETATM   63  C   UNK N   1      30.199  17.999   5.812  0.00  0.00     0.021 C 
BRANCH  63  64
HETATM   64  C   UNK N   1      29.869  17.230   7.083  0.00  0.00     0.103 C 
BRANCH  64  65
HETATM   65  C   UNK N   1      30.549  17.717   8.318  0.00  0.00     0.215 C 
HETATM   66  N   UNK N   1      29.923  18.617   9.100  0.00  0.00    -0.370 N 
HETATM   67  H   UNK N   1      29.008  18.908   8.883  0.00  0.00     0.159 HD
HETATM   68  H   UNK N   1      30.382  18.985   9.891  0.00  0.00     0.159 HD
HETATM   69  O   UNK N   1      31.611  17.235   8.675  0.00  0.00    -0.274 OA
ENDBRANCH  64  65
ENDBRANCH  63  64
ENDBRANCH   5  63
BRANCH  53  70
HETATM   70  C   UNK N   1      27.584  18.716   6.082  0.00  0.00     0.115 C 
BRANCH  70  71
HETATM   71  C   UNK N   1      27.185  20.181   6.149  0.00  0.00     0.216 C 
HETATM   72  O   UNK N   1      27.934  21.009   5.653  0.00  0.00    -0.274 OA
HETATM   73  N   UNK N   1      25.946  20.564   6.525  0.00  0.00    -0.370 N 
HETATM   74  H   UNK N   1      24.986  20.611   6.315  0.00  0.00     0.159 HD
HETATM   75  H   UNK N   1      26.051  20.988   7.407  0.00  0.00     0.159 HD
ENDBRANCH  70  71
ENDBRANCH  53  70
BRANCH  50  76
HETATM   76  O   UNK N   1      27.373  13.773   5.884  0.00  0.00    -0.253 OA
HETATM   77  H   UNK N   1      26.899  14.624   6.047  0.00  0.00     0.253 HD
ENDBRANCH  50  76
BRANCH  55  78
HETATM   78  C   UNK N   1      32.916  15.514   5.426  0.00  0.00     0.114 C 
BRANCH  78  79
HETATM   79  C   UNK N   1      34.023  16.394   6.007  0.00  0.00     0.216 C 
HETATM   80  N   UNK N   1      33.760  17.586   6.563  0.00  0.00    -0.370 N 
HETATM   81  H   UNK N   1      32.859  17.794   6.901  0.00  0.00     0.159 HD
HETATM   82  H   UNK N   1      34.474  18.260   6.635  0.00  0.00     0.159 HD
HETATM   83  O   UNK N   1      35.180  15.983   6.000  0.00  0.00    -0.274 OA
ENDBRANCH  78  79
ENDBRANCH  55  78
BRANCH  52  84
HETATM   84  C   UNK N   1      24.636  17.932   4.438  0.00  0.00     0.110 C 
BRANCH  84  85
HETATM   85  C   UNK N   1      23.915  19.181   3.966  0.00  0.00     0.215 C 
HETATM   86  N   UNK N   1      22.580  19.156   3.739  0.00  0.00    -0.370 N 
HETATM   87  H   UNK N   1      21.621  18.949   3.820  0.00  0.00     0.159 HD
HETATM   88  H   UNK N   1      22.544  19.758   2.961  0.00  0.00     0.159 HD
HETATM   89  O   UNK N   1      24.532  20.217   3.800  0.00  0.00    -0.274 OA
ENDBRANCH  84  85
ENDBRANCH  52  84
BRANCH  51  90
HETATM   90  C   UNK N   1      33.213  13.051   3.986  0.00  0.00     0.016 C 
BRANCH  90  91
HETATM   91  C   UNK N   1      34.229  11.991   4.296  0.00  0.00     0.103 C 
BRANCH  91  92
HETATM   92  C   UNK N   1      35.248  12.624   5.170  0.00  0.00     0.215 C 
HETATM   93  N   UNK N   1      36.163  13.446   4.626  0.00  0.00    -0.370 N 
HETATM   94  H   UNK N   1      35.955  14.066   3.889  0.00  0.00     0.159 HD
HETATM   95  H   UNK N   1      37.081  13.426   4.980  0.00  0.00     0.159 HD
HETATM   96  O   UNK N   1      35.214  12.460   6.379  0.00  0.00    -0.274 OA
ENDBRANCH  91  92
ENDBRANCH  90  91
ENDBRANCH  51  90
BRANCH  13  97
HETATM   97  C   UNK N   1      29.580  10.900   3.085  0.00  0.00     0.020 C 
BRANCH  97  98
HETATM   98  C   UNK N   1      30.278   9.549   3.596  0.00  0.00     0.103 C 
BRANCH  98  99
HETATM   99  C   UNK N   1      30.043   9.240   5.061  0.00  0.00     0.215 C 
HETATM  100  N   UNK N   1      29.072   8.382   5.418  0.00  0.00    -0.370 N 
HETATM  101  H   UNK N   1      28.167   8.174   5.745  0.00  0.00     0.159 HD
HETATM  102  H   UNK N   1      29.479   7.497   5.277  0.00  0.00     0.159 HD
HETATM  103  O   UNK N   1      30.696   9.803   5.929  0.00  0.00    -0.274 OA
ENDBRANCH  98  99
ENDBRANCH  97  98
ENDBRANCH  13  97
BRANCH  47 104
HETATM  104  O   UNK N   1      22.818  12.784   2.192  0.00  0.00    -0.389 OA
HETATM  105  H   UNK N   1      22.582  13.459   1.537  0.00  0.00     0.210 HD
ENDBRANCH  47 104
BRANCH  46 106
HETATM  106  C   UNK N   1      20.984   8.855   1.643  0.00  0.00     0.198 C 
BRANCH 106 107
HETATM  107  O   UNK N   1      19.684   8.671   2.156  0.00  0.00    -0.398 OA
HETATM  108  H   UNK N   1      19.417   8.848   3.072  0.00  0.00     0.209 HD
ENDBRANCH 106 107
ENDBRANCH  46 106
TORSDOF 19
ENDMDL
MODEL 2
REMARK VINA RESULT:      -8.0      2.748      9.345
REMARK  19 active torsions:
REMARK  status: ('A' for Active; 'I' for Inactive)
REMARK    1  A    between atoms: C_5  and  C_6 
REMARK    2  A    between atoms: C_6  and  C_7 
REMARK    3  A    between atoms: C_7  and  C_8 
REMARK       I    between atoms: C_8  and  N_41 
REMARK    4  A    between atoms: C_17  and  C_18 
REMARK    5  A    between atoms: C_18  and  C_19 
REMARK    6  A    between atoms: C_19  and  C_20 
REMARK       I    between atoms: C_20  and  N_42 
REMARK    7  A    between atoms: C_56  and  C_57 
REMARK    8  A    between atoms: C_57  and  O_58 
REMARK    9  A    between atoms: C_59  and  O_60 
REMARK   10  A    between atoms: Co_63  and  O_64 
REMARK   11  A    between atoms: C_66  and  C_67 
REMARK   12  A    between atoms: C_67  and  C_68 
REMARK   13  A    between atoms: C_68  and  C_69 
REMARK       I    between atoms: C_69  and  N_71 
REMARK   14  A    between atoms: C_72  and  C_73 
REMARK   15  A    between atoms: C_73  and  C_74 
REMARK       I    between atoms: C_74  and  N_76 
REMARK   16  A    between atoms: C_77  and  C_78 
REMARK   17  A    between atoms: C_78  and  C_79 
REMARK       I    between atoms: C_79  and  N_80 
REMARK   18  A    between atoms: C_83  and  C_85 
REMARK   19  A    between atoms: C_85  and  C_86 
REMARK       I    between atoms: C_86  and  N_88 
ROOT
HETATM    1  C   UNK N   1      27.288  14.470   5.503  0.00  0.00     0.025 C 
HETATM    2  N   UNK N   1      26.233  14.597   4.901  0.00  0.00    -0.289 N 
HETATM    3  N   UNK N   1      24.458  14.567   3.703  0.00  0.00    -0.280 N 
HETATM    4  C   UNK N   1      23.212  14.815   3.773  0.00  0.00     0.038 C 
HETATM    5  C   UNK N   1      22.750  16.276   3.742  0.00  0.00     0.049 C 
HETATM    6  C   UNK N   1      22.817  13.427   2.329  0.00  0.00     0.114 C 
HETATM    7  N   UNK N   1      24.155  12.650   2.637  0.00  0.00    -0.234 NA
HETATM    8  C   UNK N   1      23.332  11.605   2.849  0.00  0.00     0.082 C 
HETATM    9  C   UNK N   1      22.896  11.432   4.174  0.00  0.00     0.049 C 
HETATM   10  C   UNK N   1      23.697  11.732   5.050  0.00  0.00     0.118 C 
HETATM   11  N   UNK N   1      24.879  12.641   4.728  0.00  0.00    -0.291 N 
HETATM   12  C   UNK N   1      25.862  12.161   5.415  0.00  0.00     0.021 C 
HETATM   13  C   UNK N   1      25.365  10.525   5.235  0.00  0.00     0.044 C 
HETATM   14  C   UNK N   1      24.001  10.378   5.715  0.00  0.00    -0.016 C 
HETATM   15  C   UNK N   1      23.218   9.059   5.182  0.00  0.00     0.018 C 
HETATM   16  C   UNK N   1      24.036  10.103   7.173  0.00  0.00     0.018 C 
HETATM   17  C   UNK N   1      22.366  14.020   3.466  0.00  0.00    -0.039 C 
HETATM   18  C   UNK N   1      21.056  14.211   4.243  0.00  0.00     0.047 C 
HETATM   19  C   UNK N   1      27.460  13.192   5.360  0.00  0.00     0.077 C 
HETATM   20  C   UNK N   1      28.470  13.699   4.362  0.00  0.00     0.022 C 
HETATM   21  C   UNK N   1      25.727  15.910   5.078  0.00  0.00     0.144 C 
HETATM   22  C   UNK N   1      25.028  15.991   3.813  0.00  0.00     0.081 C 
HETATM   23  C   UNK N   1      25.834  16.434   2.586  0.00  0.00     0.043 C 
HETATM   24  C   UNK N   1      29.331  15.985   2.750  0.00  0.00     0.104 C 
HETATM   25  C   UNK N   1      30.678  16.366   3.170  0.00  0.00     0.217 C 
HETATM   26  O   UNK N   1      30.873  17.465   3.668  0.00  0.00    -0.274 OA
HETATM   27  N   UNK N   1      31.684  15.485   2.997  0.00  0.00    -0.359 N 
HETATM   28  C   UNK N   1      33.051  15.798   3.315  0.00  0.00     0.154 C 
HETATM   29  C   UNK N   1      33.163  16.408   4.702  0.00  0.00     0.148 C 
HETATM   30  C   UNK N   1      28.337  16.432   3.788  0.00  0.00     0.025 C 
HETATM   31  C   UNK N   1      28.037  15.978   5.281  0.00  0.00     0.004 C 
HETATM   32  C   UNK N   1      29.195  16.346   6.192  0.00  0.00     0.022 C 
HETATM   33  C   UNK N   1      27.185   9.170   4.438  0.00  0.00     0.040 A 
HETATM   34  C   UNK N   1      29.724   9.361   3.922  0.00  0.00     0.033 A 
HETATM   35  C   UNK N   1      27.403  10.525   3.724  0.00  0.00     0.080 A 
HETATM   36  C   UNK N   1      27.955  12.231   2.637  0.00  0.00     0.186 C 
HETATM   37  C   UNK N   1      28.791  10.444   3.536  0.00  0.00     0.047 A 
HETATM   38  N   UNK N   1      26.655  11.979   3.271  0.00  0.00    -0.247 N 
HETATM   39  N   UNK N   1      29.217  11.582   3.205  0.00  0.00    -0.211 NA
HETATM   40  C   UNK N   1      28.015   8.066   4.773  0.00  0.00    -0.054 A 
HETATM   41  C   UNK N   1      27.459   6.822   5.409  0.00  0.00     0.049 C 
HETATM   42  C   UNK N   1      29.341   8.180   4.523  0.00  0.00    -0.054 A 
HETATM   43  C   UNK N   1      30.338   7.118   4.926  0.00  0.00     0.049 C 
HETATM   44  C   UNK N   1      30.346  11.959   4.382  0.00  0.00     0.238 C 
HETATM   45  O   UNK N   1      31.229  10.962   4.990  0.00  0.00    -0.358 OA
HETATM   46  C   UNK N   1      32.542  11.510   4.922  0.00  0.00     0.179 C 
HETATM   47  C   UNK N   1      30.995  13.320   4.840  0.00  0.00     0.194 C 
HETATM   48  C   UNK N   1      32.347  12.905   5.366  0.00  0.00     0.198 C 
HETATM   49  O   UNK N   1      33.434  13.778   5.185  0.00  0.00    -0.279 OA
HETATM   50 Co   UNK N   1      25.323  13.256   3.522  0.00  0.00     0.000 Co
HETATM   51  C   UNK N   1      22.051  11.388   1.948  0.00  0.00     0.016 C 
HETATM   52  C   UNK N   1      26.851  16.880   5.525  0.00  0.00     0.036 C 
HETATM   53  C   UNK N   1      23.901  17.141   3.976  0.00  0.00     0.002 C 
HETATM   54  C   UNK N   1      23.521  17.650   5.371  0.00  0.00     0.019 C 
HETATM   55  C   UNK N   1      21.645  12.776   1.586  0.00  0.00    -0.009 C 
HETATM   56  C   UNK N   1      21.751  13.043   0.116  0.00  0.00     0.018 C 
HETATM   57  P   UNK N   1      33.407  14.780   6.624  0.00  0.00     0.409 P 
HETATM   58  O   UNK N   1      34.180  15.753   5.395  0.00  0.00    -0.283 OA
HETATM   59  O   UNK N   1      34.572  13.839   7.033  0.00  0.00    -0.624 OA
HETATM   60  C   UNK N   1      33.490  17.883   4.561  0.00  0.00     0.042 C 
HETATM   61  O   UNK N   1      34.467  15.938   7.362  0.00  0.00    -0.624 OA
HETATM   62  H   UNK N   1      31.473  14.592   2.639  0.00  0.00     0.162 HD
ENDROOT
BRANCH   5  63
HETATM   63  C   UNK N   1      21.712  16.723   2.670  0.00  0.00     0.021 C 
BRANCH  63  64
HETATM   64  C   UNK N   1      20.547  17.342   3.431  0.00  0.00     0.103 C 
BRANCH  64  65
HETATM   65  C   UNK N   1      19.687  18.267   2.639  0.00  0.00     0.215 C 
HETATM   66  N   UNK N   1      19.014  17.789   1.576  0.00  0.00    -0.370 N 
HETATM   67  H   UNK N   1      19.051  16.829   1.358  0.00  0.00     0.159 HD
HETATM   68  H   UNK N   1      18.483  18.399   1.014  0.00  0.00     0.159 HD
HETATM   69  O   UNK N   1      19.510  19.418   3.003  0.00  0.00    -0.274 OA
ENDBRANCH  64  65
ENDBRANCH  63  64
ENDBRANCH   5  63
BRANCH  53  70
HETATM   70  C   UNK N   1      23.827  18.404   3.021  0.00  0.00     0.115 C 
BRANCH  70  71
HETATM   71  C   UNK N   1      23.487  19.842   3.376  0.00  0.00     0.216 C 
HETATM   72  O   UNK N   1      24.366  20.546   3.847  0.00  0.00    -0.274 OA
HETATM   73  N   UNK N   1      22.332  20.418   2.980  0.00  0.00    -0.370 N 
HETATM   74  H   UNK N   1      21.785  20.775   2.244  0.00  0.00     0.159 HD
HETATM   75  H   UNK N   1      21.793  20.533   3.797  0.00  0.00     0.159 HD
ENDBRANCH  70  71
ENDBRANCH  53  70
BRANCH  50  76
HETATM   76  O   UNK N   1      25.998  14.073   1.996  0.00  0.00    -0.253 OA
HETATM   77  H   UNK N   1      26.497  13.427   1.441  0.00  0.00     0.253 HD
ENDBRANCH  50  76
BRANCH  55  78
HETATM   78  C   UNK N   1      20.207  13.415   1.967  0.00  0.00     0.114 C 
BRANCH  78  79
HETATM   79  C   UNK N   1      18.745  13.606   1.561  0.00  0.00     0.216 C 
HETATM   80  N   UNK N   1      18.376  14.529   0.660  0.00  0.00    -0.370 N 
HETATM   81  H   UNK N   1      19.026  14.883   0.010  0.00  0.00     0.159 HD
HETATM   82  H   UNK N   1      17.448  14.855   0.647  0.00  0.00     0.159 HD
HETATM   83  O   UNK N   1      17.890  12.871   2.044  0.00  0.00    -0.274 OA
ENDBRANCH  78  79
ENDBRANCH  55  78
BRANCH  52  84
HETATM   84  C   UNK N   1      26.756  18.319   4.872  0.00  0.00     0.110 C 
BRANCH  84  85
HETATM   85  C   UNK N   1      27.182  19.531   5.680  0.00  0.00     0.215 C 
HETATM   86  N   UNK N   1      27.073  20.775   5.158  0.00  0.00    -0.370 N 
HETATM   87  H   UNK N   1      26.738  21.553   4.657  0.00  0.00     0.159 HD
HETATM   88  H   UNK N   1      27.885  21.178   5.545  0.00  0.00     0.159 HD
HETATM   89  O   UNK N   1      27.613  19.391   6.810  0.00  0.00    -0.274 OA
ENDBRANCH  84  85
ENDBRANCH  52  84
BRANCH  51  90
HETATM   90  C   UNK N   1      20.854  10.710   2.669  0.00  0.00     0.016 C 
BRANCH  90  91
HETATM   91  C   UNK N   1      20.573   9.336   2.136  0.00  0.00     0.103 C 
BRANCH  91  92
HETATM   92  C   UNK N   1      20.076   9.513   0.749  0.00  0.00     0.215 C 
HETATM   93  N   UNK N   1      18.946  10.212   0.538  0.00  0.00    -0.370 N 
HETATM   94  H   UNK N   1      18.707  11.012   1.060  0.00  0.00     0.159 HD
HETATM   95  H   UNK N   1      18.331   9.910  -0.168  0.00  0.00     0.159 HD
HETATM   96  O   UNK N   1      20.721   9.093  -0.198  0.00  0.00    -0.274 OA
ENDBRANCH  91  92
ENDBRANCH  90  91
ENDBRANCH  51  90
BRANCH  13  97
HETATM   97  C   UNK N   1      24.995   9.896   3.578  0.00  0.00     0.020 C 
BRANCH  97  98
HETATM   98  C   UNK N   1      24.853   8.593   2.654  0.00  0.00     0.103 C 
BRANCH  98  99
HETATM   99  C   UNK N   1      24.840   8.879   1.167  0.00  0.00     0.215 C 
HETATM  100  N   UNK N   1      23.770   8.538   0.427  0.00  0.00    -0.370 N 
HETATM  101  H   UNK N   1      23.291   7.940  -0.191  0.00  0.00     0.159 HD
HETATM  102  H   UNK N   1      23.129   9.267   0.593  0.00  0.00     0.159 HD
HETATM  103  O   UNK N   1      25.815   9.374   0.618  0.00  0.00    -0.274 OA
ENDBRANCH  98  99
ENDBRANCH  97  98
ENDBRANCH  13  97
BRANCH  47 104
HETATM  104  O   UNK N   1      30.375  13.796   6.010  0.00  0.00    -0.389 OA
HETATM  105  H   UNK N   1      29.707  14.243   6.553  0.00  0.00     0.210 HD
ENDBRANCH  47 104
BRANCH  46 106
HETATM  106  C   UNK N   1      33.604  10.855   5.841  0.00  0.00     0.198 C 
BRANCH 106 107
HETATM  107  O   UNK N   1      33.387  11.222   7.184  0.00  0.00    -0.398 OA
HETATM  108  H   UNK N   1      33.876  10.870   7.943  0.00  0.00     0.209 HD
ENDBRANCH 106 107
ENDBRANCH  46 106
TORSDOF 19
ENDMDL
MODEL 3
REMARK VINA RESULT:      -7.3      3.048      9.307
REMARK  19 active torsions:
REMARK  status: ('A' for Active; 'I' for Inactive)
REMARK    1  A    between atoms: C_5  and  C_6 
REMARK    2  A    between atoms: C_6  and  C_7 
REMARK    3  A    between atoms: C_7  and  C_8 
REMARK       I    between atoms: C_8  and  N_41 
REMARK    4  A    between atoms: C_17  and  C_18 
REMARK    5  A    between atoms: C_18  and  C_19 
REMARK    6  A    between atoms: C_19  and  C_20 
REMARK       I    between atoms: C_20  and  N_42 
REMARK    7  A    between atoms: C_56  and  C_57 
REMARK    8  A    between atoms: C_57  and  O_58 
REMARK    9  A    between atoms: C_59  and  O_60 
REMARK   10  A    between atoms: Co_63  and  O_64 
REMARK   11  A    between atoms: C_66  and  C_67 
REMARK   12  A    between atoms: C_67  and  C_68 
REMARK   13  A    between atoms: C_68  and  C_69 
REMARK       I    between atoms: C_69  and  N_71 
REMARK   14  A    between atoms: C_72  and  C_73 
REMARK   15  A    between atoms: C_73  and  C_74 
REMARK       I    between atoms: C_74  and  N_76 
REMARK   16  A    between atoms: C_77  and  C_78 
REMARK   17  A    between atoms: C_78  and  C_79 
REMARK       I    between atoms: C_79  and  N_80 
REMARK   18  A    between atoms: C_83  and  C_85 
REMARK   19  A    between atoms: C_85  and  C_86 
REMARK       I    between atoms: C_86  and  N_88 
ROOT
HETATM    1  C   UNK N   1      25.735  13.294   4.858  0.00  0.00     0.025 C 
HETATM    2  N   UNK N   1      25.062  12.756   3.992  0.00  0.00    -0.289 N 
HETATM    3  N   UNK N   1      24.140  11.768   2.331  0.00  0.00    -0.280 N 
HETATM    4  C   UNK N   1      23.207  10.946   2.061  0.00  0.00     0.038 C 
HETATM    5  C   UNK N   1      21.758  11.444   2.079  0.00  0.00     0.049 C 
HETATM    6  C   UNK N   1      24.207  10.300   0.403  0.00  0.00     0.114 C 
HETATM    7  N   UNK N   1      25.593  10.771   0.991  0.00  0.00    -0.234 NA
HETATM    8  C   UNK N   1      25.943   9.482   0.818  0.00  0.00     0.082 C 
HETATM    9  C   UNK N   1      25.730   8.639   1.922  0.00  0.00     0.049 C 
HETATM   10  C   UNK N   1      25.890   9.145   3.026  0.00  0.00     0.118 C 
HETATM   11  N   UNK N   1      25.868  10.661   3.183  0.00  0.00    -0.291 N 
HETATM   12  C   UNK N   1      26.779  10.916   4.064  0.00  0.00     0.021 C 
HETATM   13  C   UNK N   1      27.825   9.656   3.540  0.00  0.00     0.044 C 
HETATM   14  C   UNK N   1      27.113   8.390   3.576  0.00  0.00    -0.016 C 
HETATM   15  C   UNK N   1      27.763   7.206   2.674  0.00  0.00     0.018 C 
HETATM   16  C   UNK N   1      27.248   7.804   4.932  0.00  0.00     0.018 C 
HETATM   17  C   UNK N   1      23.380   9.945   1.421  0.00  0.00    -0.039 C 
HETATM   18  C   UNK N   1      22.404   8.821   1.795  0.00  0.00     0.047 C 
HETATM   19  C   UNK N   1      26.880  12.735   4.611  0.00  0.00     0.077 C 
HETATM   20  C   UNK N   1      27.133  14.102   4.027  0.00  0.00     0.022 C 
HETATM   21  C   UNK N   1      23.692  13.071   4.176  0.00  0.00     0.144 C 
HETATM   22  C   UNK N   1      23.313  12.983   2.782  0.00  0.00     0.081 C 
HETATM   23  C   UNK N   1      23.515  14.230   1.912  0.00  0.00     0.043 C 
HETATM   24  C   UNK N   1      25.905  16.569   3.042  0.00  0.00     0.104 C 
HETATM   25  C   UNK N   1      26.351  17.677   3.884  0.00  0.00     0.217 C 
HETATM   26  O   UNK N   1      25.539  18.300   4.553  0.00  0.00    -0.274 OA
HETATM   27  N   UNK N   1      27.663  17.986   3.906  0.00  0.00    -0.359 N 
HETATM   28  C   UNK N   1      28.184  19.101   4.650  0.00  0.00     0.154 C 
HETATM   29  C   UNK N   1      27.653  19.104   6.074  0.00  0.00     0.148 C 
HETATM   30  C   UNK N   1      24.886  15.749   3.788  0.00  0.00     0.025 C 
HETATM   31  C   UNK N   1      24.969  14.796   5.057  0.00  0.00     0.004 C 
HETATM   32  C   UNK N   1      25.279  15.601   6.308  0.00  0.00     0.022 C 
HETATM   33  C   UNK N   1      30.042  10.505   3.152  0.00  0.00     0.040 A 
HETATM   34  C   UNK N   1      31.406  12.698   3.435  0.00  0.00     0.033 A 
HETATM   35  C   UNK N   1      29.126  11.670   2.710  0.00  0.00     0.080 A 
HETATM   36  C   UNK N   1      28.148  13.407   2.058  0.00  0.00     0.186 C 
HETATM   37  C   UNK N   1      30.014  12.733   2.931  0.00  0.00     0.047 A 
HETATM   38  N   UNK N   1      27.547  12.080   2.243  0.00  0.00    -0.247 N 
HETATM   39  N   UNK N   1      29.366  13.812   2.886  0.00  0.00    -0.211 NA
HETATM   40  C   UNK N   1      31.394  10.395   3.575  0.00  0.00    -0.054 A 
HETATM   41  C   UNK N   1      32.029   9.062   3.857  0.00  0.00     0.049 C 
HETATM   42  C   UNK N   1      32.094  11.542   3.743  0.00  0.00    -0.054 A 
HETATM   43  C   UNK N   1      33.504  11.562   4.285  0.00  0.00     0.049 C 
HETATM   44  C   UNK N   1      29.633  14.517   4.381  0.00  0.00     0.238 C 
HETATM   45  O   UNK N   1      30.910  14.423   5.092  0.00  0.00    -0.358 OA
HETATM   46  C   UNK N   1      31.237  15.753   5.484  0.00  0.00     0.179 C 
HETATM   47  C   UNK N   1      28.876  15.647   5.177  0.00  0.00     0.194 C 
HETATM   48  C   UNK N   1      29.962  16.268   6.021  0.00  0.00     0.198 C 
HETATM   49  O   UNK N   1      29.903  17.649   6.281  0.00  0.00    -0.279 OA
HETATM   50 Co   UNK N   1      25.718  11.727   2.249  0.00  0.00     0.000 Co
HETATM   51  C   UNK N   1      25.438   8.668  -0.440  0.00  0.00     0.016 C 
HETATM   52  C   UNK N   1      23.530  14.340   5.052  0.00  0.00     0.036 C 
HETATM   53  C   UNK N   1      21.712  12.740   2.749  0.00  0.00     0.002 C 
HETATM   54  C   UNK N   1      20.976  12.309   4.023  0.00  0.00     0.019 C 
HETATM   55  C   UNK N   1      24.106   9.270  -0.729  0.00  0.00    -0.009 C 
HETATM   56  C   UNK N   1      24.060   9.962  -2.057  0.00  0.00     0.018 C 
HETATM   57  P   UNK N   1      28.970  17.755   7.761  0.00  0.00     0.409 P 
HETATM   58  O   UNK N   1      28.724  19.282   6.947  0.00  0.00    -0.283 OA
HETATM   59  O   UNK N   1      30.381  17.969   8.374  0.00  0.00    -0.624 OA
HETATM   60  C   UNK N   1      26.661  20.242   6.221  0.00  0.00     0.042 C 
HETATM   61  O   UNK N   1      28.597  18.992   8.919  0.00  0.00    -0.624 OA
HETATM   62  H   UNK N   1      28.290  17.425   3.393  0.00  0.00     0.162 HD
ENDROOT
BRANCH   5  63
HETATM   63  C   UNK N   1      20.870  11.249   0.814  0.00  0.00     0.021 C 
BRANCH  63  64
HETATM   64  C   UNK N   1      19.677  10.412   1.251  0.00  0.00     0.103 C 
BRANCH  64  65
HETATM   65  C   UNK N   1      18.495  10.462   0.343  0.00  0.00     0.215 C 
HETATM   66  N   UNK N   1      17.358  11.037   0.777  0.00  0.00    -0.370 N 
HETATM   67  H   UNK N   1      17.327  11.462   1.664  0.00  0.00     0.159 HD
HETATM   68  H   UNK N   1      16.555  11.031   0.206  0.00  0.00     0.159 HD
HETATM   69  O   UNK N   1      18.583  10.083  -0.814  0.00  0.00    -0.274 OA
ENDBRANCH  64  65
ENDBRANCH  63  64
ENDBRANCH   5  63
BRANCH  53  70
HETATM   70  C   UNK N   1      20.718  13.707   1.981  0.00  0.00     0.115 C 
BRANCH  70  71
HETATM   71  C   UNK N   1      19.346  14.194   2.416  0.00  0.00     0.216 C 
HETATM   72  O   UNK N   1      18.395  13.439   2.288  0.00  0.00    -0.274 OA
HETATM   73  N   UNK N   1      19.188  15.324   3.137  0.00  0.00    -0.370 N 
HETATM   74  H   UNK N   1      19.306  15.792   3.995  0.00  0.00     0.159 HD
HETATM   75  H   UNK N   1      18.761  15.974   2.532  0.00  0.00     0.159 HD
ENDBRANCH  70  71
ENDBRANCH  53  70
BRANCH  50  76
HETATM   76  O   UNK N   1      25.563  13.183   1.105  0.00  0.00    -0.253 OA
HETATM   77  H   UNK N   1      26.257  13.154   0.403  0.00  0.00     0.253 HD
ENDBRANCH  50  76
BRANCH  55  78
HETATM   78  C   UNK N   1      22.721   8.430  -0.711  0.00  0.00     0.114 C 
BRANCH  78  79
HETATM   79  C   UNK N   1      21.678   7.669  -1.529  0.00  0.00     0.216 C 
HETATM   80  N   UNK N   1      20.381   7.658  -1.187  0.00  0.00    -0.370 N 
HETATM   81  H   UNK N   1      20.007   8.368  -0.616  0.00  0.00     0.159 HD
HETATM   82  H   UNK N   1      19.796   6.936  -1.511  0.00  0.00     0.159 HD
HETATM   83  O   UNK N   1      22.029   7.082  -2.548  0.00  0.00    -0.274 OA
ENDBRANCH  78  79
ENDBRANCH  55  78
BRANCH  52  84
HETATM   84  C   UNK N   1      22.358  15.298   4.587  0.00  0.00     0.110 C 
BRANCH  84  85
HETATM   85  C   UNK N   1      21.556  16.053   5.631  0.00  0.00     0.215 C 
HETATM   86  N   UNK N   1      22.057  17.175   6.200  0.00  0.00    -0.370 N 
HETATM   87  H   UNK N   1      22.532  18.028   6.327  0.00  0.00     0.159 HD
HETATM   88  H   UNK N   1      21.705  17.057   7.113  0.00  0.00     0.159 HD
HETATM   89  O   UNK N   1      20.451  15.659   5.954  0.00  0.00    -0.274 OA
ENDBRANCH  84  85
ENDBRANCH  52  84
BRANCH  51  90
HETATM   90  C   UNK N   1      25.235   7.148  -0.196  0.00  0.00     0.016 C 
BRANCH  90  91
HETATM   91  C   UNK N   1      26.264   6.316  -0.903  0.00  0.00     0.103 C 
BRANCH  91  92
HETATM   92  C   UNK N   1      26.040   6.511  -2.357  0.00  0.00     0.215 C 
HETATM   93  N   UNK N   1      24.851   6.181  -2.891  0.00  0.00    -0.370 N 
HETATM   94  H   UNK N   1      23.996   6.322  -2.422  0.00  0.00     0.159 HD
HETATM   95  H   UNK N   1      24.834   5.781  -3.790  0.00  0.00     0.159 HD
HETATM   96  O   UNK N   1      26.899   7.034  -3.050  0.00  0.00    -0.274 OA
ENDBRANCH  91  92
ENDBRANCH  90  91
ENDBRANCH  51  90
BRANCH  13  97
HETATM   97  C   UNK N   1      28.241   9.532   1.783  0.00  0.00     0.020 C 
BRANCH  97  98
HETATM   98  C   UNK N   1      29.252   8.920   0.699  0.00  0.00     0.103 C 
BRANCH  98  99
HETATM   99  C   UNK N   1      29.233   9.627  -0.641  0.00  0.00     0.215 C 
HETATM  100  N   UNK N   1      28.937   8.939  -1.758  0.00  0.00    -0.370 N 
HETATM  101  H   UNK N   1      29.187   8.457  -2.579  0.00  0.00     0.159 HD
HETATM  102  H   UNK N   1      27.954   8.890  -1.748  0.00  0.00     0.159 HD
HETATM  103  O   UNK N   1      29.535  10.809  -0.727  0.00  0.00    -0.274 OA
ENDBRANCH  98  99
ENDBRANCH  97  98
ENDBRANCH  13  97
BRANCH  47 104
HETATM  104  O   UNK N   1      28.043  15.086   6.162  0.00  0.00    -0.389 OA
HETATM  105  H   UNK N   1      27.617  14.391   6.687  0.00  0.00     0.210 HD
ENDBRANCH  47 104
BRANCH  46 106
HETATM  106  C   UNK N   1      32.318  15.895   6.584  0.00  0.00     0.198 C 
BRANCH 106 107
HETATM  107  O   UNK N   1      31.793  15.528   7.840  0.00  0.00    -0.398 OA
HETATM  108  H   UNK N   1      31.019  15.936   8.259  0.00  0.00     0.209 HD
ENDBRANCH 106 107
ENDBRANCH  46 106
TORSDOF 19
ENDMDL
MODEL 4
REMARK VINA RESULT:      -7.2      2.317      4.031
REMARK  19 active torsions:
REMARK  status: ('A' for Active; 'I' for Inactive)
REMARK    1  A    between atoms: C_5  and  C_6 
REMARK    2  A    between atoms: C_6  and  C_7 
REMARK    3  A    between atoms: C_7  and  C_8 
REMARK       I    between atoms: C_8  and  N_41 
REMARK    4  A    between atoms: C_17  and  C_18 
REMARK    5  A    between atoms: C_18  and  C_19 
REMARK    6  A    between atoms: C_19  and  C_20 
REMARK       I    between atoms: C_20  and  N_42 
REMARK    7  A    between atoms: C_56  and  C_57 
REMARK    8  A    between atoms: C_57  and  O_58 
REMARK    9  A    between atoms: C_59  and  O_60 
REMARK   10  A    between atoms: Co_63  and  O_64 
REMARK   11  A    between atoms: C_66  and  C_67 
REMARK   12  A    between atoms: C_67  and  C_68 
REMARK   13  A    between atoms: C_68  and  C_69 
REMARK       I    between atoms: C_69  and  N_71 
REMARK   14  A    between atoms: C_72  and  C_73 
REMARK   15  A    between atoms: C_73  and  C_74 
REMARK       I    between atoms: C_74  and  N_76 
REMARK   16  A    between atoms: C_77  and  C_78 
REMARK   17  A    between atoms: C_78  and  C_79 
REMARK       I    between atoms: C_79  and  N_80 
REMARK   18  A    between atoms: C_83  and  C_85 
REMARK   19  A    between atoms: C_85  and  C_86 
REMARK       I    between atoms: C_86  and  N_88 
ROOT
HETATM    1  C   UNK N   1      28.510  14.529   2.406  0.00  0.00     0.025 C 
HETATM    2  N   UNK N   1      29.628  14.326   2.854  0.00  0.00    -0.289 N 
HETATM    3  N   UNK N   1      31.519  13.682   3.624  0.00  0.00    -0.280 N 
HETATM    4  C   UNK N   1      32.759  13.961   3.566  0.00  0.00     0.038 C 
HETATM    5  C   UNK N   1      33.280  15.167   4.353  0.00  0.00     0.049 C 
HETATM    6  C   UNK N   1      33.252  12.015   3.935  0.00  0.00     0.114 C 
HETATM    7  N   UNK N   1      31.859  11.506   3.399  0.00  0.00    -0.234 NA
HETATM    8  C   UNK N   1      32.612  10.780   2.550  0.00  0.00     0.082 C 
HETATM    9  C   UNK N   1      32.895  11.388   1.315  0.00  0.00     0.049 C 
HETATM   10  C   UNK N   1      32.016  12.103   0.850  0.00  0.00     0.118 C 
HETATM   11  N   UNK N   1      30.914  12.645   1.754  0.00  0.00    -0.291 N 
HETATM   12  C   UNK N   1      29.843  12.603   1.031  0.00  0.00     0.021 C 
HETATM   13  C   UNK N   1      30.292  11.160   0.213  0.00  0.00     0.044 C 
HETATM   14  C   UNK N   1      31.588  11.344  -0.417  0.00  0.00    -0.016 C 
HETATM   15  C   UNK N   1      32.371   9.974  -0.802  0.00  0.00     0.018 C 
HETATM   16  C   UNK N   1      31.385  11.928  -1.766  0.00  0.00     0.018 C 
HETATM   17  C   UNK N   1      33.601  13.154   3.280  0.00  0.00    -0.039 C 
HETATM   18  C   UNK N   1      34.826  13.781   2.601  0.00  0.00     0.047 C 
HETATM   19  C   UNK N   1      28.304  13.383   1.831  0.00  0.00     0.077 C 
HETATM   20  C   UNK N   1      27.428  13.219   3.048  0.00  0.00     0.022 C 
HETATM   21  C   UNK N   1      30.164  15.528   3.383  0.00  0.00     0.144 C 
HETATM   22  C   UNK N   1      30.998  14.908   4.391  0.00  0.00     0.081 C 
HETATM   23  C   UNK N   1      30.348  14.569   5.738  0.00  0.00     0.043 C 
HETATM   24  C   UNK N   1      26.838  14.192   5.745  0.00  0.00     0.104 C 
HETATM   25  C   UNK N   1      25.470  14.705   5.762  0.00  0.00     0.217 C 
HETATM   26  O   UNK N   1      25.266  15.890   5.986  0.00  0.00    -0.274 OA
HETATM   27  N   UNK N   1      24.455  13.850   5.526  0.00  0.00    -0.359 N 
HETATM   28  C   UNK N   1      23.075  14.250   5.591  0.00  0.00     0.154 C 
HETATM   29  C   UNK N   1      22.838  15.527   4.803  0.00  0.00     0.148 C 
HETATM   30  C   UNK N   1      27.732  15.169   5.028  0.00  0.00     0.025 C 
HETATM   31  C   UNK N   1      27.850  15.634   3.514  0.00  0.00     0.004 C 
HETATM   32  C   UNK N   1      26.616  16.416   3.099  0.00  0.00     0.022 C 
HETATM   33  C   UNK N   1      28.515   9.541   0.316  0.00  0.00     0.040 A 
HETATM   34  C   UNK N   1      26.057   9.342   1.132  0.00  0.00     0.033 A 
HETATM   35  C   UNK N   1      28.430  10.260   1.683  0.00  0.00     0.080 A 
HETATM   36  C   UNK N   1      28.068  11.054   3.590  0.00  0.00     0.186 C 
HETATM   37  C   UNK N   1      27.069  10.051   1.948  0.00  0.00     0.047 A 
HETATM   38  N   UNK N   1      29.281  11.234   2.783  0.00  0.00    -0.247 N 
HETATM   39  N   UNK N   1      26.727  10.798   2.903  0.00  0.00    -0.211 NA
HETATM   40  C   UNK N   1      27.611   8.790  -0.482  0.00  0.00    -0.054 A 
HETATM   41  C   UNK N   1      28.044   8.129  -1.760  0.00  0.00     0.049 C 
HETATM   42  C   UNK N   1      26.325   8.709  -0.063  0.00  0.00    -0.054 A 
HETATM   43  C   UNK N   1      25.249   8.026  -0.876  0.00  0.00     0.049 C 
HETATM   44  C   UNK N   1      25.493  11.736   2.271  0.00  0.00     0.238 C 
HETATM   45  O   UNK N   1      24.511  11.224   1.314  0.00  0.00    -0.358 OA
HETATM   46  C   UNK N   1      23.235  11.605   1.822  0.00  0.00     0.179 C 
HETATM   47  C   UNK N   1      24.853  13.103   2.726  0.00  0.00     0.194 C 
HETATM   48  C   UNK N   1      23.437  13.015   2.213  0.00  0.00     0.198 C 
HETATM   49  O   UNK N   1      22.411  13.608   2.970  0.00  0.00    -0.279 OA
HETATM   50 Co   UNK N   1      30.628  12.470   3.139  0.00  0.00     0.000 Co
HETATM   51  C   UNK N   1      33.973  10.132   3.026  0.00  0.00     0.016 C 
HETATM   52  C   UNK N   1      29.037  16.551   3.682  0.00  0.00     0.036 C 
HETATM   53  C   UNK N   1      32.146  15.985   4.772  0.00  0.00     0.002 C 
HETATM   54  C   UNK N   1      32.393  17.195   3.865  0.00  0.00     0.019 C 
HETATM   55  C   UNK N   1      34.471  11.092   4.052  0.00  0.00    -0.009 C 
HETATM   56  C   UNK N   1      34.535  10.490   5.422  0.00  0.00     0.018 C 
HETATM   57  P   UNK N   1      22.323  15.243   2.342  0.00  0.00     0.409 P 
HETATM   58  O   UNK N   1      21.727  15.343   3.982  0.00  0.00    -0.283 OA
HETATM   59  O   UNK N   1      21.084  14.659   1.611  0.00  0.00    -0.624 OA
HETATM   60  C   UNK N   1      22.588  16.662   5.778  0.00  0.00     0.042 C 
HETATM   61  O   UNK N   1      21.236  16.586   2.498  0.00  0.00    -0.624 OA
HETATM   62  H   UNK N   1      24.667  12.916   5.299  0.00  0.00     0.162 HD
ENDROOT
BRANCH   5  63
HETATM   63  C   UNK N   1      34.445  14.969   5.368  0.00  0.00     0.021 C 
BRANCH  63  64
HETATM   64  C   UNK N   1      33.933  14.004   6.428  0.00  0.00     0.103 C 
BRANCH  64  65
HETATM   65  C   UNK N   1      34.788  13.878   7.643  0.00  0.00     0.215 C 
HETATM   66  N   UNK N   1      34.526  14.649   8.714  0.00  0.00    -0.370 N 
HETATM   67  H   UNK N   1      33.747  15.250   8.711  0.00  0.00     0.159 HD
HETATM   68  H   UNK N   1      35.114  14.612   9.504  0.00  0.00     0.159 HD
HETATM   69  O   UNK N   1      35.651  13.017   7.709  0.00  0.00    -0.274 OA
ENDBRANCH  64  65
ENDBRANCH  63  64
ENDBRANCH   5  63
BRANCH  53  70
HETATM   70  C   UNK N   1      32.373  16.500   6.253  0.00  0.00     0.115 C 
BRANCH  70  71
HETATM   71  C   UNK N   1      33.299  17.602   6.741  0.00  0.00     0.216 C 
HETATM   72  O   UNK N   1      34.152  18.023   5.976  0.00  0.00    -0.274 OA
HETATM   73  N   UNK N   1      33.063  18.274   7.888  0.00  0.00    -0.370 N 
HETATM   74  H   UNK N   1      32.507  18.922   8.378  0.00  0.00     0.159 HD
HETATM   75  H   UNK N   1      33.762  17.987   8.519  0.00  0.00     0.159 HD
ENDBRANCH  70  71
ENDBRANCH  53  70
BRANCH  50  76
HETATM   76  O   UNK N   1      30.155  12.277   4.926  0.00  0.00    -0.253 OA
HETATM   77  H   UNK N   1      29.182  12.391   5.047  0.00  0.00     0.253 HD
ENDBRANCH  50  76
BRANCH  55  78
HETATM   78  C   UNK N   1      35.884  11.874   3.934  0.00  0.00     0.114 C 
BRANCH  78  79
HETATM   79  C   UNK N   1      37.319  12.006   4.445  0.00  0.00     0.216 C 
HETATM   80  N   UNK N   1      38.229  11.040   4.255  0.00  0.00    -0.370 N 
HETATM   81  H   UNK N   1      38.117  10.381   3.532  0.00  0.00     0.159 HD
HETATM   82  H   UNK N   1      39.018  10.989   4.841  0.00  0.00     0.159 HD
HETATM   83  O   UNK N   1      37.658  13.040   5.013  0.00  0.00    -0.274 OA
ENDBRANCH  78  79
ENDBRANCH  55  78
BRANCH  52  84
HETATM   84  C   UNK N   1      29.260  17.383   5.011  0.00  0.00     0.110 C 
BRANCH  84  85
HETATM   85  C   UNK N   1      28.496  18.678   5.213  0.00  0.00     0.215 C 
HETATM   86  N   UNK N   1      28.375  19.567   4.199  0.00  0.00    -0.370 N 
HETATM   87  H   UNK N   1      28.269  19.950   3.298  0.00  0.00     0.159 HD
HETATM   88  H   UNK N   1      28.428  20.402   4.718  0.00  0.00     0.159 HD
HETATM   89  O   UNK N   1      27.975  18.919   6.287  0.00  0.00    -0.274 OA
ENDBRANCH  84  85
ENDBRANCH  52  84
BRANCH  51  90
HETATM   90  C   UNK N   1      35.057  10.005   1.922  0.00  0.00     0.016 C 
BRANCH  90  91
HETATM   91  C   UNK N   1      35.350   8.575   1.574  0.00  0.00     0.103 C 
BRANCH  91  92
HETATM   92  C   UNK N   1      35.939   7.956   2.788  0.00  0.00     0.215 C 
HETATM   93  N   UNK N   1      35.377   6.847   3.300  0.00  0.00    -0.370 N 
HETATM   94  H   UNK N   1      34.994   6.133   2.739  0.00  0.00     0.159 HD
HETATM   95  H   UNK N   1      35.346   6.744   4.278  0.00  0.00     0.159 HD
HETATM   96  O   UNK N   1      36.965   8.403   3.274  0.00  0.00    -0.274 OA
ENDBRANCH  91  92
ENDBRANCH  90  91
ENDBRANCH  51  90
BRANCH  13  97
HETATM   97  C   UNK N   1      30.813   9.724   1.183  0.00  0.00     0.020 C 
BRANCH  97  98
HETATM   98  C   UNK N   1      31.023   8.134   1.193  0.00  0.00     0.103 C 
BRANCH  98  99
HETATM   99  C   UNK N   1      31.262   7.544   2.568  0.00  0.00     0.215 C 
HETATM  100  N   UNK N   1      30.351   7.720   3.541  0.00  0.00    -0.370 N 
HETATM  101  H   UNK N   1      30.007   8.173   4.344  0.00  0.00     0.159 HD
HETATM  102  H   UNK N   1      29.666   7.039   3.346  0.00  0.00     0.159 HD
HETATM  103  O   UNK N   1      32.300   6.949   2.820  0.00  0.00    -0.274 OA
ENDBRANCH  98  99
ENDBRANCH  97  98
ENDBRANCH  13  97
BRANCH  47 104
HETATM  104  O   UNK N   1      25.362  14.168   1.959  0.00  0.00    -0.389 OA
HETATM  105  H   UNK N   1      25.342  14.953   1.390  0.00  0.00     0.210 HD
ENDBRANCH  47 104
BRANCH  46 106
HETATM  106  C   UNK N   1      22.055  11.546   0.820  0.00  0.00     0.198 C 
BRANCH 106 107
HETATM  107  O   UNK N   1      20.830  11.728   1.493  0.00  0.00    -0.398 OA
HETATM  108  H   UNK N   1      20.252  12.501   1.396  0.00  0.00     0.209 HD
ENDBRANCH 106 107
ENDBRANCH  46 106
TORSDOF 19
ENDMDL
MODEL 5
REMARK VINA RESULT:      -6.9      2.767      9.157
REMARK  19 active torsions:
REMARK  status: ('A' for Active; 'I' for Inactive)
REMARK    1  A    between atoms: C_5  and  C_6 
REMARK    2  A    between atoms: C_6  and  C_7 
REMARK    3  A    between atoms: C_7  and  C_8 
REMARK       I    between atoms: C_8  and  N_41 
REMARK    4  A    between atoms: C_17  and  C_18 
REMARK    5  A    between atoms: C_18  and  C_19 
REMARK    6  A    between atoms: C_19  and  C_20 
REMARK       I    between atoms: C_20  and  N_42 
REMARK    7  A    between atoms: C_56  and  C_57 
REMARK    8  A    between atoms: C_57  and  O_58 
REMARK    9  A    between atoms: C_59  and  O_60 
REMARK   10  A    between atoms: Co_63  and  O_64 
REMARK   11  A    between atoms: C_66  and  C_67 
REMARK   12  A    between atoms: C_67  and  C_68 
REMARK   13  A    between atoms: C_68  and  C_69 
REMARK       I    between atoms: C_69  and  N_71 
REMARK   14  A    between atoms: C_72  and  C_73 
REMARK   15  A    between atoms: C_73  and  C_74 
REMARK       I    between atoms: C_74  and  N_76 
REMARK   16  A    between atoms: C_77  and  C_78 
REMARK   17  A    between atoms: C_78  and  C_79 
REMARK       I    between atoms: C_79  and  N_80 
REMARK   18  A    between atoms: C_83  and  C_85 
REMARK   19  A    between atoms: C_85  and  C_86 
REMARK       I    between atoms: C_86  and  N_88 
ROOT
HETATM    1  C   UNK N   1      27.563  12.935   5.027  0.00  0.00     0.025 C 
HETATM    2  N   UNK N   1      26.602  13.573   4.627  0.00  0.00    -0.289 N 
HETATM    3  N   UNK N   1      24.836  14.442   3.784  0.00  0.00    -0.280 N 
HETATM    4  C   UNK N   1      23.890  15.243   4.074  0.00  0.00     0.038 C 
HETATM    5  C   UNK N   1      24.173  16.749   4.071  0.00  0.00     0.049 C 
HETATM    6  C   UNK N   1      22.632  14.280   2.787  0.00  0.00     0.114 C 
HETATM    7  N   UNK N   1      23.478  12.951   2.871  0.00  0.00    -0.234 NA
HETATM    8  C   UNK N   1      22.314  12.405   3.275  0.00  0.00     0.082 C 
HETATM    9  C   UNK N   1      22.100  12.387   4.664  0.00  0.00     0.049 C 
HETATM   10  C   UNK N   1      23.093  12.229   5.363  0.00  0.00     0.118 C 
HETATM   11  N   UNK N   1      24.481  12.493   4.789  0.00  0.00    -0.291 N 
HETATM   12  C   UNK N   1      25.230  11.572   5.300  0.00  0.00     0.021 C 
HETATM   13  C   UNK N   1      23.998  10.373   5.282  0.00  0.00     0.044 C 
HETATM   14  C   UNK N   1      22.841  10.859   6.013  0.00  0.00    -0.016 C 
HETATM   15  C   UNK N   1      21.446  10.091   5.690  0.00  0.00     0.018 C 
HETATM   16  C   UNK N   1      23.008  10.523   7.449  0.00  0.00     0.018 C 
HETATM   17  C   UNK N   1      22.730  14.955   3.964  0.00  0.00    -0.039 C 
HETATM   18  C   UNK N   1      21.832  15.697   4.962  0.00  0.00     0.047 C 
HETATM   19  C   UNK N   1      27.084  11.734   4.905  0.00  0.00     0.077 C 
HETATM   20  C   UNK N   1      28.011  11.760   3.716  0.00  0.00     0.022 C 
HETATM   21  C   UNK N   1      26.815  14.958   4.842  0.00  0.00     0.144 C 
HETATM   22  C   UNK N   1      26.018  15.424   3.727  0.00  0.00     0.081 C 
HETATM   23  C   UNK N   1      26.697  15.502   2.354  0.00  0.00     0.043 C 
HETATM   24  C   UNK N   1      29.535  13.456   1.881  0.00  0.00     0.104 C 
HETATM   25  C   UNK N   1      30.954  13.138   2.026  0.00  0.00     0.217 C 
HETATM   26  O   UNK N   1      31.730  13.989   2.435  0.00  0.00    -0.274 OA
HETATM   27  N   UNK N   1      31.375  11.898   1.705  0.00  0.00    -0.359 N 
HETATM   28  C   UNK N   1      32.761  11.516   1.750  0.00  0.00     0.154 C 
HETATM   29  C   UNK N   1      33.399  11.927   3.066  0.00  0.00     0.148 C 
HETATM   30  C   UNK N   1      29.077  14.262   3.067  0.00  0.00     0.025 C 
HETATM   31  C   UNK N   1      28.879  13.924   4.607  0.00  0.00     0.004 C 
HETATM   32  C   UNK N   1      30.219  13.657   5.270  0.00  0.00     0.022 C 
HETATM   33  C   UNK N   1      24.786   8.367   4.215  0.00  0.00     0.040 A 
HETATM   34  C   UNK N   1      26.972   7.371   3.227  0.00  0.00     0.033 A 
HETATM   35  C   UNK N   1      25.480   9.496   3.418  0.00  0.00     0.080 A 
HETATM   36  C   UNK N   1      26.560  10.799   2.180  0.00  0.00     0.186 C 
HETATM   37  C   UNK N   1      26.606   8.784   2.978  0.00  0.00     0.047 A 
HETATM   38  N   UNK N   1      25.435  11.153   3.054  0.00  0.00    -0.247 N 
HETATM   39  N   UNK N   1      27.448   9.605   2.528  0.00  0.00    -0.211 NA
HETATM   40  C   UNK N   1      25.044   6.987   4.434  0.00  0.00    -0.054 A 
HETATM   41  C   UNK N   1      24.096   6.118   5.212  0.00  0.00     0.049 C 
HETATM   42  C   UNK N   1      26.197   6.478   3.936  0.00  0.00    -0.054 A 
HETATM   43  C   UNK N   1      26.632   5.053   4.189  0.00  0.00     0.049 C 
HETATM   44  C   UNK N   1      28.816   9.345   3.457  0.00  0.00     0.238 C 
HETATM   45  O   UNK N   1      29.220   8.019   3.930  0.00  0.00    -0.358 OA
HETATM   46  C   UNK N   1      30.599   7.890   3.596  0.00  0.00     0.179 C 
HETATM   47  C   UNK N   1      30.100  10.216   3.731  0.00  0.00     0.194 C 
HETATM   48  C   UNK N   1      31.168   9.188   4.011  0.00  0.00     0.198 C 
HETATM   49  O   UNK N   1      32.485   9.457   3.596  0.00  0.00    -0.279 OA
HETATM   50 Co   UNK N   1      24.932  12.891   3.497  0.00  0.00     0.000 Co
HETATM   51  C   UNK N   1      20.941  12.863   2.639  0.00  0.00     0.016 C 
HETATM   52  C   UNK N   1      28.324  15.262   5.031  0.00  0.00     0.036 C 
HETATM   53  C   UNK N   1      25.617  16.959   4.051  0.00  0.00     0.002 C 
HETATM   54  C   UNK N   1      25.784  17.512   5.471  0.00  0.00     0.019 C 
HETATM   55  C   UNK N   1      21.177  14.295   2.303  0.00  0.00    -0.009 C 
HETATM   56  C   UNK N   1      21.125  14.558   0.829  0.00  0.00     0.018 C 
HETATM   57  P   UNK N   1      33.196  10.277   4.972  0.00  0.00     0.409 P 
HETATM   58  O   UNK N   1      34.096  10.837   3.582  0.00  0.00    -0.283 OA
HETATM   59  O   UNK N   1      33.834   8.879   5.195  0.00  0.00    -0.624 OA
HETATM   60  C   UNK N   1      34.349  13.082   2.806  0.00  0.00     0.042 C 
HETATM   61  O   UNK N   1      34.792  10.761   5.453  0.00  0.00    -0.624 OA
HETATM   62  H   UNK N   1      30.708  11.229   1.429  0.00  0.00     0.162 HD
ENDROOT
BRANCH   5  63
HETATM   63  C   UNK N   1      23.291  17.687   3.195  0.00  0.00     0.021 C 
BRANCH  63  64
HETATM   64  C   UNK N   1      22.687  18.716   4.139  0.00  0.00     0.103 C 
BRANCH  64  65
HETATM   65  C   UNK N   1      22.014  19.871   3.479  0.00  0.00     0.215 C 
HETATM   66  N   UNK N   1      20.691  20.047   3.652  0.00  0.00    -0.370 N 
HETATM   67  H   UNK N   1      20.188  19.449   4.250  0.00  0.00     0.159 HD
HETATM   68  H   UNK N   1      20.225  20.776   3.180  0.00  0.00     0.159 HD
HETATM   69  O   UNK N   1      22.665  20.707   2.872  0.00  0.00    -0.274 OA
ENDBRANCH  64  65
ENDBRANCH  63  64
ENDBRANCH   5  63
BRANCH  53  70
HETATM   70  C   UNK N   1      25.972  18.157   3.076  0.00  0.00     0.115 C 
BRANCH  70  71
HETATM   71  C   UNK N   1      26.362  19.583   3.430  0.00  0.00     0.216 C 
HETATM   72  O   UNK N   1      27.494  19.789   3.839  0.00  0.00    -0.274 OA
HETATM   73  N   UNK N   1      25.589  20.636   3.093  0.00  0.00    -0.370 N 
HETATM   74  H   UNK N   1      25.230  21.218   2.385  0.00  0.00     0.159 HD
HETATM   75  H   UNK N   1      25.214  20.977   3.938  0.00  0.00     0.159 HD
ENDBRANCH  70  71
ENDBRANCH  53  70
BRANCH  50  76
HETATM   76  O   UNK N   1      25.620  13.375   1.840  0.00  0.00    -0.253 OA
HETATM   77  H   UNK N   1      26.431  13.928   1.943  0.00  0.00     0.253 HD
ENDBRANCH  50  76
BRANCH  55  78
HETATM   78  C   UNK N   1      20.306  15.514   2.919  0.00  0.00     0.114 C 
BRANCH  78  79
HETATM   79  C   UNK N   1      19.665  16.879   2.672  0.00  0.00     0.216 C 
HETATM   80  N   UNK N   1      19.516  17.378   1.436  0.00  0.00    -0.370 N 
HETATM   81  H   UNK N   1      19.512  16.782   0.652  0.00  0.00     0.159 HD
HETATM   82  H   UNK N   1      19.408  18.348   1.310  0.00  0.00     0.159 HD
HETATM   83  O   UNK N   1      19.239  17.521   3.628  0.00  0.00    -0.274 OA
ENDBRANCH  78  79
ENDBRANCH  55  78
BRANCH  52  84
HETATM   84  C   UNK N   1      28.799  16.610   4.350  0.00  0.00     0.110 C 
BRANCH  84  85
HETATM   85  C   UNK N   1      29.781  17.506   5.082  0.00  0.00     0.215 C 
HETATM   86  N   UNK N   1      29.520  17.920   6.345  0.00  0.00    -0.370 N 
HETATM   87  H   UNK N   1      29.212  17.935   7.279  0.00  0.00     0.159 HD
HETATM   88  H   UNK N   1      29.899  18.828   6.292  0.00  0.00     0.159 HD
HETATM   89  O   UNK N   1      30.817  17.847   4.542  0.00  0.00    -0.274 OA
ENDBRANCH  84  85
ENDBRANCH  52  84
BRANCH  51  90
HETATM   90  C   UNK N   1      19.721  12.789   3.597  0.00  0.00     0.016 C 
BRANCH  90  91
HETATM   91  C   UNK N   1      18.530  12.142   2.953  0.00  0.00     0.103 C 
BRANCH  91  92
HETATM   92  C   UNK N   1      18.435  10.773   3.516  0.00  0.00     0.215 C 
HETATM   93  N   UNK N   1      18.719   9.717   2.734  0.00  0.00    -0.370 N 
HETATM   94  H   UNK N   1      19.439   9.728   2.061  0.00  0.00     0.159 HD
HETATM   95  H   UNK N   1      18.185   8.897   2.838  0.00  0.00     0.159 HD
HETATM   96  O   UNK N   1      18.172  10.607   4.697  0.00  0.00    -0.274 OA
ENDBRANCH  91  92
ENDBRANCH  90  91
ENDBRANCH  51  90
BRANCH  13  97
HETATM   97  C   UNK N   1      23.079  10.080   3.750  0.00  0.00     0.020 C 
BRANCH  97  98
HETATM   98  C   UNK N   1      22.203   9.034   2.908  0.00  0.00     0.103 C 
BRANCH  98  99
HETATM   99  C   UNK N   1      22.142   9.323   1.422  0.00  0.00     0.215 C 
HETATM  100  N   UNK N   1      23.246   9.189   0.667  0.00  0.00    -0.370 N 
HETATM  101  H   UNK N   1      24.032   9.550   0.196  0.00  0.00     0.159 HD
HETATM  102  H   UNK N   1      23.296   8.220   0.496  0.00  0.00     0.159 HD
HETATM  103  O   UNK N   1      21.109   9.727   0.907  0.00  0.00    -0.274 OA
ENDBRANCH  98  99
ENDBRANCH  97  98
ENDBRANCH  13  97
BRANCH  47 104
HETATM  104  O   UNK N   1      30.004  10.865   4.975  0.00  0.00    -0.389 OA
HETATM  105  H   UNK N   1      30.104  10.990   5.931  0.00  0.00     0.210 HD
ENDBRANCH  47 104
BRANCH  46 106
HETATM  106  C   UNK N   1      31.377   6.766   4.326  0.00  0.00     0.198 C 
BRANCH 106 107
HETATM  107  O   UNK N   1      31.604   7.119   5.671  0.00  0.00    -0.398 OA
HETATM  108  H   UNK N   1      31.877   7.997   5.977  0.00  0.00     0.209 HD
ENDBRANCH 106 107
ENDBRANCH  46 106
TORSDOF 19
ENDMDL
MODEL 6
REMARK VINA RESULT:      -6.8      1.804      2.438
REMARK  19 active torsions:
REMARK  status: ('A' for Active; 'I' for Inactive)
REMARK    1  A    between atoms: C_5  and  C_6 
REMARK    2  A    between atoms: C_6  and  C_7 
REMARK    3  A    between atoms: C_7  and  C_8 
REMARK       I    between atoms: C_8  and  N_41 
REMARK    4  A    between atoms: C_17  and  C_18 
REMARK    5  A    between atoms: C_18  and  C_19 
REMARK    6  A    between atoms: C_19  and  C_20 
REMARK       I    between atoms: C_20  and  N_42 
REMARK    7  A    between atoms: C_56  and  C_57 
REMARK    8  A    between atoms: C_57  and  O_58 
REMARK    9  A    between atoms: C_59  and  O_60 
REMARK   10  A    between atoms: Co_63  and  O_64 
REMARK   11  A    between atoms: C_66  and  C_67 
REMARK   12  A    between atoms: C_67  and  C_68 
REMARK   13  A    between atoms: C_68  and  C_69 
REMARK       I    between atoms: C_69  and  N_71 
REMARK   14  A    between atoms: C_72  and  C_73 
REMARK   15  A    between atoms: C_73  and  C_74 
REMARK       I    between atoms: C_74  and  N_76 
REMARK   16  A    between atoms: C_77  and  C_78 
REMARK   17  A    between atoms: C_78  and  C_79 
REMARK       I    between atoms: C_79  and  N_80 
REMARK   18  A    between atoms: C_83  and  C_85 
REMARK   19  A    between atoms: C_85  and  C_86 
REMARK       I    between atoms: C_86  and  N_88 
ROOT
HETATM    1  C   UNK N   1      25.226  12.547   2.132  0.00  0.00     0.025 C 
HETATM    2  N   UNK N   1      26.039  13.293   2.653  0.00  0.00    -0.289 N 
HETATM    3  N   UNK N   1      27.610  14.354   3.651  0.00  0.00    -0.280 N 
HETATM    4  C   UNK N   1      28.329  15.397   3.535  0.00  0.00     0.038 C 
HETATM    5  C   UNK N   1      27.712  16.758   3.876  0.00  0.00     0.049 C 
HETATM    6  C   UNK N   1      29.851  14.506   4.564  0.00  0.00     0.114 C 
HETATM    7  N   UNK N   1      29.326  13.065   4.195  0.00  0.00    -0.234 NA
HETATM    8  C   UNK N   1      30.556  12.908   3.668  0.00  0.00     0.082 C 
HETATM    9  C   UNK N   1      30.682  13.238   2.308  0.00  0.00     0.049 C 
HETATM   10  C   UNK N   1      29.710  13.003   1.602  0.00  0.00     0.118 C 
HETATM   11  N   UNK N   1      28.336  12.804   2.234  0.00  0.00    -0.291 N 
HETATM   12  C   UNK N   1      27.786  11.863   1.539  0.00  0.00     0.021 C 
HETATM   13  C   UNK N   1      29.257  11.013   1.278  0.00  0.00     0.044 C 
HETATM   14  C   UNK N   1      30.226  11.902   0.660  0.00  0.00    -0.016 C 
HETATM   15  C   UNK N   1      31.776  11.434   0.791  0.00  0.00     0.018 C 
HETATM   16  C   UNK N   1      30.051  11.851  -0.812  0.00  0.00     0.018 C 
HETATM   17  C   UNK N   1      29.529  15.374   3.568  0.00  0.00    -0.039 C 
HETATM   18  C   UNK N   1      30.171  16.503   2.750  0.00  0.00     0.047 C 
HETATM   19  C   UNK N   1      25.972  11.496   1.979  0.00  0.00     0.077 C 
HETATM   20  C   UNK N   1      25.139  11.048   3.153  0.00  0.00     0.022 C 
HETATM   21  C   UNK N   1      25.504  14.603   2.754  0.00  0.00     0.144 C 
HETATM   22  C   UNK N   1      26.241  14.994   3.936  0.00  0.00     0.081 C 
HETATM   23  C   UNK N   1      25.649  14.614   5.299  0.00  0.00     0.043 C 
HETATM   24  C   UNK N   1      23.386  11.905   5.335  0.00  0.00     0.104 C 
HETATM   25  C   UNK N   1      22.071  11.300   5.137  0.00  0.00     0.217 C 
HETATM   26  O   UNK N   1      21.097  12.011   4.935  0.00  0.00    -0.274 OA
HETATM   27  N   UNK N   1      21.963   9.957   5.179  0.00  0.00    -0.359 N 
HETATM   28  C   UNK N   1      20.700   9.278   5.064  0.00  0.00     0.154 C 
HETATM   29  C   UNK N   1      19.905   9.798   3.879  0.00  0.00     0.148 C 
HETATM   30  C   UNK N   1      23.574  13.031   4.352  0.00  0.00     0.025 C 
HETATM   31  C   UNK N   1      23.748  13.086   2.774  0.00  0.00     0.004 C 
HETATM   32  C   UNK N   1      22.466  12.658   2.082  0.00  0.00     0.022 C 
HETATM   33  C   UNK N   1      29.015   8.697   1.880  0.00  0.00     0.040 A 
HETATM   34  C   UNK N   1      27.177   7.027   2.645  0.00  0.00     0.033 A 
HETATM   35  C   UNK N   1      28.132   9.435   2.915  0.00  0.00     0.080 A 
HETATM   36  C   UNK N   1      26.863  10.151   4.423  0.00  0.00     0.186 C 
HETATM   37  C   UNK N   1      27.227   8.400   3.197  0.00  0.00     0.047 A 
HETATM   38  N   UNK N   1      27.821  10.938   3.638  0.00  0.00    -0.247 N 
HETATM   39  N   UNK N   1      26.250   8.884   3.827  0.00  0.00    -0.211 NA
HETATM   40  C   UNK N   1      29.064   7.375   1.363  0.00  0.00    -0.054 A 
HETATM   41  C   UNK N   1      30.135   6.940   0.401  0.00  0.00     0.049 C 
HETATM   42  C   UNK N   1      28.090   6.515   1.747  0.00  0.00    -0.054 A 
HETATM   43  C   UNK N   1      27.976   5.115   1.188  0.00  0.00     0.049 C 
HETATM   44  C   UNK N   1      24.923   8.513   2.878  0.00  0.00     0.238 C 
HETATM   45  O   UNK N   1      24.802   7.262   2.126  0.00  0.00    -0.358 OA
HETATM   46  C   UNK N   1      23.512   6.744   2.437  0.00  0.00     0.179 C 
HETATM   47  C   UNK N   1      23.459   9.095   2.817  0.00  0.00     0.194 C 
HETATM   48  C   UNK N   1      22.638   7.929   2.326  0.00  0.00     0.198 C 
HETATM   49  O   UNK N   1      21.323   7.785   2.804  0.00  0.00    -0.279 OA
HETATM   50 Co   UNK N   1      27.887  12.799   3.586  0.00  0.00     0.000 Co
HETATM   51  C   UNK N   1      31.826  13.529   4.376  0.00  0.00     0.016 C 
HETATM   52  C   UNK N   1      23.957  14.575   2.652  0.00  0.00     0.036 C 
HETATM   53  C   UNK N   1      26.262  16.613   3.957  0.00  0.00     0.002 C 
HETATM   54  C   UNK N   1      25.886  17.401   2.697  0.00  0.00     0.019 C 
HETATM   55  C   UNK N   1      31.291  14.760   5.025  0.00  0.00    -0.009 C 
HETATM   56  C   UNK N   1      31.374  14.707   6.519  0.00  0.00     0.018 C 
HETATM   57  P   UNK N   1      20.359   8.689   1.652  0.00  0.00     0.409 P 
HETATM   58  O   UNK N   1      19.444   8.711   3.140  0.00  0.00    -0.283 OA
HETATM   59  O   UNK N   1      20.044   7.260   1.130  0.00  0.00    -0.624 OA
HETATM   60  C   UNK N   1      18.736  10.614   4.399  0.00  0.00     0.042 C 
HETATM   61  O   UNK N   1      18.669   8.874   1.307  0.00  0.00    -0.624 OA
HETATM   62  H   UNK N   1      22.781   9.421   5.293  0.00  0.00     0.162 HD
ENDROOT
BRANCH   5  63
HETATM   63  C   UNK N   1      28.410  17.668   4.930  0.00  0.00     0.021 C 
BRANCH  63  64
HETATM   64  C   UNK N   1      28.328  16.929   6.258  0.00  0.00     0.103 C 
BRANCH  64  65
HETATM   65  C   UNK N   1      28.751  17.715   7.453  0.00  0.00     0.215 C 
HETATM   66  N   UNK N   1      27.814  18.165   8.308  0.00  0.00    -0.370 N 
HETATM   67  H   UNK N   1      26.868  17.932   8.171  0.00  0.00     0.159 HD
HETATM   68  H   UNK N   1      28.075  18.729   9.073  0.00  0.00     0.159 HD
HETATM   69  O   UNK N   1      29.934  17.865   7.713  0.00  0.00    -0.274 OA
ENDBRANCH  64  65
ENDBRANCH  63  64
ENDBRANCH   5  63
BRANCH  53  70
HETATM   70  C   UNK N   1      25.705  17.457   5.177  0.00  0.00     0.115 C 
BRANCH  70  71
HETATM   71  C   UNK N   1      25.076  18.840   5.164  0.00  0.00     0.216 C 
HETATM   72  O   UNK N   1      23.894  18.936   4.870  0.00  0.00    -0.274 OA
HETATM   73  N   UNK N   1      25.709  19.915   5.680  0.00  0.00    -0.370 N 
HETATM   74  H   UNK N   1      26.037  20.389   6.478  0.00  0.00     0.159 HD
HETATM   75  H   UNK N   1      25.953  20.480   4.911  0.00  0.00     0.159 HD
ENDBRANCH  70  71
ENDBRANCH  53  70
BRANCH  50  76
HETATM   76  O   UNK N   1      27.212  12.742   5.316  0.00  0.00    -0.253 OA
HETATM   77  H   UNK N   1      26.492  13.407   5.436  0.00  0.00     0.253 HD
ENDBRANCH  50  76
BRANCH  55  78
HETATM   78  C   UNK N   1      31.822  16.252   4.685  0.00  0.00     0.114 C 
BRANCH  78  79
HETATM   79  C   UNK N   1      32.923  17.293   4.886  0.00  0.00     0.216 C 
HETATM   80  N   UNK N   1      33.813  17.198   5.885  0.00  0.00    -0.370 N 
HETATM   81  H   UNK N   1      33.994  16.331   6.315  0.00  0.00     0.159 HD
HETATM   82  H   UNK N   1      34.291  18.002   6.191  0.00  0.00     0.159 HD
HETATM   83  O   UNK N   1      33.020  18.221   4.089  0.00  0.00    -0.274 OA
ENDBRANCH  78  79
ENDBRANCH  55  78
BRANCH  52  84
HETATM   84  C   UNK N   1      23.230  15.596   3.620  0.00  0.00     0.110 C 
BRANCH  84  85
HETATM   85  C   UNK N   1      22.017  16.358   3.121  0.00  0.00     0.215 C 
HETATM   86  N   UNK N   1      21.759  17.608   3.574  0.00  0.00    -0.370 N 
HETATM   87  H   UNK N   1      21.882  18.531   3.895  0.00  0.00     0.159 HD
HETATM   88  H   UNK N   1      20.776  17.564   3.601  0.00  0.00     0.159 HD
HETATM   89  O   UNK N   1      21.274  15.854   2.299  0.00  0.00    -0.274 OA
ENDBRANCH  84  85
ENDBRANCH  52  84
BRANCH  51  90
HETATM   90  C   UNK N   1      32.969  13.951   3.413  0.00  0.00     0.016 C 
BRANCH  90  91
HETATM   91  C   UNK N   1      34.197  13.106   3.583  0.00  0.00     0.103 C 
BRANCH  91  92
HETATM   92  C   UNK N   1      34.688  13.345   4.963  0.00  0.00     0.215 C 
HETATM   93  N   UNK N   1      34.828  12.305   5.803  0.00  0.00    -0.370 N 
HETATM   94  H   UNK N   1      35.141  11.418   5.509  0.00  0.00     0.159 HD
HETATM   95  H   UNK N   1      34.606  12.434   6.753  0.00  0.00     0.159 HD
HETATM   96  O   UNK N   1      35.034  14.464   5.311  0.00  0.00    -0.274 OA
ENDBRANCH  91  92
ENDBRANCH  90  91
ENDBRANCH  51  90
BRANCH  13  97
HETATM   97  C   UNK N   1      30.312  10.624   2.697  0.00  0.00     0.020 C 
BRANCH  97  98
HETATM   98  C   UNK N   1      31.397   9.613   3.306  0.00  0.00     0.103 C 
BRANCH  98  99
HETATM   99  C   UNK N   1      31.697   9.828   4.775  0.00  0.00     0.215 C 
HETATM  100  N   UNK N   1      30.717   9.694   5.687  0.00  0.00    -0.370 N 
HETATM  101  H   UNK N   1      30.028  10.058   6.288  0.00  0.00     0.159 HD
HETATM  102  H   UNK N   1      30.657   8.721   5.822  0.00  0.00     0.159 HD
HETATM  103  O   UNK N   1      32.812  10.175   5.140  0.00  0.00    -0.274 OA
ENDBRANCH  98  99
ENDBRANCH  97  98
ENDBRANCH  13  97
BRANCH  47 104
HETATM  104  O   UNK N   1      23.328   9.999   1.747  0.00  0.00    -0.389 OA
HETATM  105  H   UNK N   1      23.350  10.312   0.830  0.00  0.00     0.210 HD
ENDBRANCH  47 104
BRANCH  46 106
HETATM  106  C   UNK N   1      22.967   5.651   1.483  0.00  0.00     0.198 C 
BRANCH 106 107
HETATM  107  O   UNK N   1      21.806   5.061   2.023  0.00  0.00    -0.398 OA
HETATM  108  H   UNK N   1      21.689   4.112   2.186  0.00  0.00     0.209 HD
ENDBRANCH 106 107
ENDBRANCH  46 106
TORSDOF 19
ENDMDL
MODEL 7
REMARK VINA RESULT:      -6.7      5.166     11.108
REMARK  19 active torsions:
REMARK  status: ('A' for Active; 'I' for Inactive)
REMARK    1  A    between atoms: C_5  and  C_6 
REMARK    2  A    between atoms: C_6  and  C_7 
REMARK    3  A    between atoms: C_7  and  C_8 
REMARK       I    between atoms: C_8  and  N_41 
REMARK    4  A    between atoms: C_17  and  C_18 
REMARK    5  A    between atoms: C_18  and  C_19 
REMARK    6  A    between atoms: C_19  and  C_20 
REMARK       I    between atoms: C_20  and  N_42 
REMARK    7  A    between atoms: C_56  and  C_57 
REMARK    8  A    between atoms: C_57  and  O_58 
REMARK    9  A    between atoms: C_59  and  O_60 
REMARK   10  A    between atoms: Co_63  and  O_64 
REMARK   11  A    between atoms: C_66  and  C_67 
REMARK   12  A    between atoms: C_67  and  C_68 
REMARK   13  A    between atoms: C_68  and  C_69 
REMARK       I    between atoms: C_69  and  N_71 
REMARK   14  A    between atoms: C_72  and  C_73 
REMARK   15  A    between atoms: C_73  and  C_74 
REMARK       I    between atoms: C_74  and  N_76 
REMARK   16  A    between atoms: C_77  and  C_78 
REMARK   17  A    between atoms: C_78  and  C_79 
REMARK       I    between atoms: C_79  and  N_80 
REMARK   18  A    between atoms: C_83  and  C_85 
REMARK   19  A    between atoms: C_85  and  C_86 
REMARK       I    between atoms: C_86  and  N_88 
ROOT
HETATM    1  C   UNK N   1      34.885  10.338   3.377  0.00  0.00     0.025 C 
HETATM    2  N   UNK N   1      34.686  11.328   4.063  0.00  0.00    -0.289 N 
HETATM    3  N   UNK N   1      34.164  13.159   5.042  0.00  0.00    -0.280 N 
HETATM    4  C   UNK N   1      33.879  13.620   6.194  0.00  0.00     0.038 C 
HETATM    5  C   UNK N   1      35.014  13.852   7.196  0.00  0.00     0.049 C 
HETATM    6  C   UNK N   1      32.729  15.087   5.361  0.00  0.00     0.114 C 
HETATM    7  N   UNK N   1      32.509  14.242   4.048  0.00  0.00    -0.234 NA
HETATM    8  C   UNK N   1      31.203  14.388   4.344  0.00  0.00     0.082 C 
HETATM    9  C   UNK N   1      30.638  13.368   5.127  0.00  0.00     0.049 C 
HETATM   10  C   UNK N   1      31.071  12.238   4.937  0.00  0.00     0.118 C 
HETATM   11  N   UNK N   1      32.417  12.040   4.248  0.00  0.00    -0.291 N 
HETATM   12  C   UNK N   1      32.255  11.001   3.497  0.00  0.00     0.021 C 
HETATM   13  C   UNK N   1      30.617  11.363   3.121  0.00  0.00     0.044 C 
HETATM   14  C   UNK N   1      29.856  11.498   4.351  0.00  0.00    -0.016 C 
HETATM   15  C   UNK N   1      28.452  12.302   4.212  0.00  0.00     0.018 C 
HETATM   16  C   UNK N   1      29.363  10.159   4.757  0.00  0.00     0.018 C 
HETATM   17  C   UNK N   1      32.881  14.248   6.420  0.00  0.00    -0.039 C 
HETATM   18  C   UNK N   1      32.393  14.095   7.867  0.00  0.00     0.047 C 
HETATM   19  C   UNK N   1      33.829  10.388   2.624  0.00  0.00     0.077 C 
HETATM   20  C   UNK N   1      34.865  10.873   1.642  0.00  0.00     0.022 C 
HETATM   21  C   UNK N   1      35.634  11.388   5.116  0.00  0.00     0.144 C 
HETATM   22  C   UNK N   1      35.653  12.829   5.241  0.00  0.00     0.081 C 
HETATM   23  C   UNK N   1      36.592  13.608   4.311  0.00  0.00     0.043 C 
HETATM   24  C   UNK N   1      37.553  11.989   1.325  0.00  0.00     0.104 C 
HETATM   25  C   UNK N   1      38.358  11.046   0.552  0.00  0.00     0.217 C 
HETATM   26  O   UNK N   1      39.335  10.518   1.063  0.00  0.00    -0.274 OA
HETATM   27  N   UNK N   1      37.996  10.775  -0.718  0.00  0.00    -0.359 N 
HETATM   28  C   UNK N   1      38.766   9.914  -1.575  0.00  0.00     0.154 C 
HETATM   29  C   UNK N   1      39.113   8.612  -0.874  0.00  0.00     0.148 C 
HETATM   30  C   UNK N   1      37.374  11.467   2.726  0.00  0.00     0.025 C 
HETATM   31  C   UNK N   1      36.580  10.235   3.339  0.00  0.00     0.004 C 
HETATM   32  C   UNK N   1      37.211   8.925   2.901  0.00  0.00     0.022 C 
HETATM   33  C   UNK N   1      30.265  11.314   0.742  0.00  0.00     0.040 A 
HETATM   34  C   UNK N   1      31.541  10.719  -1.442  0.00  0.00     0.033 A 
HETATM   35  C   UNK N   1      31.698  11.879   0.884  0.00  0.00     0.080 A 
HETATM   36  C   UNK N   1      33.647  12.645   0.766  0.00  0.00     0.186 C 
HETATM   37  C   UNK N   1      32.212  11.467  -0.354  0.00  0.00     0.047 A 
HETATM   38  N   UNK N   1      32.789  12.614   1.957  0.00  0.00    -0.247 N 
HETATM   39  N   UNK N   1      33.465  11.596  -0.330  0.00  0.00    -0.211 NA
HETATM   40  C   UNK N   1      29.543  10.655  -0.289  0.00  0.00    -0.054 A 
HETATM   41  C   UNK N   1      28.090  10.303  -0.137  0.00  0.00     0.049 C 
HETATM   42  C   UNK N   1      30.219  10.327  -1.416  0.00  0.00    -0.054 A 
HETATM   43  C   UNK N   1      29.589   9.535  -2.540  0.00  0.00     0.049 C 
HETATM   44  C   UNK N   1      34.044  10.057  -0.640  0.00  0.00     0.238 C 
HETATM   45  O   UNK N   1      33.391   9.128  -1.564  0.00  0.00    -0.358 OA
HETATM   46  C   UNK N   1      34.419   8.642  -2.421  0.00  0.00     0.179 C 
HETATM   47  C   UNK N   1      35.446   9.377  -0.401  0.00  0.00     0.194 C 
HETATM   48  C   UNK N   1      35.518   8.330  -1.485  0.00  0.00     0.198 C 
HETATM   49  O   UNK N   1      36.769   8.043  -2.059  0.00  0.00    -0.279 OA
HETATM   50 Co   UNK N   1      33.362  12.953   3.696  0.00  0.00     0.000 Co
HETATM   51  C   UNK N   1      30.657  15.742   4.951  0.00  0.00     0.016 C 
HETATM   52  C   UNK N   1      36.875  10.516   4.792  0.00  0.00     0.036 C 
HETATM   53  C   UNK N   1      36.210  13.161   6.725  0.00  0.00     0.002 C 
HETATM   54  C   UNK N   1      36.268  12.058   7.786  0.00  0.00     0.019 C 
HETATM   55  C   UNK N   1      31.809  16.250   5.750  0.00  0.00    -0.009 C 
HETATM   56  C   UNK N   1      32.353  17.542   5.222  0.00  0.00     0.018 C 
HETATM   57  P   UNK N   1      37.404   6.755  -1.053  0.00  0.00     0.409 P 
HETATM   58  O   UNK N   1      38.806   7.553  -1.725  0.00  0.00    -0.283 OA
HETATM   59  O   UNK N   1      36.948   5.889  -2.258  0.00  0.00    -0.624 OA
HETATM   60  C   UNK N   1      40.595   8.613  -0.550  0.00  0.00     0.042 C 
HETATM   61  O   UNK N   1      38.736   5.647  -1.132  0.00  0.00    -0.624 OA
HETATM   62  H   UNK N   1      37.172  11.183  -1.072  0.00  0.00     0.162 HD
ENDROOT
BRANCH   5  63
HETATM   63  C   UNK N   1      35.194  15.263   7.831  0.00  0.00     0.021 C 
BRANCH  63  64
HETATM   64  C   UNK N   1      35.059  15.078   9.336  0.00  0.00     0.103 C 
BRANCH  64  65
HETATM   65  C   UNK N   1      35.686  16.145  10.168  0.00  0.00     0.215 C 
HETATM   66  N   UNK N   1      34.938  17.188  10.572  0.00  0.00    -0.370 N 
HETATM   67  H   UNK N   1      33.976  17.216  10.362  0.00  0.00     0.159 HD
HETATM   68  H   UNK N   1      35.352  17.924  11.079  0.00  0.00     0.159 HD
HETATM   69  O   UNK N   1      36.834  16.029  10.567  0.00  0.00    -0.274 OA
ENDBRANCH  64  65
ENDBRANCH  63  64
ENDBRANCH   5  63
BRANCH  53  70
HETATM   70  C   UNK N   1      37.487  14.067   6.973  0.00  0.00     0.115 C 
BRANCH  70  71
HETATM   71  C   UNK N   1      38.663  13.813   7.901  0.00  0.00     0.216 C 
HETATM   72  O   UNK N   1      39.726  13.468   7.409  0.00  0.00    -0.274 OA
HETATM   73  N   UNK N   1      38.633  14.173   9.202  0.00  0.00    -0.370 N 
HETATM   74  H   UNK N   1      38.635  14.896   9.870  0.00  0.00     0.159 HD
HETATM   75  H   UNK N   1      38.590  13.333   9.714  0.00  0.00     0.159 HD
ENDBRANCH  70  71
ENDBRANCH  53  70
BRANCH  50  76
HETATM   76  O   UNK N   1      34.638  14.060   2.923  0.00  0.00    -0.253 OA
HETATM   77  H   UNK N   1      34.731  13.871   1.958  0.00  0.00     0.253 HD
ENDBRANCH  50  76
BRANCH  55  78
HETATM   78  C   UNK N   1      31.743  16.511   7.347  0.00  0.00     0.114 C 
BRANCH  78  79
HETATM   79  C   UNK N   1      31.850  17.531   8.481  0.00  0.00     0.216 C 
HETATM   80  N   UNK N   1      30.812  17.809   9.284  0.00  0.00    -0.370 N 
HETATM   81  H   UNK N   1      30.072  17.168   9.386  0.00  0.00     0.159 HD
HETATM   82  H   UNK N   1      30.790  18.661   9.776  0.00  0.00     0.159 HD
HETATM   83  O   UNK N   1      32.927  18.084   8.687  0.00  0.00    -0.274 OA
ENDBRANCH  78  79
ENDBRANCH  55  78
BRANCH  52  84
HETATM   84  C   UNK N   1      38.248  11.158   5.250  0.00  0.00     0.110 C 
BRANCH  84  85
HETATM   85  C   UNK N   1      39.313  10.271   5.869  0.00  0.00     0.215 C 
HETATM   86  N   UNK N   1      39.724  10.481   7.142  0.00  0.00    -0.370 N 
HETATM   87  H   UNK N   1      39.723  10.703   8.101  0.00  0.00     0.159 HD
HETATM   88  H   UNK N   1      40.678  10.259   7.035  0.00  0.00     0.159 HD
HETATM   89  O   UNK N   1      39.794   9.355   5.227  0.00  0.00    -0.274 OA
ENDBRANCH  84  85
ENDBRANCH  52  84
BRANCH  51  90
HETATM   90  C   UNK N   1      29.442  15.586   5.905  0.00  0.00     0.016 C 
BRANCH  90  91
HETATM   91  C   UNK N   1      28.359  16.583   5.615  0.00  0.00     0.103 C 
BRANCH  91  92
HETATM   92  C   UNK N   1      28.197  17.402   6.841  0.00  0.00     0.215 C 
HETATM   93  N   UNK N   1      27.438  16.937   7.849  0.00  0.00    -0.370 N 
HETATM   94  H   UNK N   1      27.410  15.985   8.103  0.00  0.00     0.159 HD
HETATM   95  H   UNK N   1      26.884  17.575   8.354  0.00  0.00     0.159 HD
HETATM   96  O   UNK N   1      28.804  18.454   6.967  0.00  0.00    -0.274 OA
ENDBRANCH  91  92
ENDBRANCH  90  91
ENDBRANCH  51  90
BRANCH  13  97
HETATM   97  C   UNK N   1      30.198  13.018   2.519  0.00  0.00     0.020 C 
BRANCH  97  98
HETATM   98  C   UNK N   1      29.371  13.868   1.439  0.00  0.00     0.103 C 
BRANCH  98  99
HETATM   99  C   UNK N   1      28.541  14.989   2.029  0.00  0.00     0.215 C 
HETATM  100  N   UNK N   1      27.217  14.829   2.194  0.00  0.00    -0.370 N 
HETATM  101  H   UNK N   1      26.280  14.956   1.918  0.00  0.00     0.159 HD
HETATM  102  H   UNK N   1      27.146  14.312   3.029  0.00  0.00     0.159 HD
HETATM  103  O   UNK N   1      29.055  16.063   2.312  0.00  0.00    -0.274 OA
ENDBRANCH  98  99
ENDBRANCH  97  98
ENDBRANCH  13  97
BRANCH  47 104
HETATM  104  O   UNK N   1      35.419   8.578   0.757  0.00  0.00    -0.389 OA
HETATM  105  H   UNK N   1      35.630   8.305   1.663  0.00  0.00     0.210 HD
ENDBRANCH  47 104
BRANCH  46 106
HETATM  106  C   UNK N   1      34.090   7.358  -3.224  0.00  0.00     0.198 C 
BRANCH 106 107
HETATM  107  O   UNK N   1      34.090   6.234  -2.376  0.00  0.00    -0.398 OA
HETATM  108  H   UNK N   1      34.831   5.618  -2.268  0.00  0.00     0.209 HD
ENDBRANCH 106 107
ENDBRANCH  46 106
TORSDOF 19
ENDMDL
MODEL 8
REMARK VINA RESULT:      -6.7      3.348      8.803
REMARK  19 active torsions:
REMARK  status: ('A' for Active; 'I' for Inactive)
REMARK    1  A    between atoms: C_5  and  C_6 
REMARK    2  A    between atoms: C_6  and  C_7 
REMARK    3  A    between atoms: C_7  and  C_8 
REMARK       I    between atoms: C_8  and  N_41 
REMARK    4  A    between atoms: C_17  and  C_18 
REMARK    5  A    between atoms: C_18  and  C_19 
REMARK    6  A    between atoms: C_19  and  C_20 
REMARK       I    between atoms: C_20  and  N_42 
REMARK    7  A    between atoms: C_56  and  C_57 
REMARK    8  A    between atoms: C_57  and  O_58 
REMARK    9  A    between atoms: C_59  and  O_60 
REMARK   10  A    between atoms: Co_63  and  O_64 
REMARK   11  A    between atoms: C_66  and  C_67 
REMARK   12  A    between atoms: C_67  and  C_68 
REMARK   13  A    between atoms: C_68  and  C_69 
REMARK       I    between atoms: C_69  and  N_71 
REMARK   14  A    between atoms: C_72  and  C_73 
REMARK   15  A    between atoms: C_73  and  C_74 
REMARK       I    between atoms: C_74  and  N_76 
REMARK   16  A    between atoms: C_77  and  C_78 
REMARK   17  A    between atoms: C_78  and  C_79 
REMARK       I    between atoms: C_79  and  N_80 
REMARK   18  A    between atoms: C_83  and  C_85 
REMARK   19  A    between atoms: C_85  and  C_86 
REMARK       I    between atoms: C_86  and  N_88 
ROOT
HETATM    1  C   UNK N   1      28.047  10.563   3.422  0.00  0.00     0.025 C 
HETATM    2  N   UNK N   1      27.480  11.629   3.602  0.00  0.00    -0.289 N 
HETATM    3  N   UNK N   1      26.254  13.376   3.776  0.00  0.00    -0.280 N 
HETATM    4  C   UNK N   1      25.975  14.313   4.590  0.00  0.00     0.038 C 
HETATM    5  C   UNK N   1      26.973  15.463   4.758  0.00  0.00     0.049 C 
HETATM    6  C   UNK N   1      24.100  14.490   3.802  0.00  0.00     0.114 C 
HETATM    7  N   UNK N   1      24.132  13.009   3.259  0.00  0.00    -0.234 NA
HETATM    8  C   UNK N   1      23.021  12.863   4.006  0.00  0.00     0.082 C 
HETATM    9  C   UNK N   1      23.225  12.413   5.321  0.00  0.00     0.049 C 
HETATM   10  C   UNK N   1      24.147  11.624   5.486  0.00  0.00     0.118 C 
HETATM   11  N   UNK N   1      25.250  11.508   4.439  0.00  0.00    -0.291 N 
HETATM   12  C   UNK N   1      25.531  10.247   4.393  0.00  0.00     0.021 C 
HETATM   13  C   UNK N   1      23.912   9.740   4.670  0.00  0.00     0.044 C 
HETATM   14  C   UNK N   1      23.423  10.332   5.903  0.00  0.00    -0.016 C 
HETATM   15  C   UNK N   1      21.807  10.365   6.062  0.00  0.00     0.018 C 
HETATM   16  C   UNK N   1      23.789   9.446   7.036  0.00  0.00     0.018 C 
HETATM   17  C   UNK N   1      24.854  14.575   4.930  0.00  0.00    -0.039 C 
HETATM   18  C   UNK N   1      24.782  15.180   6.339  0.00  0.00     0.047 C 
HETATM   19  C   UNK N   1      27.010   9.794   3.287  0.00  0.00     0.077 C 
HETATM   20  C   UNK N   1      27.445   9.892   1.846  0.00  0.00     0.022 C 
HETATM   21  C   UNK N   1      28.422  12.624   3.969  0.00  0.00     0.144 C 
HETATM   22  C   UNK N   1      27.701  13.749   3.413  0.00  0.00     0.081 C 
HETATM   23  C   UNK N   1      27.908  14.059   1.925  0.00  0.00     0.043 C 
HETATM   24  C   UNK N   1      29.037  11.394  -0.096  0.00  0.00     0.104 C 
HETATM   25  C   UNK N   1      30.069  10.509  -0.633  0.00  0.00     0.217 C 
HETATM   26  O   UNK N   1      31.249  10.760  -0.438  0.00  0.00    -0.274 OA
HETATM   27  N   UNK N   1      29.688   9.424  -1.337  0.00  0.00    -0.359 N 
HETATM   28  C   UNK N   1      30.632   8.536  -1.961  0.00  0.00     0.154 C 
HETATM   29  C   UNK N   1      31.728   8.133  -0.990  0.00  0.00     0.148 C 
HETATM   30  C   UNK N   1      29.409  11.807   1.303  0.00  0.00     0.025 C 
HETATM   31  C   UNK N   1      29.505  11.025   2.683  0.00  0.00     0.004 C 
HETATM   32  C   UNK N   1      30.643  10.020   2.648  0.00  0.00     0.022 C 
HETATM   33  C   UNK N   1      23.228   8.146   3.003  0.00  0.00     0.040 A 
HETATM   34  C   UNK N   1      24.221   6.812   1.006  0.00  0.00     0.033 A 
HETATM   35  C   UNK N   1      24.148   9.114   2.222  0.00  0.00     0.080 A 
HETATM   36  C   UNK N   1      25.345  10.240   0.920  0.00  0.00     0.186 C 
HETATM   37  C   UNK N   1      24.576   8.235   1.216  0.00  0.00     0.047 A 
HETATM   38  N   UNK N   1      24.856  10.656   2.240  0.00  0.00    -0.247 N 
HETATM   39  N   UNK N   1      25.554   8.756   0.619  0.00  0.00    -0.211 NA
HETATM   40  C   UNK N   1      22.794   6.805   2.820  0.00  0.00    -0.054 A 
HETATM   41  C   UNK N   1      21.797   6.163   3.743  0.00  0.00     0.049 C 
HETATM   42  C   UNK N   1      23.332   6.108   1.791  0.00  0.00    -0.054 A 
HETATM   43  C   UNK N   1      23.028   4.646   1.554  0.00  0.00     0.049 C 
HETATM   44  C   UNK N   1      26.792   7.646   0.807  0.00  0.00     0.238 C 
HETATM   45  O   UNK N   1      26.576   6.198   0.797  0.00  0.00    -0.358 OA
HETATM   46  C   UNK N   1      27.538   5.667  -0.110  0.00  0.00     0.179 C 
HETATM   47  C   UNK N   1      28.359   7.763   0.671  0.00  0.00     0.194 C 
HETATM   48  C   UNK N   1      28.779   6.372   0.266  0.00  0.00     0.198 C 
HETATM   49  O   UNK N   1      29.871   6.229  -0.610  0.00  0.00    -0.279 OA
HETATM   50 Co   UNK N   1      25.459  12.146   3.182  0.00  0.00     0.000 Co
HETATM   51  C   UNK N   1      21.960  14.031   4.116  0.00  0.00     0.016 C 
HETATM   52  C   UNK N   1      29.856  12.208   3.553  0.00  0.00     0.036 C 
HETATM   53  C   UNK N   1      28.249  15.073   4.167  0.00  0.00     0.002 C 
HETATM   54  C   UNK N   1      29.064  14.937   5.458  0.00  0.00     0.019 C 
HETATM   55  C   UNK N   1      22.790  15.262   3.996  0.00  0.00    -0.009 C 
HETATM   56  C   UNK N   1      22.470  16.056   2.766  0.00  0.00     0.018 C 
HETATM   57  P   UNK N   1      31.253   6.117   0.463  0.00  0.00     0.409 P 
HETATM   58  O   UNK N   1      31.882   6.750  -1.040  0.00  0.00    -0.283 OA
HETATM   59  O   UNK N   1      31.119   4.609   0.118  0.00  0.00    -0.624 OA
HETATM   60  C   UNK N   1      33.018   8.820  -1.400  0.00  0.00     0.042 C 
HETATM   61  O   UNK N   1      32.931   5.708   0.302  0.00  0.00    -0.624 OA
HETATM   62  H   UNK N   1      28.726   9.232  -1.426  0.00  0.00     0.162 HD
ENDROOT
BRANCH   5  63
HETATM   63  C   UNK N   1      26.491  16.928   4.541  0.00  0.00     0.021 C 
BRANCH  63  64
HETATM   64  C   UNK N   1      26.978  17.725   5.743  0.00  0.00     0.103 C 
BRANCH  64  65
HETATM   65  C   UNK N   1      27.065  19.199   5.538  0.00  0.00     0.215 C 
HETATM   66  N   UNK N   1      26.112  19.993   6.063  0.00  0.00    -0.370 N 
HETATM   67  H   UNK N   1      25.398  19.605   6.618  0.00  0.00     0.159 HD
HETATM   68  H   UNK N   1      26.130  20.963   5.892  0.00  0.00     0.159 HD
HETATM   69  O   UNK N   1      28.037  19.696   4.992  0.00  0.00    -0.274 OA
ENDBRANCH  64  65
ENDBRANCH  63  64
ENDBRANCH   5  63
BRANCH  53  70
HETATM   70  C   UNK N   1      28.877  16.300   3.386  0.00  0.00     0.115 C 
BRANCH  70  71
HETATM   71  C   UNK N   1      30.235  16.955   3.584  0.00  0.00     0.216 C 
HETATM   72  O   UNK N   1      31.112  16.729   2.765  0.00  0.00    -0.274 OA
HETATM   73  N   UNK N   1      30.425  17.938   4.489  0.00  0.00    -0.370 N 
HETATM   74  H   UNK N   1      30.259  18.871   4.758  0.00  0.00     0.159 HD
HETATM   75  H   UNK N   1      30.980  17.547   5.201  0.00  0.00     0.159 HD
ENDBRANCH  70  71
ENDBRANCH  53  70
BRANCH  50  76
HETATM   76  O   UNK N   1      25.802  12.899   1.518  0.00  0.00    -0.253 OA
HETATM   77  H   UNK N   1      26.047  13.851   1.606  0.00  0.00     0.253 HD
ENDBRANCH  50  76
BRANCH  55  78
HETATM   78  C   UNK N   1      22.877  16.398   5.147  0.00  0.00     0.114 C 
BRANCH  78  79
HETATM   79  C   UNK N   1      22.573  17.843   5.543  0.00  0.00     0.216 C 
HETATM   80  N   UNK N   1      21.437  18.180   6.173  0.00  0.00    -0.370 N 
HETATM   81  H   UNK N   1      20.925  17.506   6.676  0.00  0.00     0.159 HD
HETATM   82  H   UNK N   1      21.114  19.108   6.133  0.00  0.00     0.159 HD
HETATM   83  O   UNK N   1      23.406  18.714   5.312  0.00  0.00    -0.274 OA
ENDBRANCH  78  79
ENDBRANCH  55  78
BRANCH  52  84
HETATM   84  C   UNK N   1      30.741  13.403   3.010  0.00  0.00     0.110 C 
BRANCH  84  85
HETATM   85  C   UNK N   1      32.242  13.218   2.883  0.00  0.00     0.215 C 
HETATM   86  N   UNK N   1      32.782  12.781   1.721  0.00  0.00    -0.370 N 
HETATM   87  H   UNK N   1      32.947  12.638   0.761  0.00  0.00     0.159 HD
HETATM   88  H   UNK N   1      33.509  12.225   2.087  0.00  0.00     0.159 HD
HETATM   89  O   UNK N   1      32.971  13.475   3.823  0.00  0.00    -0.274 OA
ENDBRANCH  84  85
ENDBRANCH  52  84
BRANCH  51  90
HETATM   90  C   UNK N   1      21.199  14.095   5.468  0.00  0.00     0.016 C 
BRANCH  90  91
HETATM   91  C   UNK N   1      19.710  14.105   5.282  0.00  0.00     0.103 C 
BRANCH  91  92
HETATM   92  C   UNK N   1      19.286  15.526   5.333  0.00  0.00     0.215 C 
HETATM   93  N   UNK N   1      19.171  16.221   4.188  0.00  0.00    -0.370 N 
HETATM   94  H   UNK N   1      18.832  15.823   3.352  0.00  0.00     0.159 HD
HETATM   95  H   UNK N   1      19.438  17.168   4.184  0.00  0.00     0.159 HD
HETATM   96  O   UNK N   1      18.972  16.040   6.395  0.00  0.00    -0.274 OA
ENDBRANCH  91  92
ENDBRANCH  90  91
ENDBRANCH  51  90
BRANCH  13  97
HETATM   97  C   UNK N   1      22.587  10.434   3.650  0.00  0.00     0.020 C 
BRANCH  97  98
HETATM   98  C   UNK N   1      21.109  10.216   3.066  0.00  0.00     0.103 C 
BRANCH  98  99
HETATM   99  C   UNK N   1      20.787  11.060   1.850  0.00  0.00     0.215 C 
HETATM  100  N   UNK N   1      21.402  10.812   0.680  0.00  0.00    -0.370 N 
HETATM  101  H   UNK N   1      22.091  10.991   0.000  0.00  0.00     0.159 HD
HETATM  102  H   UNK N   1      20.899  10.051   0.309  0.00  0.00     0.159 HD
HETATM  103  O   UNK N   1      20.009  12.000   1.931  0.00  0.00    -0.274 OA
ENDBRANCH  98  99
ENDBRANCH  97  98
ENDBRANCH  13  97
BRANCH  47 104
HETATM  104  O   UNK N   1      28.959   7.878   1.938  0.00  0.00    -0.389 OA
HETATM  105  H   UNK N   1      29.323   8.319   2.721  0.00  0.00     0.210 HD
ENDBRANCH  47 104
BRANCH  46 106
HETATM  106  C   UNK N   1      27.799   4.143  -0.013  0.00  0.00     0.198 C 
BRANCH 106 107
HETATM  107  O   UNK N   1      28.585   3.709  -1.099  0.00  0.00    -0.398 OA
HETATM  108  H   UNK N   1      29.534   3.880  -1.203  0.00  0.00     0.209 HD
ENDBRANCH 106 107
ENDBRANCH  46 106
TORSDOF 19
ENDMDL
MODEL 9
REMARK VINA RESULT:      -6.7      4.454     11.451
REMARK  19 active torsions:
REMARK  status: ('A' for Active; 'I' for Inactive)
REMARK    1  A    between atoms: C_5  and  C_6 
REMARK    2  A    between atoms: C_6  and  C_7 
REMARK    3  A    between atoms: C_7  and  C_8 
REMARK       I    between atoms: C_8  and  N_41 
REMARK    4  A    between atoms: C_17  and  C_18 
REMARK    5  A    between atoms: C_18  and  C_19 
REMARK    6  A    between atoms: C_19  and  C_20 
REMARK       I    between atoms: C_20  and  N_42 
REMARK    7  A    between atoms: C_56  and  C_57 
REMARK    8  A    between atoms: C_57  and  O_58 
REMARK    9  A    between atoms: C_59  and  O_60 
REMARK   10  A    between atoms: Co_63  and  O_64 
REMARK   11  A    between atoms: C_66  and  C_67 
REMARK   12  A    between atoms: C_67  and  C_68 
REMARK   13  A    between atoms: C_68  and  C_69 
REMARK       I    between atoms: C_69  and  N_71 
REMARK   14  A    between atoms: C_72  and  C_73 
REMARK   15  A    between atoms: C_73  and  C_74 
REMARK       I    between atoms: C_74  and  N_76 
REMARK   16  A    between atoms: C_77  and  C_78 
REMARK   17  A    between atoms: C_78  and  C_79 
REMARK       I    between atoms: C_79  and  N_80 
REMARK   18  A    between atoms: C_83  and  C_85 
REMARK   19  A    between atoms: C_85  and  C_86 
REMARK       I    between atoms: C_86  and  N_88 
ROOT
HETATM    1  C   UNK N   1      34.926  11.646   6.538  0.00  0.00     0.025 C 
HETATM    2  N   UNK N   1      34.156  12.570   6.325  0.00  0.00    -0.289 N 
HETATM    3  N   UNK N   1      32.819  14.106   5.664  0.00  0.00    -0.280 N 
HETATM    4  C   UNK N   1      31.761  14.718   6.019  0.00  0.00     0.038 C 
HETATM    5  C   UNK N   1      31.863  15.801   7.098  0.00  0.00     0.049 C 
HETATM    6  C   UNK N   1      31.254  15.047   4.068  0.00  0.00     0.114 C 
HETATM    7  N   UNK N   1      32.121  13.822   3.582  0.00  0.00    -0.234 NA
HETATM    8  C   UNK N   1      30.958  13.390   3.058  0.00  0.00     0.082 C 
HETATM    9  C   UNK N   1      30.190  12.552   3.885  0.00  0.00     0.049 C 
HETATM   10  C   UNK N   1      30.816  11.798   4.620  0.00  0.00     0.118 C 
HETATM   11  N   UNK N   1      32.282  12.078   4.934  0.00  0.00    -0.291 N 
HETATM   12  C   UNK N   1      32.843  10.914   4.958  0.00  0.00     0.021 C 
HETATM   13  C   UNK N   1      31.859  10.266   3.705  0.00  0.00     0.044 C 
HETATM   14  C   UNK N   1      30.459  10.407   4.069  0.00  0.00    -0.016 C 
HETATM   15  C   UNK N   1      29.411  10.308   2.832  0.00  0.00     0.018 C 
HETATM   16  C   UNK N   1      30.051   9.224   4.865  0.00  0.00     0.018 C 
HETATM   17  C   UNK N   1      30.787  14.802   5.321  0.00  0.00    -0.039 C 
HETATM   18  C   UNK N   1      29.485  14.919   6.125  0.00  0.00     0.047 C 
HETATM   19  C   UNK N   1      34.666  10.912   5.500  0.00  0.00     0.077 C 
HETATM   20  C   UNK N   1      35.994  11.488   5.078  0.00  0.00     0.022 C 
HETATM   21  C   UNK N   1      34.118  13.439   7.445  0.00  0.00     0.144 C 
HETATM   22  C   UNK N   1      33.810  14.646   6.708  0.00  0.00     0.081 C 
HETATM   23  C   UNK N   1      34.985  15.427   6.104  0.00  0.00     0.043 C 
HETATM   24  C   UNK N   1      37.958  13.610   5.535  0.00  0.00     0.104 C 
HETATM   25  C   UNK N   1      39.214  12.995   5.960  0.00  0.00     0.217 C 
HETATM   26  O   UNK N   1      39.659  13.227   7.074  0.00  0.00    -0.274 OA
HETATM   27  N   UNK N   1      39.855  12.175   5.103  0.00  0.00    -0.359 N 
HETATM   28  C   UNK N   1      41.129  11.582   5.407  0.00  0.00     0.154 C 
HETATM   29  C   UNK N   1      41.120  10.943   6.785  0.00  0.00     0.148 C 
HETATM   30  C   UNK N   1      36.970  13.569   6.670  0.00  0.00     0.025 C 
HETATM   31  C   UNK N   1      36.188  12.392   7.396  0.00  0.00     0.004 C 
HETATM   32  C   UNK N   1      37.153  11.508   8.167  0.00  0.00     0.022 C 
HETATM   33  C   UNK N   1      33.219   9.259   1.996  0.00  0.00     0.040 A 
HETATM   34  C   UNK N   1      35.708   8.687   1.520  0.00  0.00     0.033 A 
HETATM   35  C   UNK N   1      34.061  10.471   2.462  0.00  0.00     0.080 A 
HETATM   36  C   UNK N   1      35.416  12.012   2.891  0.00  0.00     0.186 C 
HETATM   37  C   UNK N   1      35.334   9.983   2.133  0.00  0.00     0.047 A 
HETATM   38  N   UNK N   1      34.001  11.959   3.276  0.00  0.00    -0.247 N 
HETATM   39  N   UNK N   1      36.198  10.715   2.683  0.00  0.00    -0.211 NA
HETATM   40  C   UNK N   1      33.504   8.029   1.345  0.00  0.00    -0.054 A 
HETATM   41  C   UNK N   1      32.413   7.077   0.941  0.00  0.00     0.049 C 
HETATM   42  C   UNK N   1      34.805   7.726   1.120  0.00  0.00    -0.054 A 
HETATM   43  C   UNK N   1      35.240   6.404   0.528  0.00  0.00     0.049 C 
HETATM   44  C   UNK N   1      37.077   9.665   3.645  0.00  0.00     0.238 C 
HETATM   45  O   UNK N   1      37.383   8.289   3.253  0.00  0.00    -0.358 OA
HETATM   46  C   UNK N   1      38.782   8.123   3.468  0.00  0.00     0.179 C 
HETATM   47  C   UNK N   1      38.036   9.896   4.875  0.00  0.00     0.194 C 
HETATM   48  C   UNK N   1      38.992   8.730   4.797  0.00  0.00     0.198 C 
HETATM   49  O   UNK N   1      40.327   8.929   5.192  0.00  0.00    -0.279 OA
HETATM   50 Co   UNK N   1      33.184  13.095   4.506  0.00  0.00     0.000 Co
HETATM   51  C   UNK N   1      29.932  14.407   2.415  0.00  0.00     0.016 C 
HETATM   52  C   UNK N   1      35.373  13.248   8.335  0.00  0.00     0.036 C 
HETATM   53  C   UNK N   1      33.155  15.683   7.765  0.00  0.00     0.002 C 
HETATM   54  C   UNK N   1      32.662  15.181   9.126  0.00  0.00     0.019 C 
HETATM   55  C   UNK N   1      30.138  15.652   3.209  0.00  0.00    -0.009 C 
HETATM   56  C   UNK N   1      30.673  16.781   2.384  0.00  0.00     0.018 C 
HETATM   57  P   UNK N   1      40.316   8.547   6.903  0.00  0.00     0.409 P 
HETATM   58  O   UNK N   1      41.648   9.658   6.684  0.00  0.00    -0.283 OA
HETATM   59  O   UNK N   1      40.945   7.224   6.386  0.00  0.00    -0.624 OA
HETATM   60  C   UNK N   1      41.967  11.787   7.719  0.00  0.00     0.042 C 
HETATM   61  O   UNK N   1      41.511   8.293   8.136  0.00  0.00    -0.624 OA
HETATM   62  H   UNK N   1      39.434  11.976   4.235  0.00  0.00     0.162 HD
ENDROOT
BRANCH   5  63
HETATM   63  C   UNK N   1      31.332  17.233   6.792  0.00  0.00     0.021 C 
BRANCH  63  64
HETATM   64  C   UNK N   1      30.061  17.404   7.613  0.00  0.00     0.103 C 
BRANCH  64  65
HETATM   65  C   UNK N   1      30.256  17.962   8.982  0.00  0.00     0.215 C 
HETATM   66  N   UNK N   1      29.808  17.268  10.045  0.00  0.00    -0.370 N 
HETATM   67  H   UNK N   1      29.403  16.379   9.918  0.00  0.00     0.159 HD
HETATM   68  H   UNK N   1      29.885  17.648  10.950  0.00  0.00     0.159 HD
HETATM   69  O   UNK N   1      30.904  18.983   9.152  0.00  0.00    -0.274 OA
ENDBRANCH  64  65
ENDBRANCH  63  64
ENDBRANCH   5  63
BRANCH  53  70
HETATM   70  C   UNK N   1      33.757  17.126   8.029  0.00  0.00     0.115 C 
BRANCH  70  71
HETATM   71  C   UNK N   1      34.670  17.580   9.156  0.00  0.00     0.216 C 
HETATM   72  O   UNK N   1      35.403  18.536   8.959  0.00  0.00    -0.274 OA
HETATM   73  N   UNK N   1      34.530  17.115  10.416  0.00  0.00    -0.370 N 
HETATM   74  H   UNK N   1      33.998  17.091  11.244  0.00  0.00     0.159 HD
HETATM   75  H   UNK N   1      35.312  16.540  10.580  0.00  0.00     0.159 HD
ENDBRANCH  70  71
ENDBRANCH  53  70
BRANCH  50  76
HETATM   76  O   UNK N   1      34.441  14.357   3.981  0.00  0.00    -0.253 OA
HETATM   77  H   UNK N   1      35.290  14.234   4.470  0.00  0.00     0.253 HD
ENDBRANCH  50  76
BRANCH  55  78
HETATM   78  C   UNK N   1      28.969  16.361   4.079  0.00  0.00     0.114 C 
BRANCH  78  79
HETATM   79  C   UNK N   1      27.992  17.531   4.192  0.00  0.00     0.216 C 
HETATM   80  N   UNK N   1      28.415  18.793   4.351  0.00  0.00    -0.370 N 
HETATM   81  H   UNK N   1      29.327  19.053   4.088  0.00  0.00     0.159 HD
HETATM   82  H   UNK N   1      27.808  19.467   4.734  0.00  0.00     0.159 HD
HETATM   83  O   UNK N   1      26.787  17.315   4.097  0.00  0.00    -0.274 OA
ENDBRANCH  78  79
ENDBRANCH  55  78
BRANCH  52  84
HETATM   84  C   UNK N   1      35.946  14.597   8.936  0.00  0.00     0.110 C 
BRANCH  84  85
HETATM   85  C   UNK N   1      36.792  14.548  10.195  0.00  0.00     0.215 C 
HETATM   86  N   UNK N   1      38.138  14.420  10.111  0.00  0.00    -0.370 N 
HETATM   87  H   UNK N   1      39.068  14.508   9.803  0.00  0.00     0.159 HD
HETATM   88  H   UNK N   1      38.288  13.848  10.898  0.00  0.00     0.159 HD
HETATM   89  O   UNK N   1      36.266  14.638  11.288  0.00  0.00    -0.274 OA
ENDBRANCH  84  85
ENDBRANCH  52  84
BRANCH  51  90
HETATM   90  C   UNK N   1      28.439  13.997   2.543  0.00  0.00     0.016 C 
BRANCH  90  91
HETATM   91  C   UNK N   1      27.580  14.646   1.497  0.00  0.00     0.103 C 
BRANCH  91  92
HETATM   92  C   UNK N   1      26.197  14.659   2.034  0.00  0.00     0.215 C 
HETATM   93  N   UNK N   1      25.994  14.404   3.339  0.00  0.00    -0.370 N 
HETATM   94  H   UNK N   1      26.607  14.712   4.046  0.00  0.00     0.159 HD
HETATM   95  H   UNK N   1      25.198  13.886   3.598  0.00  0.00     0.159 HD
HETATM   96  O   UNK N   1      25.259  14.971   1.318  0.00  0.00    -0.274 OA
ENDBRANCH  91  92
ENDBRANCH  90  91
ENDBRANCH  51  90
BRANCH  13  97
HETATM   97  C   UNK N   1      31.692  11.185   2.155  0.00  0.00     0.020 C 
BRANCH  97  98
HETATM   98  C   UNK N   1      31.229  11.126   0.620  0.00  0.00     0.103 C 
BRANCH  98  99
HETATM   99  C   UNK N   1      32.019  12.027  -0.306  0.00  0.00     0.215 C 
HETATM  100  N   UNK N   1      31.673  12.127  -1.601  0.00  0.00    -0.370 N 
HETATM  101  H   UNK N   1      31.775  11.897  -2.553  0.00  0.00     0.159 HD
HETATM  102  H   UNK N   1      30.921  12.762  -1.594  0.00  0.00     0.159 HD
HETATM  103  O   UNK N   1      33.003  12.629   0.100  0.00  0.00    -0.274 OA
ENDBRANCH  98  99
ENDBRANCH  97  98
ENDBRANCH  13  97
BRANCH  47 104
HETATM  104  O   UNK N   1      37.367   9.628   6.083  0.00  0.00    -0.389 OA
HETATM  105  H   UNK N   1      37.264   9.442   7.029  0.00  0.00     0.210 HD
ENDBRANCH  47 104
BRANCH  46 106
HETATM  106  C   UNK N   1      39.299   6.664   3.516  0.00  0.00     0.198 C 
BRANCH 106 107
HETATM  107  O   UNK N   1      40.708   6.640   3.501  0.00  0.00    -0.398 OA
HETATM  108  H   UNK N   1      41.262   6.990   2.786  0.00  0.00     0.209 HD
ENDBRANCH 106 107
ENDBRANCH  46 106
TORSDOF 19
ENDMDL
