MODEL 1
REMARK VINA RESULT:      -8.6      0.000      0.000
REMARK  5 active torsions:
REMARK  status: ('A' for Active; 'I' for Inactive)
REMARK    1  A    between atoms: N_2  and  C_6 
REMARK    2  A    between atoms: C_10  and  N_16 
REMARK    3  A    between atoms: C_13  and  C_20 
REMARK    4  A    between atoms: C_20  and  O_23 
REMARK    5  A    between atoms: C_30  and  N_31 
ROOT
HETATM    1  C   UNK N   1      24.592  18.698   4.762  0.00  0.00     0.128 A 
HETATM    2  N   UNK N   1      23.306  18.186   4.770  0.00  0.00    -0.303 N 
HETATM    3  C   UNK N   1      24.926  19.810   3.960  0.00  0.00     0.063 A 
HETATM    4  N   UNK N   1      25.559  18.139   5.526  0.00  0.00    -0.325 N 
ATOM      5  HN  UNK N   1      25.315  17.319   6.082  1.00  0.00     0.169 HD
HETATM    6  C   UNK N   1      22.369  18.756   3.955  0.00  0.00     0.121 A 
HETATM    7  C   UNK N   1      23.952  20.388   3.137  0.00  0.00     0.204 A 
HETATM    8  C   UNK N   1      26.237  20.317   4.010  0.00  0.00     0.065 A 
HETATM    9  C   UNK N   1      26.832  18.596   5.601  0.00  0.00     0.144 A 
HETATM   10  C   UNK N   1      22.654  19.846   3.125  0.00  0.00     0.104 A 
HETATM   11  O   UNK N   1      24.234  21.348   2.436  0.00  0.00    -0.286 OA
HETATM   12  C   UNK N   1      27.195  19.721   4.838  0.00  0.00     0.161 A 
HETATM   13  F   UNK N   1      28.455  20.220   4.866  0.00  0.00    -0.202 F 
ENDROOT
BRANCH   9  14
HETATM   14  N   UNK N   1      27.741  17.914   6.462  0.00  0.00    -0.364 N 
HETATM   15  C   UNK N   1      28.796  17.091   5.942  0.00  0.00     0.131 C 
HETATM   16  C   UNK N   1      30.003  17.453   6.796  0.00  0.00     0.034 A 
HETATM   17  C   UNK N   1      29.503  18.254   7.992  0.00  0.00     0.034 A 
HETATM   18  C   UNK N   1      29.883  16.810   8.184  0.00  0.00     0.086 A 
HETATM   19  C   UNK N   1      28.029  18.485   7.752  0.00  0.00     0.131 C 
BRANCH  18  20
HETATM   20  N   UNK N   1      31.172  16.775   8.860  0.00  0.00    -0.425 N 
HETATM   21  H   UNK N   1      31.572  17.546   9.395  0.00  0.00     0.150 HD
HETATM   22  H   UNK N   1      31.715  15.915   8.793  0.00  0.00     0.150 HD
ENDBRANCH  18  20
ENDBRANCH   9  14
BRANCH   2  23
HETATM   23  C   UNK N   1      22.904  17.073   5.647  0.00  0.00     0.079 A 
HETATM   24  C   UNK N   1      21.815  17.181   6.559  0.00  0.00     0.146 A 
HETATM   25  C   UNK N   1      21.482  16.106   7.394  0.00  0.00     0.086 A 
HETATM   26  F   UNK N   1      21.066  18.307   6.649  0.00  0.00    -0.204 F 
HETATM   27  C   UNK N   1      22.210  14.918   7.350  0.00  0.00     0.119 A 
HETATM   28  F   UNK N   1      21.882  13.885   8.165  0.00  0.00    -0.206 F 
HETATM   29  C   UNK N   1      23.277  14.792   6.471  0.00  0.00     0.045 A 
HETATM   30  C   UNK N   1      23.614  15.854   5.637  0.00  0.00     0.036 A 
ENDBRANCH   2  23
BRANCH  10  31
HETATM   31  C   UNK N   1      21.565  20.386   2.269  0.00  0.00     0.181 C 
HETATM   32  O   UNK N   1      20.968  19.665   1.485  0.00  0.00    -0.646 OA
BRANCH  31  33
HETATM   33  O   UNK N   1      21.223  21.687   2.358  0.00  0.00    -0.772 OA
HETATM   34  H   UNK N   1      21.853  22.355   2.174  0.00  0.00     0.167 HD
ENDBRANCH  31  33
ENDBRANCH  10  31
TORSDOF 5
ENDMDL
MODEL 2
REMARK VINA RESULT:      -8.3      1.085      1.429
REMARK  5 active torsions:
REMARK  status: ('A' for Active; 'I' for Inactive)
REMARK    1  A    between atoms: N_2  and  C_6 
REMARK    2  A    between atoms: C_10  and  N_16 
REMARK    3  A    between atoms: C_13  and  C_20 
REMARK    4  A    between atoms: C_20  and  O_23 
REMARK    5  A    between atoms: C_30  and  N_31 
ROOT
HETATM    1  C   UNK N   1      24.616  18.522   4.566  0.00  0.00     0.128 A 
HETATM    2  N   UNK N   1      23.352  17.959   4.554  0.00  0.00    -0.303 N 
HETATM    3  C   UNK N   1      24.887  19.716   3.863  0.00  0.00     0.063 A 
HETATM    4  N   UNK N   1      25.623  17.935   5.256  0.00  0.00    -0.325 N 
ATOM      5  HN  UNK N   1      25.424  17.059   5.738  1.00  0.00     0.169 HD
HETATM    6  C   UNK N   1      22.374  18.562   3.815  0.00  0.00     0.121 A 
HETATM    7  C   UNK N   1      23.872  20.326   3.118  0.00  0.00     0.204 A 
HETATM    8  C   UNK N   1      26.179  20.269   3.933  0.00  0.00     0.065 A 
HETATM    9  C   UNK N   1      26.879  18.435   5.345  0.00  0.00     0.144 A 
HETATM   10  C   UNK N   1      22.595  19.735   3.083  0.00  0.00     0.104 A 
HETATM   11  O   UNK N   1      24.099  21.356   2.503  0.00  0.00    -0.286 OA
HETATM   12  C   UNK N   1      27.179  19.639   4.682  0.00  0.00     0.161 A 
HETATM   13  F   UNK N   1      28.419  20.185   4.730  0.00  0.00    -0.202 F 
ENDROOT
BRANCH   9  14
HETATM   14  N   UNK N   1      27.834  17.716   6.121  0.00  0.00    -0.364 N 
HETATM   15  C   UNK N   1      28.892  16.967   5.505  0.00  0.00     0.131 C 
HETATM   16  C   UNK N   1      30.118  17.297   6.345  0.00  0.00     0.034 A 
HETATM   17  C   UNK N   1      29.638  17.987   7.616  0.00  0.00     0.034 A 
HETATM   18  C   UNK N   1      30.062  16.544   7.681  0.00  0.00     0.086 A 
HETATM   19  C   UNK N   1      28.151  18.192   7.441  0.00  0.00     0.131 C 
BRANCH  18  20
HETATM   20  N   UNK N   1      31.374  16.494   8.311  0.00  0.00    -0.425 N 
HETATM   21  H   UNK N   1      32.212  16.952   7.952  0.00  0.00     0.150 HD
HETATM   22  H   UNK N   1      31.461  15.962   9.176  0.00  0.00     0.150 HD
ENDBRANCH  18  20
ENDBRANCH   9  14
BRANCH   2  23
HETATM   23  C   UNK N   1      23.015  16.755   5.333  0.00  0.00     0.079 A 
HETATM   24  C   UNK N   1      23.496  15.462   4.980  0.00  0.00     0.146 A 
HETATM   25  C   UNK N   1      23.129  14.340   5.734  0.00  0.00     0.086 A 
HETATM   26  F   UNK N   1      24.318  15.271   3.920  0.00  0.00    -0.204 F 
HETATM   27  C   UNK N   1      22.287  14.468   6.839  0.00  0.00     0.119 A 
HETATM   28  F   UNK N   1      21.935  13.376   7.560  0.00  0.00    -0.206 F 
HETATM   29  C   UNK N   1      21.805  15.719   7.200  0.00  0.00     0.045 A 
HETATM   30  C   UNK N   1      22.165  16.839   6.457  0.00  0.00     0.036 A 
ENDBRANCH   2  23
BRANCH  10  31
HETATM   31  C   UNK N   1      21.466  20.305   2.303  0.00  0.00     0.181 C 
HETATM   32  O   UNK N   1      20.390  20.531   2.833  0.00  0.00    -0.646 OA
BRANCH  31  33
HETATM   33  O   UNK N   1      21.627  20.585   0.994  0.00  0.00    -0.772 OA
HETATM   34  H   UNK N   1      21.576  21.469   0.690  0.00  0.00     0.167 HD
ENDBRANCH  31  33
ENDBRANCH  10  31
TORSDOF 5
ENDMDL
MODEL 3
REMARK VINA RESULT:      -7.9     12.010     15.408
REMARK  5 active torsions:
REMARK  status: ('A' for Active; 'I' for Inactive)
REMARK    1  A    between atoms: N_2  and  C_6 
REMARK    2  A    between atoms: C_10  and  N_16 
REMARK    3  A    between atoms: C_13  and  C_20 
REMARK    4  A    between atoms: C_20  and  O_23 
REMARK    5  A    between atoms: C_30  and  N_31 
ROOT
HETATM    1  C   UNK N   1      28.496  23.914  -5.764  0.00  0.00     0.128 A 
HETATM    2  N   UNK N   1      28.595  24.732  -4.652  0.00  0.00    -0.303 N 
HETATM    3  C   UNK N   1      29.105  22.641  -5.787  0.00  0.00     0.063 A 
HETATM    4  N   UNK N   1      27.811  24.323  -6.859  0.00  0.00    -0.325 N 
ATOM      5  HN  UNK N   1      27.398  25.255  -6.843  1.00  0.00     0.169 HD
HETATM    6  C   UNK N   1      29.328  24.298  -3.583  0.00  0.00     0.121 A 
HETATM    7  C   UNK N   1      29.845  22.208  -4.681  0.00  0.00     0.204 A 
HETATM    8  C   UNK N   1      28.950  21.832  -6.927  0.00  0.00     0.065 A 
HETATM    9  C   UNK N   1      27.641  23.574  -7.975  0.00  0.00     0.144 A 
HETATM   10  C   UNK N   1      29.968  23.054  -3.563  0.00  0.00     0.104 A 
HETATM   11  O   UNK N   1      30.379  21.110  -4.693  0.00  0.00    -0.286 OA
HETATM   12  C   UNK N   1      28.208  22.288  -8.023  0.00  0.00     0.161 A 
HETATM   13  F   UNK N   1      28.076  21.495  -9.115  0.00  0.00    -0.202 F 
ENDROOT
BRANCH   9  14
HETATM   14  N   UNK N   1      26.881  24.129  -9.046  0.00  0.00    -0.364 N 
HETATM   15  C   UNK N   1      25.522  24.553  -8.863  0.00  0.00     0.131 C 
HETATM   16  C   UNK N   1      25.446  25.883  -9.600  0.00  0.00     0.034 A 
HETATM   17  C   UNK N   1      26.702  26.014 -10.452  0.00  0.00     0.034 A 
HETATM   18  C   UNK N   1      25.402  25.646 -11.116  0.00  0.00     0.086 A 
HETATM   19  C   UNK N   1      27.575  24.834 -10.091  0.00  0.00     0.131 C 
BRANCH  18  20
HETATM   20  N   UNK N   1      24.912  26.824 -11.817  0.00  0.00    -0.425 N 
HETATM   21  H   UNK N   1      25.473  27.413 -12.432  0.00  0.00     0.150 HD
HETATM   22  H   UNK N   1      23.934  27.078 -11.684  0.00  0.00     0.150 HD
ENDBRANCH  18  20
ENDBRANCH   9  14
BRANCH   2  23
HETATM   23  C   UNK N   1      27.913  26.035  -4.565  0.00  0.00     0.079 A 
HETATM   24  C   UNK N   1      26.539  26.150  -4.208  0.00  0.00     0.146 A 
HETATM   25  C   UNK N   1      25.923  27.408  -4.162  0.00  0.00     0.086 A 
HETATM   26  F   UNK N   1      25.787  25.066  -3.898  0.00  0.00    -0.204 F 
HETATM   27  C   UNK N   1      26.640  28.564  -4.467  0.00  0.00     0.119 A 
HETATM   28  F   UNK N   1      26.034  29.776  -4.424  0.00  0.00    -0.206 F 
HETATM   29  C   UNK N   1      27.980  28.474  -4.820  0.00  0.00     0.045 A 
HETATM   30  C   UNK N   1      28.600  27.229  -4.867  0.00  0.00     0.036 A 
ENDBRANCH   2  23
BRANCH  10  31
HETATM   31  C   UNK N   1      30.749  22.681  -2.354  0.00  0.00     0.181 C 
HETATM   32  O   UNK N   1      30.380  23.017  -1.241  0.00  0.00    -0.646 OA
BRANCH  31  33
HETATM   33  O   UNK N   1      31.879  21.956  -2.482  0.00  0.00    -0.772 OA
HETATM   34  H   UNK N   1      31.855  21.111  -2.885  0.00  0.00     0.167 HD
ENDBRANCH  31  33
ENDBRANCH  10  31
TORSDOF 5
ENDMDL
MODEL 4
REMARK VINA RESULT:      -7.8     12.253     15.319
REMARK  5 active torsions:
REMARK  status: ('A' for Active; 'I' for Inactive)
REMARK    1  A    between atoms: N_2  and  C_6 
REMARK    2  A    between atoms: C_10  and  N_16 
REMARK    3  A    between atoms: C_13  and  C_20 
REMARK    4  A    between atoms: C_20  and  O_23 
REMARK    5  A    between atoms: C_30  and  N_31 
ROOT
HETATM    1  C   UNK N   1      29.056  22.014  -6.261  0.00  0.00     0.128 A 
HETATM    2  N   UNK N   1      28.843  23.065  -5.386  0.00  0.00    -0.303 N 
HETATM    3  C   UNK N   1      29.966  20.981  -5.950  0.00  0.00     0.063 A 
HETATM    4  N   UNK N   1      28.393  21.957  -7.441  0.00  0.00    -0.325 N 
ATOM      5  HN  UNK N   1      27.758  22.721  -7.669  1.00  0.00     0.169 HD
HETATM    6  C   UNK N   1      29.561  23.105  -4.224  0.00  0.00     0.121 A 
HETATM    7  C   UNK N   1      30.687  21.033  -4.751  0.00  0.00     0.204 A 
HETATM    8  C   UNK N   1      30.125  19.917  -6.855  0.00  0.00     0.065 A 
HETATM    9  C   UNK N   1      28.520  20.951  -8.339  0.00  0.00     0.144 A 
HETATM   10  C   UNK N   1      30.490  22.118  -3.877  0.00  0.00     0.104 A 
HETATM   11  O   UNK N   1      31.480  20.146  -4.475  0.00  0.00    -0.286 OA
HETATM   12  C   UNK N   1      29.395  19.888  -8.049  0.00  0.00     0.161 A 
HETATM   13  F   UNK N   1      29.568  18.857  -8.912  0.00  0.00    -0.202 F 
ENDROOT
BRANCH   9  14
HETATM   14  N   UNK N   1      27.745  21.016  -9.534  0.00  0.00    -0.364 N 
HETATM   15  C   UNK N   1      26.343  21.319  -9.506  0.00  0.00     0.131 C 
HETATM   16  C   UNK N   1      26.152  22.299 -10.655  0.00  0.00     0.034 A 
HETATM   17  C   UNK N   1      27.418  22.273 -11.502  0.00  0.00     0.034 A 
HETATM   18  C   UNK N   1      26.191  21.555 -11.997  0.00  0.00     0.086 A 
HETATM   19  C   UNK N   1      28.398  21.395 -10.759  0.00  0.00     0.131 C 
BRANCH  18  20
HETATM   20  N   UNK N   1      25.604  22.358 -13.060  0.00  0.00    -0.425 N 
HETATM   21  H   UNK N   1      25.867  23.319 -13.279  0.00  0.00     0.150 HD
HETATM   22  H   UNK N   1      24.875  21.927 -13.627  0.00  0.00     0.150 HD
ENDBRANCH  18  20
ENDBRANCH   9  14
BRANCH   2  23
HETATM   23  C   UNK N   1      27.849  24.121  -5.645  0.00  0.00     0.079 A 
HETATM   24  C   UNK N   1      28.210  25.384  -6.196  0.00  0.00     0.146 A 
HETATM   25  C   UNK N   1      27.236  26.370  -6.403  0.00  0.00     0.086 A 
HETATM   26  F   UNK N   1      29.488  25.675  -6.543  0.00  0.00    -0.204 F 
HETATM   27  C   UNK N   1      25.902  26.135  -6.070  0.00  0.00     0.119 A 
HETATM   28  F   UNK N   1      24.968  27.096  -6.270  0.00  0.00    -0.206 F 
HETATM   29  C   UNK N   1      25.529  24.911  -5.529  0.00  0.00     0.045 A 
HETATM   30  C   UNK N   1      26.490  23.926  -5.322  0.00  0.00     0.036 A 
ENDBRANCH   2  23
BRANCH  10  31
HETATM   31  C   UNK N   1      31.227  22.260  -2.593  0.00  0.00     0.181 C 
HETATM   32  O   UNK N   1      30.791  22.963  -1.695  0.00  0.00    -0.646 OA
BRANCH  31  33
HETATM   33  O   UNK N   1      32.389  21.603  -2.409  0.00  0.00    -0.772 OA
HETATM   34  H   UNK N   1      33.041  21.948  -1.832  0.00  0.00     0.167 HD
ENDBRANCH  31  33
ENDBRANCH  10  31
TORSDOF 5
ENDMDL
MODEL 5
REMARK VINA RESULT:      -7.7      6.368      9.241
REMARK  5 active torsions:
REMARK  status: ('A' for Active; 'I' for Inactive)
REMARK    1  A    between atoms: N_2  and  C_6 
REMARK    2  A    between atoms: C_10  and  N_16 
REMARK    3  A    between atoms: C_13  and  C_20 
REMARK    4  A    between atoms: C_20  and  O_23 
REMARK    5  A    between atoms: C_30  and  N_31 
ROOT
HETATM    1  C   UNK N   1      31.089  16.300   6.266  0.00  0.00     0.128 A 
HETATM    2  N   UNK N   1      31.502  16.210   7.584  0.00  0.00    -0.303 N 
HETATM    3  C   UNK N   1      29.968  17.078   5.906  0.00  0.00     0.063 A 
HETATM    4  N   UNK N   1      31.757  15.639   5.290  0.00  0.00    -0.325 N 
ATOM      5  HN  UNK N   1      32.549  15.058   5.564  1.00  0.00     0.169 HD
HETATM    6  C   UNK N   1      30.778  16.862   8.542  0.00  0.00     0.121 A 
HETATM    7  C   UNK N   1      29.243  17.747   6.899  0.00  0.00     0.204 A 
HETATM    8  C   UNK N   1      29.607  17.166   4.550  0.00  0.00     0.065 A 
HETATM    9  C   UNK N   1      31.439  15.697   3.975  0.00  0.00     0.144 A 
HETATM   10  C   UNK N   1      29.646  17.629   8.242  0.00  0.00     0.104 A 
HETATM   11  O   UNK N   1      28.268  18.418   6.598  0.00  0.00    -0.286 OA
HETATM   12  C   UNK N   1      30.346  16.486   3.574  0.00  0.00     0.161 A 
HETATM   13  F   UNK N   1      29.976  16.579   2.273  0.00  0.00    -0.202 F 
ENDROOT
BRANCH   9  14
HETATM   14  N   UNK N   1      32.242  14.959   3.057  0.00  0.00    -0.364 N 
HETATM   15  C   UNK N   1      33.640  15.237   2.889  0.00  0.00     0.131 C 
HETATM   16  C   UNK N   1      34.288  13.860   2.835  0.00  0.00     0.034 A 
HETATM   17  C   UNK N   1      33.178  12.831   2.659  0.00  0.00     0.034 A 
HETATM   18  C   UNK N   1      34.026  13.204   1.472  0.00  0.00     0.086 A 
HETATM   19  C   UNK N   1      31.880  13.597   2.763  0.00  0.00     0.131 C 
BRANCH  18  20
HETATM   20  N   UNK N   1      34.956  12.111   1.229  0.00  0.00    -0.425 N 
HETATM   21  H   UNK N   1      35.631  12.077   0.465  0.00  0.00     0.150 HD
HETATM   22  H   UNK N   1      34.931  11.320   1.872  0.00  0.00     0.150 HD
ENDBRANCH  18  20
ENDBRANCH   9  14
BRANCH   2  23
HETATM   23  C   UNK N   1      32.709  15.467   7.986  0.00  0.00     0.079 A 
HETATM   24  C   UNK N   1      34.017  16.010   7.843  0.00  0.00     0.146 A 
HETATM   25  C   UNK N   1      35.140  15.259   8.215  0.00  0.00     0.086 A 
HETATM   26  F   UNK N   1      34.225  17.257   7.354  0.00  0.00    -0.204 F 
HETATM   27  C   UNK N   1      34.997  13.969   8.727  0.00  0.00     0.119 A 
HETATM   28  F   UNK N   1      36.089  13.249   9.080  0.00  0.00    -0.206 F 
HETATM   29  C   UNK N   1      33.730  13.420   8.873  0.00  0.00     0.045 A 
HETATM   30  C   UNK N   1      32.610  14.160   8.507  0.00  0.00     0.036 A 
ENDBRANCH   2  23
BRANCH  10  31
HETATM   31  C   UNK N   1      28.924  18.290   9.360  0.00  0.00     0.181 C 
HETATM   32  O   UNK N   1      29.533  18.858  10.252  0.00  0.00    -0.646 OA
BRANCH  31  33
HETATM   33  O   UNK N   1      27.576  18.272   9.392  0.00  0.00    -0.772 OA
HETATM   34  H   UNK N   1      27.106  18.916   9.884  0.00  0.00     0.167 HD
ENDBRANCH  31  33
ENDBRANCH  10  31
TORSDOF 5
ENDMDL
MODEL 6
REMARK VINA RESULT:      -7.7      5.049      8.596
REMARK  5 active torsions:
REMARK  status: ('A' for Active; 'I' for Inactive)
REMARK    1  A    between atoms: N_2  and  C_6 
REMARK    2  A    between atoms: C_10  and  N_16 
REMARK    3  A    between atoms: C_13  and  C_20 
REMARK    4  A    between atoms: C_20  and  O_23 
REMARK    5  A    between atoms: C_30  and  N_31 
ROOT
HETATM    1  C   UNK N   1      22.353  14.754   7.517  0.00  0.00     0.128 A 
HETATM    2  N   UNK N   1      23.610  14.177   7.479  0.00  0.00    -0.303 N 
HETATM    3  C   UNK N   1      21.465  14.493   8.582  0.00  0.00     0.063 A 
HETATM    4  N   UNK N   1      21.948  15.583   6.526  0.00  0.00    -0.325 N 
ATOM      5  HN  UNK N   1      22.586  15.745   5.747  1.00  0.00     0.169 HD
HETATM    6  C   UNK N   1      23.966  13.316   8.479  0.00  0.00     0.121 A 
HETATM    7  C   UNK N   1      21.848  13.615   9.602  0.00  0.00     0.204 A 
HETATM    8  C   UNK N   1      20.210  15.128   8.594  0.00  0.00     0.065 A 
HETATM    9  C   UNK N   1      20.748  16.212   6.501  0.00  0.00     0.144 A 
HETATM   10  C   UNK N   1      23.116  13.007   9.546  0.00  0.00     0.104 A 
HETATM   11  O   UNK N   1      21.084  13.379  10.526  0.00  0.00    -0.286 OA
HETATM   12  C   UNK N   1      19.848  16.000   7.561  0.00  0.00     0.161 A 
HETATM   13  F   UNK N   1      18.631  16.596   7.588  0.00  0.00    -0.202 F 
ENDROOT
BRANCH   9  14
HETATM   14  N   UNK N   1      20.463  17.071   5.399  0.00  0.00    -0.364 N 
HETATM   15  C   UNK N   1      21.356  18.128   5.019  0.00  0.00     0.131 C 
HETATM   16  C   UNK N   1      21.406  18.042   3.499  0.00  0.00     0.034 A 
HETATM   17  C   UNK N   1      20.277  17.123   3.049  0.00  0.00     0.034 A 
HETATM   18  C   UNK N   1      20.116  18.612   2.894  0.00  0.00     0.086 A 
HETATM   19  C   UNK N   1      19.670  16.558   4.312  0.00  0.00     0.131 C 
BRANCH  18  20
HETATM   20  N   UNK N   1      20.296  18.935   1.486  0.00  0.00    -0.425 N 
HETATM   21  H   UNK N   1      20.832  18.376   0.822  0.00  0.00     0.150 HD
HETATM   22  H   UNK N   1      19.850  19.783   1.137  0.00  0.00     0.150 HD
ENDBRANCH  18  20
ENDBRANCH   9  14
BRANCH   2  23
HETATM   23  C   UNK N   1      24.590  14.483   6.422  0.00  0.00     0.079 A 
HETATM   24  C   UNK N   1      24.547  13.857   5.143  0.00  0.00     0.146 A 
HETATM   25  C   UNK N   1      25.514  14.158   4.175  0.00  0.00     0.086 A 
HETATM   26  F   UNK N   1      23.582  12.964   4.816  0.00  0.00    -0.204 F 
HETATM   27  C   UNK N   1      26.534  15.071   4.446  0.00  0.00     0.119 A 
HETATM   28  F   UNK N   1      27.466  15.353   3.504  0.00  0.00    -0.206 F 
HETATM   29  C   UNK N   1      26.595  15.691   5.687  0.00  0.00     0.045 A 
HETATM   30  C   UNK N   1      25.638  15.398   6.653  0.00  0.00     0.036 A 
ENDBRANCH   2  23
BRANCH  10  31
HETATM   31  C   UNK N   1      23.595  12.049  10.577  0.00  0.00     0.181 C 
HETATM   32  O   UNK N   1      24.751  12.076  10.968  0.00  0.00    -0.646 OA
BRANCH  31  33
HETATM   33  O   UNK N   1      22.746  11.141  11.097  0.00  0.00    -0.772 OA
HETATM   34  H   UNK N   1      21.901  11.010  10.714  0.00  0.00     0.167 HD
ENDBRANCH  31  33
ENDBRANCH  10  31
TORSDOF 5
ENDMDL
MODEL 7
REMARK VINA RESULT:      -7.6      3.034      5.874
REMARK  5 active torsions:
REMARK  status: ('A' for Active; 'I' for Inactive)
REMARK    1  A    between atoms: N_2  and  C_6 
REMARK    2  A    between atoms: C_10  and  N_16 
REMARK    3  A    between atoms: C_13  and  C_20 
REMARK    4  A    between atoms: C_20  and  O_23 
REMARK    5  A    between atoms: C_30  and  N_31 
ROOT
HETATM    1  C   UNK N   1      23.412  17.072   5.364  0.00  0.00     0.128 A 
HETATM    2  N   UNK N   1      24.628  17.408   4.795  0.00  0.00    -0.303 N 
HETATM    3  C   UNK N   1      22.258  17.849   5.126  0.00  0.00     0.063 A 
HETATM    4  N   UNK N   1      23.305  15.985   6.166  0.00  0.00    -0.325 N 
ATOM      5  HN  UNK N   1      24.150  15.446   6.353  1.00  0.00     0.169 HD
HETATM    6  C   UNK N   1      24.701  18.533   4.024  0.00  0.00     0.121 A 
HETATM    7  C   UNK N   1      22.348  18.994   4.327  0.00  0.00     0.204 A 
HETATM    8  C   UNK N   1      21.037  17.449   5.699  0.00  0.00     0.065 A 
HETATM    9  C   UNK N   1      22.149  15.569   6.737  0.00  0.00     0.144 A 
HETATM   10  C   UNK N   1      23.592  19.350   3.773  0.00  0.00     0.104 A 
HETATM   11  O   UNK N   1      21.356  19.675   4.119  0.00  0.00    -0.286 OA
HETATM   12  C   UNK N   1      20.972  16.302   6.498  0.00  0.00     0.161 A 
HETATM   13  F   UNK N   1      19.787  15.938   7.047  0.00  0.00    -0.202 F 
ENDROOT
BRANCH   9  14
HETATM   14  N   UNK N   1      22.185  14.397   7.547  0.00  0.00    -0.364 N 
HETATM   15  C   UNK N   1      23.373  13.602   7.667  0.00  0.00     0.131 C 
HETATM   16  C   UNK N   1      23.453  13.278   9.153  0.00  0.00     0.034 A 
HETATM   17  C   UNK N   1      22.115  13.646   9.781  0.00  0.00     0.034 A 
HETATM   18  C   UNK N   1      22.425  12.197   9.515  0.00  0.00     0.086 A 
HETATM   19  C   UNK N   1      21.316  14.322   8.692  0.00  0.00     0.131 C 
BRANCH  18  20
HETATM   20  N   UNK N   1      22.750  11.570  10.789  0.00  0.00    -0.425 N 
HETATM   21  H   UNK N   1      22.987  10.586  10.912  0.00  0.00     0.150 HD
HETATM   22  H   UNK N   1      22.739  12.161  11.620  0.00  0.00     0.150 HD
ENDBRANCH  18  20
ENDBRANCH   9  14
BRANCH   2  23
HETATM   23  C   UNK N   1      25.835  16.580   4.963  0.00  0.00     0.079 A 
HETATM   24  C   UNK N   1      26.059  15.400   4.198  0.00  0.00     0.146 A 
HETATM   25  C   UNK N   1      27.209  14.628   4.407  0.00  0.00     0.086 A 
HETATM   26  F   UNK N   1      25.184  14.987   3.248  0.00  0.00    -0.204 F 
HETATM   27  C   UNK N   1      28.151  14.998   5.368  0.00  0.00     0.119 A 
HETATM   28  F   UNK N   1      29.258  14.243   5.565  0.00  0.00    -0.206 F 
HETATM   29  C   UNK N   1      27.951  16.144   6.126  0.00  0.00     0.045 A 
HETATM   30  C   UNK N   1      26.812  16.917   5.924  0.00  0.00     0.036 A 
ENDBRANCH   2  23
BRANCH  10  31
HETATM   31  C   UNK N   1      23.781  20.558   2.928  0.00  0.00     0.181 C 
HETATM   32  O   UNK N   1      24.712  20.635   2.144  0.00  0.00    -0.646 OA
BRANCH  31  33
HETATM   33  O   UNK N   1      22.911  21.583   3.019  0.00  0.00    -0.772 OA
HETATM   34  H   UNK N   1      22.146  21.604   2.479  0.00  0.00     0.167 HD
ENDBRANCH  31  33
ENDBRANCH  10  31
TORSDOF 5
ENDMDL
MODEL 8
REMARK VINA RESULT:      -7.6      4.526      6.941
REMARK  5 active torsions:
REMARK  status: ('A' for Active; 'I' for Inactive)
REMARK    1  A    between atoms: N_2  and  C_6 
REMARK    2  A    between atoms: C_10  and  N_16 
REMARK    3  A    between atoms: C_13  and  C_20 
REMARK    4  A    between atoms: C_20  and  O_23 
REMARK    5  A    between atoms: C_30  and  N_31 
ROOT
HETATM    1  C   UNK N   1      29.649  17.570   6.063  0.00  0.00     0.128 A 
HETATM    2  N   UNK N   1      29.541  17.173   4.742  0.00  0.00    -0.303 N 
HETATM    3  C   UNK N   1      28.671  18.396   6.656  0.00  0.00     0.063 A 
HETATM    4  N   UNK N   1      30.702  17.172   6.816  0.00  0.00    -0.325 N 
ATOM      5  HN  UNK N   1      31.417  16.597   6.371  1.00  0.00     0.169 HD
HETATM    6  C   UNK N   1      28.483  17.627   4.006  0.00  0.00     0.121 A 
HETATM    7  C   UNK N   1      27.589  18.847   5.891  0.00  0.00     0.204 A 
HETATM    8  C   UNK N   1      28.806  18.747   8.011  0.00  0.00     0.065 A 
HETATM    9  C   UNK N   1      30.869  17.489   8.122  0.00  0.00     0.144 A 
HETATM   10  C   UNK N   1      27.497  18.466   4.539  0.00  0.00     0.104 A 
HETATM   11  O   UNK N   1      26.741  19.567   6.394  0.00  0.00    -0.286 OA
HETATM   12  C   UNK N   1      29.899  18.287   8.756  0.00  0.00     0.161 A 
HETATM   13  F   UNK N   1      30.014  18.642  10.059  0.00  0.00    -0.202 F 
ENDROOT
BRANCH   9  14
HETATM   14  N   UNK N   1      32.021  16.985   8.794  0.00  0.00    -0.364 N 
HETATM   15  C   UNK N   1      32.153  15.594   9.120  0.00  0.00     0.131 C 
HETATM   16  C   UNK N   1      33.595  15.264   8.760  0.00  0.00     0.034 A 
HETATM   17  C   UNK N   1      34.329  16.579   8.531  0.00  0.00     0.034 A 
HETATM   18  C   UNK N   1      34.548  15.832   9.820  0.00  0.00     0.086 A 
HETATM   19  C   UNK N   1      33.278  17.662   8.610  0.00  0.00     0.131 C 
BRANCH  18  20
HETATM   20  N   UNK N   1      35.854  15.193   9.746  0.00  0.00    -0.425 N 
HETATM   21  H   UNK N   1      36.134  14.516   9.037  0.00  0.00     0.150 HD
HETATM   22  H   UNK N   1      36.541  15.442  10.458  0.00  0.00     0.150 HD
ENDBRANCH  18  20
ENDBRANCH   9  14
BRANCH   2  23
HETATM   23  C   UNK N   1      30.503  16.252   4.111  0.00  0.00     0.079 A 
HETATM   24  C   UNK N   1      31.767  16.693   3.623  0.00  0.00     0.146 A 
HETATM   25  C   UNK N   1      32.642  15.788   3.006  0.00  0.00     0.086 A 
HETATM   26  F   UNK N   1      32.169  17.982   3.740  0.00  0.00    -0.204 F 
HETATM   27  C   UNK N   1      32.290  14.447   2.856  0.00  0.00     0.119 A 
HETATM   28  F   UNK N   1      33.142  13.581   2.255  0.00  0.00    -0.206 F 
HETATM   29  C   UNK N   1      31.062  13.997   3.322  0.00  0.00     0.045 A 
HETATM   30  C   UNK N   1      30.188  14.888   3.937  0.00  0.00     0.036 A 
ENDBRANCH   2  23
BRANCH  10  31
HETATM   31  C   UNK N   1      26.393  18.913   3.651  0.00  0.00     0.181 C 
HETATM   32  O   UNK N   1      25.604  18.110   3.179  0.00  0.00    -0.646 OA
BRANCH  31  33
HETATM   33  O   UNK N   1      26.251  20.222   3.362  0.00  0.00    -0.772 OA
HETATM   34  H   UNK N   1      26.888  20.661   2.834  0.00  0.00     0.167 HD
ENDBRANCH  31  33
ENDBRANCH  10  31
TORSDOF 5
ENDMDL
MODEL 9
REMARK VINA RESULT:      -7.5     11.260     13.799
REMARK  5 active torsions:
REMARK  status: ('A' for Active; 'I' for Inactive)
REMARK    1  A    between atoms: N_2  and  C_6 
REMARK    2  A    between atoms: C_10  and  N_16 
REMARK    3  A    between atoms: C_13  and  C_20 
REMARK    4  A    between atoms: C_20  and  O_23 
REMARK    5  A    between atoms: C_30  and  N_31 
ROOT
HETATM    1  C   UNK N   1      27.490  24.109  -5.763  0.00  0.00     0.128 A 
HETATM    2  N   UNK N   1      28.061  24.442  -4.547  0.00  0.00    -0.303 N 
HETATM    3  C   UNK N   1      26.389  24.831  -6.271  0.00  0.00     0.063 A 
HETATM    4  N   UNK N   1      27.979  23.078  -6.492  0.00  0.00    -0.325 N 
ATOM      5  HN  UNK N   1      28.757  22.546  -6.105  1.00  0.00     0.169 HD
HETATM    6  C   UNK N   1      27.514  25.464  -3.825  0.00  0.00     0.121 A 
HETATM    7  C   UNK N   1      25.846  25.881  -5.522  0.00  0.00     0.204 A 
HETATM    8  C   UNK N   1      25.863  24.478  -7.526  0.00  0.00     0.065 A 
HETATM    9  C   UNK N   1      27.499  22.706  -7.704  0.00  0.00     0.144 A 
HETATM   10  C   UNK N   1      26.410  26.198  -4.272  0.00  0.00     0.104 A 
HETATM   11  O   UNK N   1      24.890  26.509  -5.951  0.00  0.00    -0.286 OA
HETATM   12  C   UNK N   1      26.421  23.422  -8.256  0.00  0.00     0.161 A 
HETATM   13  F   UNK N   1      25.894  23.093  -9.461  0.00  0.00    -0.202 F 
ENDROOT
BRANCH   9  14
HETATM   14  N   UNK N   1      28.124  21.609  -8.365  0.00  0.00    -0.364 N 
HETATM   15  C   UNK N   1      29.436  21.722  -8.934  0.00  0.00     0.131 C 
HETATM   16  C   UNK N   1      30.129  20.428  -8.530  0.00  0.00     0.034 A 
HETATM   17  C   UNK N   1      29.063  19.476  -8.002  0.00  0.00     0.034 A 
HETATM   18  C   UNK N   1      29.615  19.263  -9.386  0.00  0.00     0.086 A 
HETATM   19  C   UNK N   1      27.779  20.272  -7.959  0.00  0.00     0.131 C 
BRANCH  18  20
HETATM   20  N   UNK N   1      30.527  18.129  -9.331  0.00  0.00    -0.425 N 
HETATM   21  H   UNK N   1      30.271  17.163  -9.534  0.00  0.00     0.150 HD
HETATM   22  H   UNK N   1      31.495  18.316  -9.071  0.00  0.00     0.150 HD
ENDBRANCH  18  20
ENDBRANCH   9  14
BRANCH   2  23
HETATM   23  C   UNK N   1      29.255  23.758  -4.020  0.00  0.00     0.079 A 
HETATM   24  C   UNK N   1      29.248  23.072  -2.772  0.00  0.00     0.146 A 
HETATM   25  C   UNK N   1      30.414  22.456  -2.296  0.00  0.00     0.086 A 
HETATM   26  F   UNK N   1      28.130  22.984  -2.011  0.00  0.00    -0.204 F 
HETATM   27  C   UNK N   1      31.597  22.507  -3.032  0.00  0.00     0.119 A 
HETATM   28  F   UNK N   1      32.720  21.911  -2.562  0.00  0.00    -0.206 F 
HETATM   29  C   UNK N   1      31.627  23.173  -4.251  0.00  0.00     0.045 A 
HETATM   30  C   UNK N   1      30.474  23.785  -4.731  0.00  0.00     0.036 A 
ENDBRANCH   2  23
BRANCH  10  31
HETATM   31  C   UNK N   1      25.885  27.285  -3.405  0.00  0.00     0.181 C 
HETATM   32  O   UNK N   1      25.897  27.178  -2.189  0.00  0.00    -0.646 OA
BRANCH  31  33
HETATM   33  O   UNK N   1      25.393  28.410  -3.962  0.00  0.00    -0.772 OA
HETATM   34  H   UNK N   1      24.640  28.830  -3.594  0.00  0.00     0.167 HD
ENDBRANCH  31  33
ENDBRANCH  10  31
TORSDOF 5
ENDMDL
